No_0-/export/home/yangzhenyu/potential_scad_32_flow//YTHDC2/2024-12-06-03-22-00/
     RDKit          3D

 19 19  0  0  0  0  0  0  0  0999 V2000
    1.1787   -8.0297    3.5154 C   0  0  0  0  0  0  0  0  0  0  0  0
    1.0491   -6.8434    2.9820 C   0  0  0  0  0  0  0  0  0  0  0  0
    0.0950   -8.8404    3.2292 C   0  0  0  0  0  0  0  0  0  0  0  0
   -0.9173   -8.4596    2.5152 C   0  0  0  0  0  0  0  0  0  0  0  0
   -1.0331   -7.2162    2.0653 C   0  0  0  0  0  0  0  0  0  0  0  0
   -0.0105   -6.3168    2.3081 C   0  0  0  0  0  0  0  0  0  0  0  0
    0.1465  -10.2446    3.6981 Cl  0  0  0  0  0  0  0  0  0  0  0  0
    0.0249   -4.9418    1.9014 O   0  0  0  0  0  0  0  0  0  0  0  0
   -0.1252   -3.9513    2.4903 C   0  0  0  0  0  0  0  0  0  0  0  0
    0.6494   -2.7191    2.0249 C   0  0  0  0  0  0  0  0  0  0  0  0
    1.2995   -1.9837    2.9285 F   0  0  0  0  0  0  0  0  0  0  0  0
    1.8760   -3.3320    1.3119 F   0  0  0  0  0  0  0  0  0  0  0  0
    0.1858   -2.0550    0.9773 F   0  0  0  0  0  0  0  0  0  0  0  0
   -2.1653   -6.8094    1.3314 O   0  0  0  0  0  0  0  0  0  0  0  0
   -2.1968   -6.8569    0.0038 C   0  0  0  0  0  0  0  0  0  0  0  0
   -3.2662   -6.8963   -0.3896 C   0  0  0  0  0  0  0  0  0  0  0  0
   -4.2293   -6.9018    0.3288 C   0  0  0  0  0  0  0  0  0  0  0  0
   -1.0265   -6.9403   -0.7141 O   0  0  0  0  0  0  0  0  0  0  0  0
   -4.9750   -5.7561    0.4938 C   0  0  0  0  0  0  0  0  0  0  0  0
  3  7  1  0
  6  8  1  0
  8  9  1  0
  9 10  1  0
 10 11  1  0
 10 12  1  0
 10 13  1  0
  5 14  1  0
 14 15  1  0
 15 16  1  0
 16 17  1  0
 15 18  2  0
 17 19  2  0
  1  2  2  0
  2  6  1  0
  5  6  2  0
  4  5  1  0
  3  4  2  0
  1  3  1  0
M  END

$$$$
No_1-/export/home/yangzhenyu/potential_scad_32_flow//YTHDC2/2024-12-06-03-22-00/
     RDKit          3D

 19 19  0  0  1  0  0  0  0  0999 V2000
    1.1787   -8.0297    3.5154 C   0  0  0  0  0  0  0  0  0  0  0  0
    1.1048   -9.2215    3.2892 C   0  0  0  0  0  0  0  0  0  0  0  0
    1.2339   -9.7611    2.0189 C   0  0  0  0  0  0  0  0  0  0  0  0
    1.3583   -9.0036    0.9764 C   0  0  0  0  0  0  0  0  0  0  0  0
    1.5996   -7.6362    1.1311 C   0  0  0  0  0  0  0  0  0  0  0  0
    1.4830   -7.0928    2.3626 C   0  0  0  0  0  0  0  0  0  0  0  0
    1.1008  -11.2372    1.8542 C   0  0  1  0  0  0  0  0  0  0  0  0
    0.4812  -11.6084    0.6459 I   0  0  0  0  0  0  0  0  0  0  0  0
    2.5681  -11.8067    2.1120 C   0  0  0  0  0  0  0  0  0  0  0  0
    1.5230   -5.4201    2.7090 Br  0  0  0  0  0  0  0  0  0  0  0  0
    2.3552  -13.2723    1.9591 C   0  0  0  0  0  0  0  0  0  0  0  0
    1.6557  -14.0321    2.5883 C   0  0  2  0  0  0  0  0  0  0  0  0
    1.0784  -13.4564    3.7406 C   0  0  0  0  0  0  0  0  0  0  0  0
    1.5362  -15.3836    2.5440 C   0  0  0  0  0  0  0  0  0  0  0  0
    2.2527  -16.1826    1.7524 O   0  0  0  0  0  0  0  0  0  0  0  0
    0.6856  -16.1741    3.4293 C   0  0  0  0  0  0  0  0  0  0  0  0
    1.7374  -12.7003    4.5893 C   0  0  0  0  0  0  0  0  0  0  0  0
    1.0284  -11.4644    5.0675 C   0  0  0  0  0  0  0  0  0  0  0  0
   -0.3523  -11.7413    5.0117 O   0  0  0  0  0  0  0  0  0  0  0  0
  3  7  1  0
  7  8  1  6
  7  9  1  0
  6 10  1  0
  9 11  1  0
 12 11  1  1
 12 13  1  0
 12 14  1  0
 14 15  2  0
 14 16  1  0
 13 17  1  0
 17 18  1  0
 18 19  2  0
  1  2  2  0
  2  3  1  0
  3  4  2  0
  4  5  1  0
  5  6  2  0
  1  6  1  0
M  END

$$$$
No_2-/export/home/yangzhenyu/potential_scad_32_flow//YTHDC2/2024-12-06-03-22-00/
     RDKit          3D

 19 19  0  0  1  0  0  0  0  0999 V2000
    1.1787   -8.0297    3.5154 C   0  0  0  0  0  0  0  0  0  0  0  0
    1.0491   -6.8434    2.9820 C   0  0  0  0  0  0  0  0  0  0  0  0
    0.0950   -8.8404    3.2292 C   0  0  0  0  0  0  0  0  0  0  0  0
   -0.9173   -8.4596    2.5152 C   0  0  0  0  0  0  0  0  0  0  0  0
   -1.0331   -7.2162    2.0653 C   0  0  0  0  0  0  0  0  0  0  0  0
   -0.0105   -6.3168    2.3081 C   0  0  0  0  0  0  0  0  0  0  0  0
    0.1150   -4.9910    1.8495 C   0  0  0  0  0  0  0  0  0  0  0  0
   -0.5774   -4.1593    2.0596 N   0  0  0  0  0  0  0  0  0  0  0  0
    0.1680  -10.2877    3.7012 C   0  0  0  0  0  0  0  0  0  0  0  0
   -1.0762  -10.9526    3.8329 C   0  0  0  0  0  0  0  0  0  0  0  0
    1.4067  -10.9465    4.0445 C   0  0  0  0  0  0  0  0  0  0  0  0
    1.4813  -12.2966    4.1298 O   0  0  0  0  0  0  0  0  0  0  0  0
    1.3076  -12.8936    2.8080 C   0  0  1  0  0  0  0  0  0  0  0  0
    1.4471  -12.2485    1.7571 C   0  0  0  0  0  0  0  0  0  0  0  0
    1.1419  -14.2649    2.8979 C   0  0  0  0  0  0  0  0  0  0  0  0
    2.4114  -11.2769    1.5391 C   0  0  0  0  0  0  0  0  0  0  0  0
    2.1614  -10.3673    0.5794 O   0  0  0  0  0  0  0  0  0  0  0  0
    0.2465  -14.9017    2.2310 O   0  0  0  0  0  0  0  0  0  0  0  0
    1.9114  -15.0140    3.7040 O   0  0  0  0  0  0  0  0  0  0  0  0
  6  7  1  0
  7  8  1  0
  3  9  1  0
  9 10  2  0
  9 11  1  0
 11 12  1  0
 12 13  1  0
 13 14  1  6
 13 15  1  0
 14 16  1  0
 16 17  2  0
 15 18  2  0
 15 19  1  0
  1  2  2  0
  2  6  1  0
  5  6  2  0
  4  5  1  0
  3  4  2  0
  1  3  1  0
M  END

$$$$
No_3-/export/home/yangzhenyu/potential_scad_32_flow//YTHDC2/2024-12-06-03-22-00/
     RDKit          3D

 19 19  0  0  1  0  0  0  0  0999 V2000
    1.1787   -8.0297    3.5154 O   0  0  0  0  0  0  0  0  0  0  0  0
    0.6747   -7.4019    2.7838 C   0  0  2  0  0  0  0  0  0  0  0  0
    0.7594   -8.0032    1.4295 C   0  0  0  0  0  0  0  0  0  0  0  0
    0.3459   -9.1500    1.3581 O   0  0  0  0  0  0  0  0  0  0  0  0
    1.6169   -7.4194    0.6178 O   0  0  0  0  0  0  0  0  0  0  0  0
    0.9082   -5.8562    2.6881 C   0  0  2  0  0  0  0  0  0  0  0  0
    1.8889   -5.4012    3.5751 C   0  0  0  0  0  0  0  0  0  0  0  0
    0.0056   -5.2194    2.0439 C   0  0  0  0  0  0  0  0  0  0  0  0
    0.3891   -4.1696    1.2582 C   0  0  2  0  0  0  0  0  0  0  0  0
    1.0281   -3.0848    1.7945 C   0  0  0  0  0  0  0  0  0  0  0  0
    1.2004   -1.8608    1.0971 C   0  0  0  0  0  0  0  0  0  0  0  0
    0.6336   -1.8839   -0.1933 C   0  0  1  0  0  0  0  0  0  0  0  0
   -0.1849   -2.8190   -0.6563 C   0  0  2  0  0  0  0  0  0  0  0  0
   -0.3245   -3.9678   -0.0223 C   0  0  0  0  0  0  0  0  0  0  0  0
   -1.0569   -4.9483   -0.4601 O   0  0  0  0  0  0  0  0  0  0  0  0
    0.7541   -0.6506   -0.9449 Cl  0  0  0  0  0  0  0  0  0  0  0  0
   -1.2910   -5.5560    2.2819 O   0  0  0  0  0  0  0  0  0  0  0  0
   -0.7996   -2.7018   -1.8930 C   0  0  0  0  0  0  0  0  0  0  0  0
   -0.5688   -3.4215   -2.9663 O   0  0  0  0  0  0  0  0  0  0  0  0
  2  1  1  1
  2  3  1  0
  3  4  2  0
  3  5  1  0
  2  6  1  0
  6  7  1  1
  6  8  1  0
  9  8  1  1
  9 10  1  0
 11 12  1  0
  9 14  1  0
 13 14  1  0
 14 15  2  0
 12 16  1  1
  8 17  2  0
 13 18  1  6
 18 19  1  0
 10 11  1  0
 12 13  1  0
M  END

$$$$
No_4-/export/home/yangzhenyu/potential_scad_32_flow//YTHDC2/2024-12-06-03-22-00/
     RDKit          3D

 20 20  0  0  1  0  0  0  0  0999 V2000
    1.1787   -8.0297    3.5154 C   0  0  0  0  0  0  0  0  0  0  0  0
    1.1048   -9.2215    3.2892 C   0  0  0  0  0  0  0  0  0  0  0  0
    1.3627  -10.1721    4.3044 C   0  0  0  0  0  0  0  0  0  0  0  0
    1.7354  -11.4730    3.9023 C   0  0  0  0  0  0  0  0  0  0  0  0
    1.8080  -11.8127    2.7216 C   0  0  0  0  0  0  0  0  0  0  0  0
    1.4028  -10.9289    1.8117 C   0  0  0  0  0  0  0  0  0  0  0  0
    1.2324   -9.6663    1.9861 C   0  0  0  0  0  0  0  0  0  0  0  0
    1.1223   -8.7716    0.9645 C   0  0  0  0  0  0  0  0  0  0  0  0
    1.6052   -9.0324   -0.1923 O   0  0  0  0  0  0  0  0  0  0  0  0
    0.5512   -7.5280    1.0943 O   0  0  0  0  0  0  0  0  0  0  0  0
    1.9997  -13.1851    2.2858 C   0  0  0  0  0  0  0  0  0  0  0  0
    1.9849  -14.2248    3.0623 O   0  0  0  0  0  0  0  0  0  0  0  0
    2.8700  -13.3370    1.2481 O   0  0  0  0  0  0  0  0  0  0  0  0
    2.4454   -7.3310    3.4794 O   0  0  0  0  0  0  0  0  0  0  0  0
    0.1598   -7.3215    3.8495 O   0  0  0  0  0  0  0  0  0  0  0  0
    1.4117  -15.4251    2.4666 C   0  0  1  0  0  0  0  0  0  0  0  0
    2.2243  -16.3781    2.5709 C   0  0  0  0  0  0  0  0  0  0  0  0
    3.4967  -16.4374    2.4100 O   0  0  0  0  0  0  0  0  0  0  0  0
    1.7441  -17.6980    2.4030 O   0  0  0  0  0  0  0  0  0  0  0  0
    0.1726  -15.4156    2.2508 C   0  0  0  0  0  0  0  0  0  0  0  0
  1  2  1  0
  7  8  1  0
  8  9  2  0
  8 10  1  0
  5 11  1  0
 11 12  1  0
 11 13  2  0
  1 14  1  0
  1 15  2  0
 12 16  1  0
 16 17  1  0
 17 18  2  0
 17 19  1  0
 16 20  1  1
  2  3  2  0
  3  4  1  0
  4  5  2  0
  5  6  1  0
  6  7  2  0
  2  7  1  0
M  END

$$$$
No_5-/export/home/yangzhenyu/potential_scad_32_flow//YTHDC2/2024-12-06-03-22-00/
     RDKit          3D

 19 19  0  0  1  0  0  0  0  0999 V2000
    1.1787   -8.0297    3.5154 C   0  0  0  0  0  0  0  0  0  0  0  0
    1.1048   -9.2215    3.2892 C   0  0  0  0  0  0  0  0  0  0  0  0
    1.2339   -9.7611    2.0189 C   0  0  0  0  0  0  0  0  0  0  0  0
    1.3583   -9.0036    0.9764 C   0  0  0  0  0  0  0  0  0  0  0  0
    1.5996   -7.6362    1.1311 C   0  0  0  0  0  0  0  0  0  0  0  0
    1.4830   -7.0928    2.3626 C   0  0  0  0  0  0  0  0  0  0  0  0
    1.4898   -5.7274    2.6199 C   0  0  0  0  0  0  0  0  0  0  0  0
    1.1681  -11.2222    1.8390 C   0  0  0  0  0  0  0  0  0  0  0  0
    1.9047  -12.1147    2.3357 P   0  0  1  0  0  0  0  0  0  0  0  0
    2.6610  -11.7530    3.3505 O   0  0  0  0  0  0  0  0  0  0  0  0
    1.0269  -13.2872    2.7256 O   0  0  0  0  0  0  0  0  0  0  0  0
    2.9034  -12.8717    1.3266 O   0  0  0  0  0  0  0  0  0  0  0  0
    1.2449   -4.8670    1.6112 O   0  0  0  0  0  0  0  0  0  0  0  0
    1.7665   -5.1431    3.7926 O   0  0  0  0  0  0  0  0  0  0  0  0
    1.6428   -9.4539   -0.3321 Cl  0  0  0  0  0  0  0  0  0  0  0  0
    1.3581  -14.6752    2.9899 C   0  0  0  0  0  0  0  0  0  0  0  0
    0.7472  -15.6234    2.2060 C   0  0  0  0  0  0  0  0  0  0  0  0
   -0.3078  -15.2707    1.6293 C   0  0  0  0  0  0  0  0  0  0  0  0
   -1.3730  -15.4564    2.3510 C   0  0  0  0  0  0  0  0  0  0  0  0
  6  7  1  0
  3  8  1  0
  8  9  1  0
  9 10  2  0
  9 11  1  0
  9 12  1  6
  7 13  2  0
  7 14  1  0
  4 15  1  0
 11 16  1  0
 16 17  1  0
 17 18  1  0
 18 19  1  0
  1  2  2  0
  2  3  1  0
  3  4  2  0
  4  5  1  0
  5  6  2  0
  1  6  1  0
M  END

$$$$
No_6-/export/home/yangzhenyu/potential_scad_32_flow//YTHDC2/2024-12-06-03-22-00/
     RDKit          3D

 19 19  0  0  1  0  0  0  0  0999 V2000
    1.1787   -8.0297    3.5154 C   0  0  0  0  0  0  0  0  0  0  0  0
    1.0491   -6.8434    2.9820 C   0  0  0  0  0  0  0  0  0  0  0  0
    1.9985   -8.9840    2.8958 C   0  0  2  0  0  0  0  0  0  0  0  0
    1.7297   -9.2108    1.6335 C   0  0  0  0  0  0  0  0  0  0  0  0
    1.7343   -8.0566    0.8408 C   0  0  2  0  0  0  0  0  0  0  0  0
    1.0269   -6.8892    1.4456 C   0  0  0  0  0  0  0  0  0  0  0  0
    1.7596   -8.0979   -0.4723 C   0  0  0  0  0  0  0  0  0  0  0  0
    2.7309   -8.8718   -1.0817 O   0  0  0  0  0  0  0  0  0  0  0  0
    1.9577  -10.3781    3.5590 C   0  0  2  0  0  0  0  0  0  0  0  0
    2.9954  -10.5826    4.3436 C   0  0  0  0  0  0  0  0  0  0  0  0
    1.1605  -11.3675    3.2227 Cl  0  0  0  0  0  0  0  0  0  0  0  0
    3.2854  -11.7846    4.9963 F   0  0  0  0  0  0  0  0  0  0  0  0
    3.4566  -10.0425    5.6426 O   0  0  0  0  0  0  0  0  0  0  0  0
    1.2084   -7.6152   -1.4142 O   0  0  0  0  0  0  0  0  0  0  0  0
    0.9074   -5.6242    3.4866 C   0  0  0  0  0  0  0  0  0  0  0  0
   -0.0020   -4.7764    3.2350 O   0  0  0  0  0  0  0  0  0  0  0  0
    1.8740   -5.1299    4.3159 O   0  0  0  0  0  0  0  0  0  0  0  0
    0.6482   -5.8619    0.7769 O   0  0  0  0  0  0  0  0  0  0  0  0
    2.2383  -10.2577    1.0527 O   0  0  0  0  0  0  0  0  0  0  0  0
  1  2  1  0
  3  1  1  1
  3  4  1  0
  4  5  1  0
  2  6  1  0
  5  6  1  0
  5  7  1  6
  7  8  2  0
  3  9  1  0
  9 10  1  0
  9 11  1  6
 10 12  1  0
 10 13  2  0
  7 14  1  0
  2 15  1  0
 15 16  2  0
 15 17  1  0
  6 18  2  0
  4 19  2  0
M  END

$$$$
No_7-/export/home/yangzhenyu/potential_scad_32_flow//YTHDC2/2024-12-06-03-22-00/
     RDKit          3D

 18 18  0  0  1  0  0  0  0  0999 V2000
    1.1787   -8.0297    3.5154 C   0  0  0  0  0  0  0  0  0  0  0  0
    1.0491   -6.8434    2.9820 C   0  0  0  0  0  0  0  0  0  0  0  0
    0.0950   -8.8404    3.2292 C   0  0  0  0  0  0  0  0  0  0  0  0
    0.0602  -10.1764    3.8231 C   0  0  0  0  0  0  0  0  0  0  0  0
    0.2248   -6.3830    2.0648 C   0  0  0  0  0  0  0  0  0  0  0  0
   -0.6745   -7.2322    1.6857 C   0  0  0  0  0  0  0  0  0  0  0  0
   -0.7374   -8.4992    2.1291 C   0  0  0  0  0  0  0  0  0  0  0  0
   -1.2197  -10.6611    4.0385 O   0  0  0  0  0  0  0  0  0  0  0  0
    1.0699  -10.9946    4.1536 N   0  0  0  0  0  0  0  0  0  0  0  0
    2.3723  -10.8334    3.7313 C   0  0  0  0  0  0  0  0  0  0  0  0
    0.4206   -4.9557    1.3527 O   0  0  0  0  0  0  0  0  0  0  0  0
    2.4866  -11.0371    2.3671 C   0  0  0  0  0  0  0  0  0  0  0  0
    1.7976  -12.0248    1.7031 C   0  0  0  0  0  0  0  0  0  0  0  0
    1.8023  -13.2266    2.2132 C   0  0  2  0  0  0  0  0  0  0  0  0
    2.2427  -13.8108    2.9518 C   0  0  0  0  0  0  0  0  0  0  0  0
    0.8601  -14.0390    1.2724 C   0  0  0  0  0  0  0  0  0  0  0  0
    0.1900  -13.3682    0.4044 O   0  0  0  0  0  0  0  0  0  0  0  0
    0.7628  -15.3581    1.3759 C   0  0  0  0  0  0  0  0  0  0  0  0
  3  4  1  0
  4  8  2  0
  4  9  1  0
  9 10  1  0
  5 11  1  0
 10 12  1  0
 12 13  1  0
 13 14  1  0
 14 15  1  6
 14 16  1  0
 16 17  2  0
 16 18  1  0
  1  2  2  0
  2  5  1  0
  5  6  2  0
  6  7  1  0
  3  7  2  0
  1  3  1  0
M  END

$$$$
No_8-/export/home/yangzhenyu/potential_scad_32_flow//YTHDC2/2024-12-06-03-22-00/
     RDKit          3D

 19 20  0  0  1  0  0  0  0  0999 V2000
    1.1787   -8.0297    3.5154 C   0  0  0  0  0  0  0  0  0  0  0  0
    1.0491   -6.8434    2.9820 C   0  0  0  0  0  0  0  0  0  0  0  0
    0.0950   -8.8404    3.2292 C   0  0  0  0  0  0  0  0  0  0  0  0
    0.0602  -10.1764    3.8231 C   0  0  0  0  0  0  0  0  0  0  0  0
    0.2248   -6.3830    2.0648 C   0  0  0  0  0  0  0  0  0  0  0  0
   -0.6745   -7.2322    1.6857 C   0  0  0  0  0  0  0  0  0  0  0  0
   -0.7374   -8.4992    2.1291 C   0  0  0  0  0  0  0  0  0  0  0  0
   -0.1792  -11.3045    3.0702 N   0  0  0  0  0  0  0  0  0  0  0  0
    0.7002  -12.3631    3.1431 C   0  0  0  0  0  0  0  0  0  0  0  0
    1.9297  -12.1865    3.4983 C   0  0  0  0  0  0  0  0  0  0  0  0
    0.4155  -13.5637    2.5907 C   0  0  1  0  0  0  0  0  0  0  0  0
    0.4205   -5.0777    1.4739 O   0  0  0  0  0  0  0  0  0  0  0  0
    1.3963  -14.6464    2.8552 O   0  0  0  0  0  0  0  0  0  0  0  0
    2.3057  -11.4752    4.3608 N   0  0  0  0  0  0  0  0  0  0  0  0
    1.2590  -10.3021    4.6038 C   0  0  0  0  0  0  0  0  0  0  0  0
   -0.8936  -14.0312    2.7602 Cl  0  0  0  0  0  0  0  0  0  0  0  0
   -1.5938   -6.9121    0.7239 C   0  0  0  0  0  0  0  0  0  0  0  0
   -2.5852   -6.0433    0.9726 C   0  0  0  0  0  0  0  0  0  0  0  0
   -3.4395   -5.9094    0.4385 C   0  0  0  0  0  0  0  0  0  0  0  0
  3  4  1  0
  9 11  1  0
  5 12  1  0
 11 13  1  1
 11 16  1  0
  6 17  1  0
 17 18  1  0
 18 19  2  0
  4  8  2  0
  8  9  1  0
  9 10  2  0
 10 14  1  0
 14 15  2  0
  4 15  1  0
  1  2  2  0
  2  5  1  0
  5  6  2  0
  6  7  1  0
  3  7  2  0
  1  3  1  0
M  END

$$$$
No_9-/export/home/yangzhenyu/potential_scad_32_flow//YTHDC2/2024-12-06-03-22-00/
     RDKit          3D

 17 17  0  0  0  0  0  0  0  0999 V2000
    1.1787   -8.0297    3.5154 C   0  0  0  0  0  0  0  0  0  0  0  0
    1.0491   -6.8434    2.9820 C   0  0  0  0  0  0  0  0  0  0  0  0
    0.0950   -8.8404    3.2292 C   0  0  0  0  0  0  0  0  0  0  0  0
   -0.9173   -8.4596    2.5152 C   0  0  0  0  0  0  0  0  0  0  0  0
   -1.0331   -7.2162    2.0653 C   0  0  0  0  0  0  0  0  0  0  0  0
   -0.0105   -6.3168    2.3081 C   0  0  0  0  0  0  0  0  0  0  0  0
    0.1465  -10.2446    3.6981 C   0  0  0  0  0  0  0  0  0  0  0  0
    1.2433  -10.8239    4.0166 C   0  0  0  0  0  0  0  0  0  0  0  0
    1.0790  -12.2885    4.3779 N   0  0  0  0  0  0  0  0  0  0  0  0
    2.0375  -12.8586    3.6735 C   0  0  0  0  0  0  0  0  0  0  0  0
    1.5278  -14.2949    3.1216 C   0  0  0  0  0  0  0  0  0  0  0  0
    2.2197  -15.2079    2.4415 O   0  0  0  0  0  0  0  0  0  0  0  0
    0.2164  -14.4894    3.2956 O   0  0  0  0  0  0  0  0  0  0  0  0
   -0.0592   -5.0274    1.8515 P   0  0  0  0  0  0  0  0  0  0  0  0
   -0.9593   -4.2326    2.2862 O   0  0  0  0  0  0  0  0  0  0  0  0
   -0.1113   -4.9674    0.3588 O   0  0  0  0  0  0  0  0  0  0  0  0
    1.3428   -4.1391    1.9783 O   0  0  0  0  0  0  0  0  0  0  0  0
  3  7  1  0
  7  8  2  3
  8  9  1  0
  9 10  1  0
 10 11  1  0
 11 12  2  0
 11 13  1  0
  6 14  1  0
 14 15  1  0
 14 16  2  0
 14 17  1  0
  1  2  2  0
  2  6  1  0
  5  6  2  0
  4  5  1  0
  3  4  2  0
  1  3  1  0
M  END

$$$$
No_10-/export/home/yangzhenyu/potential_scad_32_flow//YTHDC2/2024-12-06-03-22-00/
     RDKit          3D

 19 19  0  0  1  0  0  0  0  0999 V2000
    1.1787   -8.0297    3.5154 P   0  0  1  0  0  0  0  0  0  0  0  0
    1.2030   -9.2736    3.3536 O   0  0  0  0  0  0  0  0  0  0  0  0
    2.2726   -7.2253    3.0302 O   0  0  0  0  0  0  0  0  0  0  0  0
   -0.0394   -7.4355    3.4610 O   0  0  0  0  0  0  0  0  0  0  0  0
    0.5473  -10.3089    4.2347 C   0  0  0  0  0  0  0  0  0  0  0  0
    0.1349  -11.5400    3.6785 C   0  0  0  0  0  0  0  0  0  0  0  0
    1.3491  -12.1269    3.0269 C   0  0  0  0  0  0  0  0  0  0  0  0
    1.3854  -13.5408    3.0913 C   0  0  0  0  0  0  0  0  0  0  0  0
    0.9424  -14.0617    1.7307 C   0  0  1  0  0  0  0  0  0  0  0  0
    0.9354  -15.3259    1.6384 C   0  0  0  0  0  0  0  0  0  0  0  0
    0.5495  -16.0737    2.3211 O   0  0  0  0  0  0  0  0  0  0  0  0
    1.7017  -15.9081    0.6936 O   0  0  0  0  0  0  0  0  0  0  0  0
   -0.2822  -13.4107    1.2984 C   0  0  0  0  0  0  0  0  0  0  0  0
   -0.2353  -12.3643    0.3955 C   0  0  0  0  0  0  0  0  0  0  0  0
   -1.3905  -11.7265   -0.1135 C   0  0  0  0  0  0  0  0  0  0  0  0
   -2.5448  -12.2354    0.2645 C   0  0  0  0  0  0  0  0  0  0  0  0
   -2.7139  -13.3177    1.0585 C   0  0  0  0  0  0  0  0  0  0  0  0
   -1.5886  -13.9359    1.6051 C   0  0  0  0  0  0  0  0  0  0  0  0
   -1.2161  -10.5783   -1.1456 O   0  0  0  0  0  0  0  0  0  0  0  0
  1  2  1  0
  1  3  2  0
  1  4  1  6
  2  5  1  0
  5  6  1  0
  6  7  1  0
  7  8  1  0
  9  8  1  1
  9 10  1  0
 10 11  1  0
 10 12  2  0
  9 13  1  0
 15 19  1  0
 13 14  2  0
 14 15  1  0
 15 16  2  0
 16 17  1  0
 17 18  2  0
 13 18  1  0
M  END

$$$$
No_11-/export/home/yangzhenyu/potential_scad_32_flow//YTHDC2/2024-12-06-03-22-00/
     RDKit          3D

 18 17  0  0  1  0  0  0  0  0999 V2000
    1.1787   -8.0297    3.5154 C   0  0  0  0  0  0  0  0  0  0  0  0
    1.0491   -6.8434    2.9820 C   0  0  2  0  0  0  0  0  0  0  0  0
    1.9985   -8.9840    2.8958 N   0  0  0  0  0  0  0  0  0  0  0  0
    1.9507  -10.2551    3.6182 C   0  0  0  0  0  0  0  0  0  0  0  0
    0.6936   -6.6736    1.6712 N   0  0  0  0  0  0  0  0  0  0  0  0
    1.9751  -10.2902    4.9052 O   0  0  0  0  0  0  0  0  0  0  0  0
    2.3271  -11.4584    2.8742 C   0  0  0  0  0  0  0  0  0  0  0  0
    0.5371   -7.7122    0.9732 C   0  0  0  0  0  0  0  0  0  0  0  0
    1.8438  -11.4593    1.5248 C   0  0  0  0  0  0  0  0  0  0  0  0
    1.3270  -12.6457    1.1354 O   0  0  0  0  0  0  0  0  0  0  0  0
    2.0673  -10.4160    0.7953 O   0  0  0  0  0  0  0  0  0  0  0  0
    2.0556   -5.8395    3.4928 C   0  0  0  0  0  0  0  0  0  0  0  0
   -0.6397   -8.3124    0.7373 C   0  0  0  0  0  0  0  0  0  0  0  0
   -0.6681   -9.4457   -0.1993 O   0  0  0  0  0  0  0  0  0  0  0  0
   -1.6176   -8.2886    1.5205 N   0  0  0  0  0  0  0  0  0  0  0  0
    1.7178   -7.8949    0.0631 O   0  0  0  0  0  0  0  0  0  0  0  0
    2.1944   -5.7727    4.6820 O   0  0  0  0  0  0  0  0  0  0  0  0
    2.0717   -4.6663    2.7610 O   0  0  0  0  0  0  0  0  0  0  0  0
  2  1  1  6
  1  3  1  0
  3  4  1  0
  2  5  1  0
  4  6  2  0
  4  7  1  0
  5  8  1  0
  7  9  1  0
  9 10  2  0
  9 11  1  0
  2 12  1  0
  8 13  1  0
 13 14  2  0
 13 15  1  0
  8 16  2  0
 12 17  2  0
 12 18  1  0
M  END

$$$$
No_12-/export/home/yangzhenyu/potential_scad_32_flow//YTHDC2/2024-12-06-03-22-00/
     RDKit          3D

 17 17  0  0  0  0  0  0  0  0999 V2000
    1.1787   -8.0297    3.5154 C   0  0  0  0  0  0  0  0  0  0  0  0
    1.1048   -9.2215    3.2892 C   0  0  0  0  0  0  0  0  0  0  0  0
    1.2339   -9.7611    2.0189 C   0  0  0  0  0  0  0  0  0  0  0  0
    1.1954  -11.2312    1.8661 C   0  0  0  0  0  0  0  0  0  0  0  0
    1.2996  -11.5815    0.5387 C   0  0  0  0  0  0  0  0  0  0  0  0
    0.9270   -7.0442    2.4967 C   0  0  0  0  0  0  0  0  0  0  0  0
    0.9803   -7.6034    1.0978 C   0  0  0  0  0  0  0  0  0  0  0  0
    0.7911   -6.7930    0.0869 C   0  0  0  0  0  0  0  0  0  0  0  0
    1.1127   -8.9729    0.8953 N   0  0  0  0  0  0  0  0  0  0  0  0
    1.0911  -12.0007    2.8594 C   0  0  0  0  0  0  0  0  0  0  0  0
    1.8092  -12.5416    3.4599 C   0  0  0  0  0  0  0  0  0  0  0  0
    0.2328   -7.3255   -0.8974 O   0  0  0  0  0  0  0  0  0  0  0  0
    0.6578   -5.5171    0.2567 O   0  0  0  0  0  0  0  0  0  0  0  0
    1.3198  -12.9506    0.4094 O   0  0  0  0  0  0  0  0  0  0  0  0
    0.9777   -5.6927    2.7009 O   0  0  0  0  0  0  0  0  0  0  0  0
   -0.3274  -12.0855    3.3803 C   0  0  0  0  0  0  0  0  0  0  0  0
   -1.0505  -11.1682    3.3678 C   0  0  0  0  0  0  0  0  0  0  0  0
  3  4  1  0
  4  5  1  0
  7  8  1  0
  4 10  1  0
 10 11  2  0
  8 12  2  0
  8 13  1  0
  5 14  2  0
  6 15  1  0
 10 16  1  0
 16 17  2  0
  1  2  2  0
  2  3  1  0
  3  9  2  0
  7  9  1  0
  6  7  2  0
  1  6  1  0
M  END

$$$$
No_13-/export/home/yangzhenyu/potential_scad_32_flow//YTHDC2/2024-12-06-03-22-00/
     RDKit          3D

 18 18  0  0  1  0  0  0  0  0999 V2000
    1.1787   -8.0297    3.5154 C   0  0  2  0  0  0  0  0  0  0  0  0
    1.0491   -6.8434    2.9820 C   0  0  0  0  0  0  0  0  0  0  0  0
    1.9985   -8.9840    2.8958 C   0  0  0  0  0  0  0  0  0  0  0  0
    1.9135  -10.3404    3.6266 C   0  0  0  0  0  0  0  0  0  0  0  0
    0.9460  -10.6347    4.5748 C   0  0  1  0  0  0  0  0  0  0  0  0
   -0.0977   -9.6850    4.6652 C   0  0  0  0  0  0  0  0  0  0  0  0
   -0.0465   -8.4791    4.1040 C   0  0  0  0  0  0  0  0  0  0  0  0
    1.1124   -5.6985    3.4928 N   0  0  0  0  0  0  0  0  0  0  0  0
    1.1601   -6.6720    1.5806 O   0  0  0  0  0  0  0  0  0  0  0  0
    1.3208   -4.4423    3.0100 C   0  0  0  0  0  0  0  0  0  0  0  0
    0.8831  -12.0380    4.8929 O   0  0  0  0  0  0  0  0  0  0  0  0
    0.7630   -4.1651    1.9104 C   0  0  0  0  0  0  0  0  0  0  0  0
    0.4286   -2.7262    1.7155 P   0  0  0  0  0  0  0  0  0  0  0  0
    0.9230   -1.8607    2.5980 O   0  0  0  0  0  0  0  0  0  0  0  0
    1.0068   -2.2443    0.2605 O   0  0  0  0  0  0  0  0  0  0  0  0
   -1.1497   -2.5588    1.5384 O   0  0  0  0  0  0  0  0  0  0  0  0
    2.9416  -11.2502    3.2899 O   0  0  0  0  0  0  0  0  0  0  0  0
   -1.0164   -7.6881    4.4242 O   0  0  0  0  0  0  0  0  0  0  0  0
  1  2  1  6
  1  3  1  0
  4  5  1  0
  1  7  1  0
  6  7  1  0
  2  8  1  0
  2  9  2  0
  8 10  1  0
  5 11  1  6
 10 12  1  0
 12 13  1  0
 13 14  1  0
 13 15  2  0
 13 16  1  0
  4 17  1  0
  7 18  2  0
  3  4  1  0
  5  6  1  0
M  END

$$$$
No_14-/export/home/yangzhenyu/potential_scad_32_flow//YTHDC2/2024-12-06-03-22-00/
     RDKit          3D

 18 18  0  0  0  0  0  0  0  0999 V2000
    1.1787   -8.0297    3.5154 C   0  0  0  0  0  0  0  0  0  0  0  0
    1.0491   -6.8434    2.9820 C   0  0  0  0  0  0  0  0  0  0  0  0
    0.0950   -8.8404    3.2292 C   0  0  0  0  0  0  0  0  0  0  0  0
   -0.9173   -8.4596    2.5152 C   0  0  0  0  0  0  0  0  0  0  0  0
   -1.0331   -7.2162    2.0653 C   0  0  0  0  0  0  0  0  0  0  0  0
   -0.0105   -6.3168    2.3081 C   0  0  0  0  0  0  0  0  0  0  0  0
    0.1465  -10.2446    3.6981 C   0  0  0  0  0  0  0  0  0  0  0  0
    1.2433  -10.8239    4.0166 C   0  0  0  0  0  0  0  0  0  0  0  0
    2.4912  -10.5210    3.8610 C   0  0  0  0  0  0  0  0  0  0  0  0
   -0.0801   -5.0324    1.8109 Cl  0  0  0  0  0  0  0  0  0  0  0  0
    2.8349  -10.2443    2.6011 C   0  0  0  0  0  0  0  0  0  0  0  0
    2.2610  -10.6838    1.5357 P   0  0  0  0  0  0  0  0  0  0  0  0
    2.0490  -12.0877    1.4071 O   0  0  0  0  0  0  0  0  0  0  0  0
    0.8562   -9.9062    1.2337 O   0  0  0  0  0  0  0  0  0  0  0  0
    2.7650  -10.1880    0.1549 O   0  0  0  0  0  0  0  0  0  0  0  0
    3.5486  -10.7371    4.8209 O   0  0  0  0  0  0  0  0  0  0  0  0
   -1.2134  -10.7991    4.2878 O   0  0  0  0  0  0  0  0  0  0  0  0
   -1.6931  -11.7051    3.4457 C   0  0  0  0  0  0  0  0  0  0  0  0
  3  7  1  0
  7  8  2  3
  8  9  1  0
  6 10  1  0
  9 11  1  0
 11 12  1  0
 12 13  1  0
 12 14  2  0
 12 15  1  0
  9 16  2  0
  7 17  1  0
 17 18  1  0
  1  2  2  0
  2  6  1  0
  5  6  2  0
  4  5  1  0
  3  4  2  0
  1  3  1  0
M  END

$$$$
No_15-/export/home/yangzhenyu/potential_scad_32_flow//YTHDC2/2024-12-06-03-22-00/
     RDKit          3D

 18 17  0  0  1  0  0  0  0  0999 V2000
    1.1787   -8.0297    3.5154 C   0  0  0  0  0  0  0  0  0  0  0  0
    1.0491   -6.8434    2.9820 C   0  0  0  0  0  0  0  0  0  0  0  0
    1.9985   -8.9840    2.8958 C   0  0  0  0  0  0  0  0  0  0  0  0
    1.9135  -10.3404    3.6266 C   0  0  2  0  0  0  0  0  0  0  0  0
    2.2847  -10.5440    4.7936 C   0  0  0  0  0  0  0  0  0  0  0  0
    1.7595   -5.7666    3.2682 F   0  0  0  0  0  0  0  0  0  0  0  0
    0.4591   -6.7304    1.8210 O   0  0  0  0  0  0  0  0  0  0  0  0
    1.6506  -11.4238    2.7764 C   0  0  2  0  0  0  0  0  0  0  0  0
    1.6524  -11.3470    1.4339 C   0  0  0  0  0  0  0  0  0  0  0  0
    0.9131  -10.9951    0.7657 O   0  0  0  0  0  0  0  0  0  0  0  0
    2.7619  -11.5984    0.8491 Br  0  0  0  0  0  0  0  0  0  0  0  0
    1.9385  -11.3404    5.6990 O   0  0  0  0  0  0  0  0  0  0  0  0
    3.6182  -10.0011    5.2570 O   0  0  0  0  0  0  0  0  0  0  0  0
    1.1507  -12.6081    3.3833 C   0  0  0  0  0  0  0  0  0  0  0  0
    0.8147  -13.7437    2.5236 C   0  0  0  0  0  0  0  0  0  0  0  0
   -0.4960  -13.9391    2.1652 C   0  0  0  0  0  0  0  0  0  0  0  0
   -1.4430  -13.2666    2.5156 O   0  0  0  0  0  0  0  0  0  0  0  0
   -0.6414  -14.9875    1.3674 N   0  0  0  0  0  0  0  0  0  0  0  0
  1  2  1  0
  1  3  1  0
  4  3  1  6
  4  5  1  0
  2  6  1  0
  2  7  2  0
  4  8  1  0
  8  9  1  0
  9 10  2  0
  9 11  1  0
  5 12  2  0
  5 13  1  0
  8 14  1  1
 14 15  1  0
 15 16  1  0
 16 17  2  0
 16 18  1  0
M  END

$$$$
No_16-/export/home/yangzhenyu/potential_scad_32_flow//YTHDC2/2024-12-06-03-22-00/
     RDKit          3D

 18 19  0  0  1  0  0  0  0  0999 V2000
    1.1787   -8.0297    3.5154 C   0  0  0  0  0  0  0  0  0  0  0  0
    1.0491   -6.8434    2.9820 C   0  0  0  0  0  0  0  0  0  0  0  0
    0.0950   -8.8404    3.2292 C   0  0  0  0  0  0  0  0  0  0  0  0
   -0.9173   -8.4596    2.5152 C   0  0  0  0  0  0  0  0  0  0  0  0
   -1.0331   -7.2162    2.0653 C   0  0  0  0  0  0  0  0  0  0  0  0
   -0.0105   -6.3168    2.3081 C   0  0  0  0  0  0  0  0  0  0  0  0
    0.0485   -4.9783    1.8782 C   0  0  0  0  0  0  0  0  0  0  0  0
   -0.4744   -4.1559    2.2381 N   0  0  0  0  0  0  0  0  0  0  0  0
    0.1794  -10.2887    3.6920 C   0  0  2  0  0  0  0  0  0  0  0  0
   -1.0590  -10.9705    3.8160 N   0  0  0  0  0  0  0  0  0  0  0  0
    1.2939  -10.8033    4.3239 N   0  0  0  0  0  0  0  0  0  0  0  0
    0.9092   -4.6755    0.8050 N   0  0  0  0  0  0  0  0  0  0  0  0
    1.3099  -12.1587    4.3054 C   0  0  0  0  0  0  0  0  0  0  0  0
    0.2073  -12.8525    4.0632 N   0  0  0  0  0  0  0  0  0  0  0  0
   -0.8585  -12.2992    3.8005 C   0  0  0  0  0  0  0  0  0  0  0  0
   -1.9518  -13.0208    3.6354 O   0  0  0  0  0  0  0  0  0  0  0  0
   -0.6013   -3.1276    2.1331 N   0  0  0  0  0  0  0  0  0  0  0  0
   -1.1401   -2.6506    1.1901 O   0  0  0  0  0  0  0  0  0  0  0  0
  6  7  1  0
  7  8  2  3
  9  3  1  1
  9 11  1  0
  7 12  1  0
 13 14  1  0
 10 15  1  0
 14 15  1  0
 15 16  2  0
  8 17  1  0
 17 18  2  0
  9 10  1  0
 11 13  1  0
  1  2  2  0
  2  6  1  0
  5  6  2  0
  4  5  1  0
  3  4  2  0
  1  3  1  0
M  END

$$$$
No_17-/export/home/yangzhenyu/potential_scad_32_flow//YTHDC2/2024-12-06-03-22-00/
     RDKit          3D

 20 20  0  0  1  0  0  0  0  0999 V2000
    1.1787   -8.0297    3.5154 P   0  0  1  0  0  0  0  0  0  0  0  0
    1.2274   -6.8896    2.8483 O   0  0  0  0  0  0  0  0  0  0  0  0
   -0.1301   -8.2093    3.8296 O   0  0  0  0  0  0  0  0  0  0  0  0
    1.4789   -9.2673    2.4648 O   0  0  0  0  0  0  0  0  0  0  0  0
    0.8849   -6.5286    1.5624 C   0  0  0  0  0  0  0  0  0  0  0  0
   -0.3915   -6.0515    1.6271 C   0  0  1  0  0  0  0  0  0  0  0  0
   -0.6117   -4.7242    2.1275 C   0  0  0  0  0  0  0  0  0  0  0  0
    0.4042   -3.8843    1.9809 O   0  0  0  0  0  0  0  0  0  0  0  0
   -1.7111   -4.3139    2.5951 O   0  0  0  0  0  0  0  0  0  0  0  0
   -1.3132   -6.5034    0.7553 C   0  0  0  0  0  0  0  0  0  0  0  0
   -1.9913   -7.5540    1.1304 C   0  0  0  0  0  0  0  0  0  0  0  0
   -2.9714   -8.0126    0.1674 O   0  0  0  0  0  0  0  0  0  0  0  0
   -2.4755   -8.9165   -0.6273 C   0  0  1  0  0  0  0  0  0  0  0  0
   -2.4838   -8.6318   -1.8527 C   0  0  0  0  0  0  0  0  0  0  0  0
   -1.5400   -8.8586   -2.7638 C   0  0  2  0  0  0  0  0  0  0  0  0
   -0.3161   -9.4288   -2.3105 C   0  0  0  0  0  0  0  0  0  0  0  0
   -0.3144   -9.9213   -0.9014 C   0  0  0  0  0  0  0  0  0  0  0  0
   -1.2977   -9.5142   -0.0295 C   0  0  0  0  0  0  0  0  0  0  0  0
   -1.4563   -8.3620   -3.9945 C   0  0  0  0  0  0  0  0  0  0  0  0
   -1.3078   -6.9808   -4.2980 O   0  0  0  0  0  0  0  0  0  0  0  0
  1  2  1  0
  1  3  1  6
  1  4  2  0
  2  5  1  0
  6  5  1  6
  6  7  1  0
  7  8  1  0
  7  9  2  0
  6 10  1  0
 10 11  1  0
 11 12  1  0
 13 12  1  1
 13 14  1  0
 14 15  1  0
 15 16  1  0
 16 17  1  0
 13 18  1  0
 17 18  1  0
 15 19  1  1
 19 20  1  0
M  END

$$$$
No_18-/export/home/yangzhenyu/potential_scad_32_flow//YTHDC2/2024-12-06-03-22-00/
     RDKit          3D

 20 20  0  0  1  0  0  0  0  0999 V2000
    1.1787   -8.0297    3.5154 O   0  0  0  0  0  0  0  0  0  0  0  0
    0.6747   -7.4019    2.7838 C   0  0  1  0  0  0  0  0  0  0  0  0
    0.5570   -6.0797    2.8560 C   0  0  0  0  0  0  0  0  0  0  0  0
    1.6734   -5.4651    3.4094 C   0  0  0  0  0  0  0  0  0  0  0  0
    1.4143   -9.4928    3.3921 C   0  0  0  0  0  0  0  0  0  0  0  0
    1.2095  -10.0943    2.2496 C   0  0  0  0  0  0  0  0  0  0  0  0
    0.6517   -9.2915    1.2230 C   0  0  1  0  0  0  0  0  0  0  0  0
    0.4740   -7.9290    1.4411 C   0  0  1  0  0  0  0  0  0  0  0  0
    0.0122   -7.2739    0.4886 C   0  0  0  0  0  0  0  0  0  0  0  0
    0.4950   -9.9032    0.1355 C   0  0  0  0  0  0  0  0  0  0  0  0
   -0.4565   -9.9318   -0.4771 O   0  0  0  0  0  0  0  0  0  0  0  0
    1.6068  -11.3928    2.1445 C   0  0  0  0  0  0  0  0  0  0  0  0
    2.4547  -11.8169    1.1006 O   0  0  0  0  0  0  0  0  0  0  0  0
    1.4715  -12.2700    3.1307 N   0  0  0  0  0  0  0  0  0  0  0  0
    1.2702  -13.5718    3.0740 C   0  0  0  0  0  0  0  0  0  0  0  0
    0.9147  -14.1570    1.9008 C   0  0  0  0  0  0  0  0  0  0  0  0
   -0.2787  -13.9800    1.4524 C   0  0  0  0  0  0  0  0  0  0  0  0
   -0.4508  -14.1183    0.0289 C   0  0  0  0  0  0  0  0  0  0  0  0
   -1.2696  -13.4168   -0.7025 C   0  0  0  0  0  0  0  0  0  0  0  0
   -2.2970  -12.8006   -0.1006 C   0  0  0  0  0  0  0  0  0  0  0  0
  1  2  1  0
  2  3  1  6
  3  4  1  0
  1  5  1  0
  5  6  2  0
  6  7  1  0
  2  8  1  0
  7  8  1  0
  8  9  1  1
  7 10  1  6
 10 11  2  0
  6 12  1  0
 12 13  2  0
 12 14  1  0
 14 15  1  0
 15 16  1  0
 16 17  1  0
 17 18  1  0
 18 19  2  3
 19 20  1  0
M  END

$$$$
No_19-/export/home/yangzhenyu/potential_scad_32_flow//YTHDC2/2024-12-06-03-22-00/
     RDKit          3D

 19 19  0  0  0  0  0  0  0  0999 V2000
    1.1787   -8.0297    3.5154 C   0  0  0  0  0  0  0  0  0  0  0  0
    1.1048   -9.2215    3.2892 C   0  0  0  0  0  0  0  0  0  0  0  0
    1.3627  -10.1721    4.3044 C   0  0  0  0  0  0  0  0  0  0  0  0
    1.7354  -11.4730    3.9023 C   0  0  0  0  0  0  0  0  0  0  0  0
    1.8080  -11.8127    2.7216 C   0  0  0  0  0  0  0  0  0  0  0  0
    1.5854  -11.0021    1.7249 C   0  0  0  0  0  0  0  0  0  0  0  0
    1.3573   -9.7389    1.9287 C   0  0  0  0  0  0  0  0  0  0  0  0
    1.2865   -8.8078    0.9161 C   0  0  0  0  0  0  0  0  0  0  0  0
    0.9210   -7.5140    1.1674 O   0  0  0  0  0  0  0  0  0  0  0  0
    1.6758   -9.1531   -0.3647 N   0  0  0  0  0  0  0  0  0  0  0  0
    2.0859  -13.2030    2.3133 C   0  0  0  0  0  0  0  0  0  0  0  0
    1.8861  -14.2507    3.1088 O   0  0  0  0  0  0  0  0  0  0  0  0
    2.5068  -13.4697    1.0655 O   0  0  0  0  0  0  0  0  0  0  0  0
    0.1197   -7.2134    3.6906 O   0  0  0  0  0  0  0  0  0  0  0  0
    2.3177   -7.1704    3.7510 O   0  0  0  0  0  0  0  0  0  0  0  0
    1.5029  -15.4483    2.5865 C   0  0  0  0  0  0  0  0  0  0  0  0
    2.3076  -16.3177    2.5240 C   0  0  0  0  0  0  0  0  0  0  0  0
    3.6373  -16.3145    2.4153 O   0  0  0  0  0  0  0  0  0  0  0  0
    1.8462  -17.5966    1.8987 C   0  0  0  0  0  0  0  0  0  0  0  0
  1  2  1  0
  7  8  1  0
  8  9  2  0
  8 10  1  0
  5 11  1  0
 11 12  1  0
 11 13  2  0
  1 14  1  0
  1 15  2  0
 12 16  1  0
 16 17  1  0
 17 18  2  0
 17 19  1  0
  2  3  2  0
  3  4  1  0
  4  5  2  0
  5  6  1  0
  6  7  2  0
  2  7  1  0
M  END

$$$$
No_20-/export/home/yangzhenyu/potential_scad_32_flow//YTHDC2/2024-12-06-03-22-00/
     RDKit          3D

 21 20  0  0  1  0  0  0  0  0999 V2000
    1.1787   -8.0297    3.5154 C   0  0  0  0  0  0  0  0  0  0  0  0
    1.0491   -6.8434    2.9820 Cl  0  0  0  0  0  0  0  0  0  0  0  0
    2.1643   -8.9961    3.0118 C   0  0  0  0  0  0  0  0  0  0  0  0
    2.0942   -9.3228    1.8100 C   0  0  0  0  0  0  0  0  0  0  0  0
    1.2581   -8.8602    0.9501 C   0  0  0  0  0  0  0  0  0  0  0  0
    1.1078   -9.3088   -0.1692 C   0  0  0  0  0  0  0  0  0  0  0  0
    0.2139   -8.8177   -1.1555 O   0  0  0  0  0  0  0  0  0  0  0  0
    1.2711  -10.5768   -0.3978 O   0  0  0  0  0  0  0  0  0  0  0  0
    2.8038   -9.9320    3.9657 Cl  0  0  0  0  0  0  0  0  0  0  0  0
   -1.0764   -8.8254   -1.3164 C   0  0  1  0  0  0  0  0  0  0  0  0
   -1.7488   -9.3324   -0.3827 C   0  0  0  0  0  0  0  0  0  0  0  0
   -1.7134   -8.0489   -2.3037 C   0  0  0  0  0  0  0  0  0  0  0  0
   -0.9148   -7.7045   -3.2793 O   0  0  0  0  0  0  0  0  0  0  0  0
   -2.8381   -7.7017   -2.2463 O   0  0  0  0  0  0  0  0  0  0  0  0
   -2.1118   -8.5341    0.8427 O   0  0  0  0  0  0  0  0  0  0  0  0
   -2.3426  -10.5151   -0.3288 O   0  0  0  0  0  0  0  0  0  0  0  0
    2.7241  -10.5853    1.3605 O   0  0  0  0  0  0  0  0  0  0  0  0
   -2.9316   -7.5282    0.9009 C   0  0  0  0  0  0  0  0  0  0  0  0
   -4.1697   -7.8358    1.4292 C   0  0  0  0  0  0  0  0  0  0  0  0
   -4.1327   -8.3849    2.6152 C   0  0  0  0  0  0  0  0  0  0  0  0
   -4.2972   -9.6435    2.8077 C   0  0  0  0  0  0  0  0  0  0  0  0
  1  2  1  0
  1  3  1  0
  3  4  2  3
  4  5  1  0
  5  6  1  0
  6  7  1  0
  6  8  2  0
  3  9  1  0
 10  7  1  1
 10 11  1  0
 10 12  1  0
 12 13  1  0
 12 14  2  0
 11 15  1  0
 11 16  2  0
  4 17  1  0
 15 18  1  0
 18 19  1  0
 19 20  1  0
 20 21  1  0
M  END

$$$$
No_21-/export/home/yangzhenyu/potential_scad_32_flow//YTHDC2/2024-12-06-03-22-00/
     RDKit          3D

 19 19  0  0  1  0  0  0  0  0999 V2000
    1.1787   -8.0297    3.5154 O   0  0  0  0  0  0  0  0  0  0  0  0
    0.9969   -8.9689    3.0048 C   0  0  1  0  0  0  0  0  0  0  0  0
    0.9976   -8.9567    1.6341 C   0  0  2  0  0  0  0  0  0  0  0  0
    1.6062   -9.9071    0.9292 C   0  0  0  0  0  0  0  0  0  0  0  0
    2.1191  -10.9757    1.6503 C   0  0  0  0  0  0  0  0  0  0  0  0
    2.1177  -10.9891    3.0403 C   0  0  1  0  0  0  0  0  0  0  0  0
    1.5441   -9.8905    3.6897 C   0  0  0  0  0  0  0  0  0  0  0  0
    0.5010   -7.8164    1.0436 C   0  0  0  0  0  0  0  0  0  0  0  0
   -0.3627   -7.9721    0.1048 O   0  0  0  0  0  0  0  0  0  0  0  0
    0.5009   -6.5330    1.4237 O   0  0  0  0  0  0  0  0  0  0  0  0
    1.6448  -10.1369    5.0164 O   0  0  0  0  0  0  0  0  0  0  0  0
    2.6123  -12.1897    3.5650 O   0  0  0  0  0  0  0  0  0  0  0  0
    0.2789   -5.3553    1.0608 C   0  0  0  0  0  0  0  0  0  0  0  0
   -1.0813   -5.1049    0.9292 C   0  0  0  0  0  0  0  0  0  0  0  0
   -1.9170   -5.2367    1.8554 C   0  0  0  0  0  0  0  0  0  0  0  0
   -2.5336   -6.2296    2.1708 C   0  0  0  0  0  0  0  0  0  0  0  0
   -2.4496   -6.7703    3.6184 C   0  0  0  0  0  0  0  0  0  0  0  0
   -2.1175   -7.9364    3.9616 O   0  0  0  0  0  0  0  0  0  0  0  0
   -3.4090   -6.2417    4.4667 O   0  0  0  0  0  0  0  0  0  0  0  0
  2  1  1  1
  2  3  1  0
  4  5  1  0
  2  7  1  0
  6  7  1  0
  3  8  1  1
  8  9  2  0
  8 10  1  0
  7 11  2  0
  6 12  1  6
 10 13  1  0
 13 14  1  0
 14 15  1  0
 15 16  1  0
 16 17  1  0
 17 18  2  0
 17 19  1  0
  3  4  1  0
  5  6  1  0
M  END

$$$$
No_22-/export/home/yangzhenyu/potential_scad_32_flow//YTHDC2/2024-12-06-03-22-00/
     RDKit          3D

 19 19  0  0  0  0  0  0  0  0999 V2000
    1.1787   -8.0297    3.5154 C   0  0  0  0  0  0  0  0  0  0  0  0
    1.1048   -9.2215    3.2892 C   0  0  0  0  0  0  0  0  0  0  0  0
    1.3627  -10.1721    4.3044 C   0  0  0  0  0  0  0  0  0  0  0  0
    2.3720  -10.8948    4.2468 C   0  0  0  0  0  0  0  0  0  0  0  0
    2.9262  -11.1926    3.1170 C   0  0  0  0  0  0  0  0  0  0  0  0
    2.5807  -10.4593    1.9550 C   0  0  0  0  0  0  0  0  0  0  0  0
    1.7065   -9.4353    2.0233 C   0  0  0  0  0  0  0  0  0  0  0  0
    1.3623   -8.6610    1.0017 C   0  0  0  0  0  0  0  0  0  0  0  0
    1.8834   -8.8592   -0.1868 S   0  0  0  0  0  0  0  0  0  0  0  0
    3.1439   -9.5898   -0.2830 O   0  0  0  0  0  0  0  0  0  0  0  0
    2.1984   -7.5486   -1.0429 N   0  0  0  0  0  0  0  0  0  0  0  0
    0.9293   -9.6996   -1.0608 O   0  0  0  0  0  0  0  0  0  0  0  0
   -0.0904   -7.2848    3.5046 O   0  0  0  0  0  0  0  0  0  0  0  0
    2.1365   -6.9776    3.6977 O   0  0  0  0  0  0  0  0  0  0  0  0
    0.1212   -8.1489    0.9473 O   0  0  0  0  0  0  0  0  0  0  0  0
    2.5941  -11.8371    5.3292 O   0  0  0  0  0  0  0  0  0  0  0  0
    2.9711   -7.6779   -2.0859 C   0  0  0  0  0  0  0  0  0  0  0  0
    4.3832   -8.0322   -1.6050 C   0  0  0  0  0  0  0  0  0  0  0  0
    5.0025   -6.7358   -1.3782 O   0  0  0  0  0  0  0  0  0  0  0  0
  1  2  1  0
  7  8  1  0
  8  9  1  0
  9 10  2  0
  9 11  1  0
  9 12  2  0
  1 13  2  0
  1 14  1  0
  8 15  2  0
  4 16  1  0
 11 17  1  0
 17 18  1  0
 18 19  1  0
  2  3  2  0
  3  4  1  0
  4  5  2  0
  5  6  1  0
  6  7  2  0
  2  7  1  0
M  END

$$$$
No_23-/export/home/yangzhenyu/potential_scad_32_flow//YTHDC2/2024-12-06-03-22-00/
     RDKit          3D

 19 19  0  0  1  0  0  0  0  0999 V2000
    1.1787   -8.0297    3.5154 C   0  0  0  0  0  0  0  0  0  0  0  0
    1.0491   -6.8434    2.9820 C   0  0  0  0  0  0  0  0  0  0  0  0
    1.9985   -8.9840    2.8958 C   0  0  2  0  0  0  0  0  0  0  0  0
    1.7297   -9.2108    1.6335 C   0  0  0  0  0  0  0  0  0  0  0  0
    1.7343   -8.0566    0.8408 C   0  0  2  0  0  0  0  0  0  0  0  0
    1.0269   -6.8892    1.4456 C   0  0  0  0  0  0  0  0  0  0  0  0
    1.7596   -8.0979   -0.4723 O   0  0  0  0  0  0  0  0  0  0  0  0
    2.3140  -10.1959    3.6262 C   0  0  0  0  0  0  0  0  0  0  0  0
    1.7799  -11.0907    3.9776 O   0  0  0  0  0  0  0  0  0  0  0  0
    3.7440  -10.2760    4.0593 O   0  0  0  0  0  0  0  0  0  0  0  0
    2.3907   -9.1663   -1.0539 C   0  0  0  0  0  0  0  0  0  0  0  0
    0.7989   -5.8047    0.8293 O   0  0  0  0  0  0  0  0  0  0  0  0
    0.9020   -5.7059    3.4955 O   0  0  0  0  0  0  0  0  0  0  0  0
    1.7699  -10.1897   -1.0998 F   0  0  0  0  0  0  0  0  0  0  0  0
    3.5098   -8.9396   -1.4608 F   0  0  0  0  0  0  0  0  0  0  0  0
    3.9846  -11.0473    5.1913 C   0  0  0  0  0  0  0  0  0  0  0  0
    3.2725  -10.3631    6.2180 C   0  0  0  0  0  0  0  0  0  0  0  0
    4.1579   -9.5499    6.8864 O   0  0  0  0  0  0  0  0  0  0  0  0
    2.2877  -10.8754    6.5994 O   0  0  0  0  0  0  0  0  0  0  0  0
  1  2  1  0
  1  3  1  0
  3  4  1  0
  4  5  1  0
  2  6  1  0
  5  6  1  0
  5  7  1  6
  3  8  1  1
  8  9  2  0
  8 10  1  0
  7 11  1  0
  6 12  2  0
  2 13  2  0
 11 14  1  0
 11 15  1  0
 10 16  1  0
 16 17  1  0
 17 18  1  0
 17 19  2  0
M  END

$$$$
No_24-/export/home/yangzhenyu/potential_scad_32_flow//YTHDC2/2024-12-06-03-22-00/
     RDKit          3D

 17 17  0  0  1  0  0  0  0  0999 V2000
    1.1787   -8.0297    3.5154 C   0  0  0  0  0  0  0  0  0  0  0  0
    1.0491   -6.8434    2.9820 C   0  0  1  0  0  0  0  0  0  0  0  0
    1.9985   -8.9840    2.8958 C   0  0  2  0  0  0  0  0  0  0  0  0
    1.7297   -9.2108    1.6335 C   0  0  0  0  0  0  0  0  0  0  0  0
    1.7343   -8.0566    0.8408 C   0  0  2  0  0  0  0  0  0  0  0  0
    1.0269   -6.8892    1.4456 C   0  0  0  0  0  0  0  0  0  0  0  0
    1.7596   -8.0979   -0.4723 C   0  0  0  0  0  0  0  0  0  0  0  0
    0.8317   -7.8698   -1.2086 C   0  0  0  0  0  0  0  0  0  0  0  0
    3.0447   -8.2151   -1.1164 O   0  0  0  0  0  0  0  0  0  0  0  0
    1.9646  -10.3755    3.5588 C   0  0  0  0  0  0  0  0  0  0  0  0
    2.9273  -10.5484    4.4418 O   0  0  0  0  0  0  0  0  0  0  0  0
    1.6628  -11.4404    2.8619 O   0  0  0  0  0  0  0  0  0  0  0  0
    0.8791   -5.6521    3.5401 C   0  0  0  0  0  0  0  0  0  0  0  0
   -0.0241   -4.7905    3.2512 O   0  0  0  0  0  0  0  0  0  0  0  0
    1.5759   -5.3320    4.5843 O   0  0  0  0  0  0  0  0  0  0  0  0
    1.5373  -10.2908    0.9664 O   0  0  0  0  0  0  0  0  0  0  0  0
   -0.0039   -8.7309   -1.6567 C   0  0  0  0  0  0  0  0  0  0  0  0
  1  2  1  0
  1  3  1  0
  3  4  1  0
  4  5  1  0
  2  6  1  0
  5  6  1  6
  5  7  1  0
  7  8  2  3
  7  9  1  0
  3 10  1  1
 10 11  1  0
 10 12  2  0
  2 13  1  1
 13 14  2  0
 13 15  1  0
  4 16  2  0
  8 17  1  0
M  END

$$$$
No_25-/export/home/yangzhenyu/potential_scad_32_flow//YTHDC2/2024-12-06-03-22-00/
     RDKit          3D

 20 20  0  0  1  0  0  0  0  0999 V2000
    1.1787   -8.0297    3.5154 C   0  0  0  0  0  0  0  0  0  0  0  0
    1.1048   -9.2215    3.2892 C   0  0  0  0  0  0  0  0  0  0  0  0
    1.2339   -9.7611    2.0189 C   0  0  0  0  0  0  0  0  0  0  0  0
    1.3583   -9.0036    0.9764 C   0  0  0  0  0  0  0  0  0  0  0  0
    1.5996   -7.6362    1.1311 C   0  0  0  0  0  0  0  0  0  0  0  0
    1.4830   -7.0928    2.3626 C   0  0  0  0  0  0  0  0  0  0  0  0
    1.1008  -11.2372    1.8542 C   0  0  2  0  0  0  0  0  0  0  0  0
    0.4812  -11.6084    0.6459 O   0  0  0  0  0  0  0  0  0  0  0  0
    0.6996  -11.9822    2.8498 C   0  0  0  0  0  0  0  0  0  0  0  0
   -0.4634  -12.3228    2.9753 O   0  0  0  0  0  0  0  0  0  0  0  0
    1.6462  -12.7810    3.5023 O   0  0  0  0  0  0  0  0  0  0  0  0
    1.5648   -5.4556    2.7188 Br  0  0  0  0  0  0  0  0  0  0  0  0
    1.6143   -9.4711   -0.3242 O   0  0  0  0  0  0  0  0  0  0  0  0
    0.0965  -12.8075    0.5069 C   0  0  1  0  0  0  0  0  0  0  0  0
   -1.0649  -12.9046   -0.3236 C   0  0  0  0  0  0  0  0  0  0  0  0
   -1.6249  -11.9540   -0.8455 O   0  0  0  0  0  0  0  0  0  0  0  0
   -1.7023  -14.0239   -0.4578 O   0  0  0  0  0  0  0  0  0  0  0  0
    1.1684  -13.6605   -0.0863 C   0  0  0  0  0  0  0  0  0  0  0  0
    2.3313  -13.7527    0.7376 C   0  0  0  0  0  0  0  0  0  0  0  0
    2.5761  -14.8642    1.5277 C   0  0  0  0  0  0  0  0  0  0  0  0
  3  7  1  0
  7  8  1  6
  7  9  1  0
  9 10  2  0
  9 11  1  0
  6 12  1  0
  4 13  1  0
  8 14  1  0
 14 15  1  0
 15 16  2  0
 15 17  1  0
 14 18  1  6
 18 19  1  0
 19 20  1  0
  1  2  2  0
  2  3  1  0
  3  4  2  0
  4  5  1  0
  5  6  2  0
  1  6  1  0
M  END

$$$$
No_26-/export/home/yangzhenyu/potential_scad_32_flow//YTHDC2/2024-12-06-03-22-00/
     RDKit          3D

 18 18  0  0  1  0  0  0  0  0999 V2000
    1.1787   -8.0297    3.5154 C   0  0  0  0  0  0  0  0  0  0  0  0
    1.0491   -6.8434    2.9820 C   0  0  0  0  0  0  0  0  0  0  0  0
    1.9985   -8.9840    2.8958 C   0  0  0  0  0  0  0  0  0  0  0  0
    1.1815  -10.1889    2.5497 C   0  0  1  0  0  0  0  0  0  0  0  0
    0.3496  -10.1352    1.6536 C   0  0  0  0  0  0  0  0  0  0  0  0
   -0.8355  -10.5689    1.8958 C   0  0  0  0  0  0  0  0  0  0  0  0
   -1.8104  -10.4599    0.9058 C   0  0  0  0  0  0  0  0  0  0  0  0
   -1.4006  -10.0584   -0.3737 C   0  0  0  0  0  0  0  0  0  0  0  0
   -0.1844   -9.5829   -0.6354 C   0  0  0  0  0  0  0  0  0  0  0  0
    0.1937   -9.0138   -1.8928 C   0  0  0  0  0  0  0  0  0  0  0  0
    0.7673   -9.6334    0.3592 C   0  0  0  0  0  0  0  0  0  0  0  0
    2.0994   -9.4452    0.1095 O   0  0  0  0  0  0  0  0  0  0  0  0
    0.9060   -6.3646    2.0266 O   0  0  0  0  0  0  0  0  0  0  0  0
    1.7592   -5.7725    3.7812 O   0  0  0  0  0  0  0  0  0  0  0  0
   -0.8112   -9.1362   -2.8159 O   0  0  0  0  0  0  0  0  0  0  0  0
    1.2419   -8.7592   -2.2558 O   0  0  0  0  0  0  0  0  0  0  0  0
    1.7282  -11.4447    3.0791 C   0  0  0  0  0  0  0  0  0  0  0  0
    1.8787  -12.5057    2.1928 O   0  0  0  0  0  0  0  0  0  0  0  0
  1  2  1  0
  1  3  1  0
  4  3  1  6
  4  5  1  0
  6  7  1  0
  8  9  1  0
  9 10  1  0
  5 11  1  0
  9 11  1  0
 11 12  2  0
  2 13  2  0
  2 14  1  0
 10 15  2  0
 10 16  1  0
  4 17  1  0
 17 18  1  0
  5  6  1  0
  7  8  1  0
M  END

$$$$
No_27-/export/home/yangzhenyu/potential_scad_32_flow//YTHDC2/2024-12-06-03-22-00/
     RDKit          3D

 18 18  0  0  1  0  0  0  0  0999 V2000
    1.1787   -8.0297    3.5154 C   0  0  0  0  0  0  0  0  0  0  0  0
    1.0491   -6.8434    2.9820 C   0  0  0  0  0  0  0  0  0  0  0  0
    0.9905   -9.0774    2.6527 C   0  0  0  0  0  0  0  0  0  0  0  0
    1.1655  -10.4663    3.1286 C   0  0  2  0  0  0  0  0  0  0  0  0
    1.7409  -10.6480    4.4599 C   0  0  0  0  0  0  0  0  0  0  0  0
    1.6536   -5.6667    3.5105 C   0  0  0  0  0  0  0  0  0  0  0  0
    1.0829  -11.4712    2.2542 C   0  0  0  0  0  0  0  0  0  0  0  0
    0.9891  -11.3970    0.9869 C   0  0  0  0  0  0  0  0  0  0  0  0
    2.2540  -10.8534    0.4165 O   0  0  0  0  0  0  0  0  0  0  0  0
    0.3460  -12.1272    0.1741 O   0  0  0  0  0  0  0  0  0  0  0  0
    1.3735   -4.5186    2.8458 C   0  0  0  0  0  0  0  0  0  0  0  0
    0.4982   -4.4402    1.8466 C   0  0  2  0  0  0  0  0  0  0  0  0
    0.0330   -5.5503    1.2812 C   0  0  0  0  0  0  0  0  0  0  0  0
    0.2363   -6.7873    1.8378 C   0  0  0  0  0  0  0  0  0  0  0  0
   -0.1989   -7.7864    1.2091 O   0  0  0  0  0  0  0  0  0  0  0  0
    0.2997   -3.1492    1.1665 Cl  0  0  0  0  0  0  0  0  0  0  0  0
    2.1388  -12.0203    4.6702 O   0  0  0  0  0  0  0  0  0  0  0  0
    2.1458   -9.9451    5.3433 O   0  0  0  0  0  0  0  0  0  0  0  0
  1  2  1  0
  1  3  2  3
  3  4  1  0
  4  5  1  0
  2  6  1  0
  4  7  1  6
  7  8  1  0
  8  9  2  0
  8 10  1  0
 11 12  1  0
  2 14  1  0
 13 14  1  0
 14 15  2  0
 12 16  1  6
  5 17  1  0
  5 18  2  0
  6 11  1  0
 12 13  1  0
M  END

$$$$
No_28-/export/home/yangzhenyu/potential_scad_32_flow//YTHDC2/2024-12-06-03-22-00/
     RDKit          3D

 19 19  0  0  0  0  0  0  0  0999 V2000
    1.1787   -8.0297    3.5154 C   0  0  0  0  0  0  0  0  0  0  0  0
    1.0491   -6.8434    2.9820 C   0  0  0  0  0  0  0  0  0  0  0  0
    0.9905   -9.0774    2.6527 C   0  0  0  0  0  0  0  0  0  0  0  0
    0.7897   -8.9519    1.3691 C   0  0  0  0  0  0  0  0  0  0  0  0
    0.7018   -7.7198    0.7892 C   0  0  0  0  0  0  0  0  0  0  0  0
    0.8918   -6.5957    1.6117 C   0  0  0  0  0  0  0  0  0  0  0  0
    1.0711  -10.4814    3.2282 C   0  0  0  0  0  0  0  0  0  0  0  0
    1.1227  -11.5770    2.4616 C   0  0  0  0  0  0  0  0  0  0  0  0
    1.1500  -12.9052    3.0782 C   0  0  0  0  0  0  0  0  0  0  0  0
    0.6702  -13.9897    2.4998 C   0  0  0  0  0  0  0  0  0  0  0  0
    1.0009  -15.3315    3.2443 N   0  0  0  0  0  0  0  0  0  0  0  0
    0.8112  -16.4140    2.9138 C   0  0  0  0  0  0  0  0  0  0  0  0
    0.8406   -5.2748    1.1548 P   0  0  0  0  0  0  0  0  0  0  0  0
    1.9763   -4.6148    1.3577 O   0  0  0  0  0  0  0  0  0  0  0  0
   -0.1883   -4.3390    2.0236 O   0  0  0  0  0  0  0  0  0  0  0  0
    0.2709   -4.9904   -0.1410 O   0  0  0  0  0  0  0  0  0  0  0  0
    1.1786  -17.4890    3.6557 C   0  0  0  0  0  0  0  0  0  0  0  0
    0.0548  -14.1413    1.4318 O   0  0  0  0  0  0  0  0  0  0  0  0
    2.3143  -18.0310    3.5124 C   0  0  0  0  0  0  0  0  0  0  0  0
  3  7  1  0
  7  8  2  3
  8  9  1  0
  9 10  1  0
 10 11  1  0
 11 12  1  0
  6 13  1  0
 13 14  1  0
 13 15  2  0
 13 16  1  0
 12 17  1  0
 10 18  2  0
 17 19  1  0
  1  2  2  0
  2  6  1  0
  5  6  2  0
  4  5  1  0
  3  4  2  0
  1  3  1  0
M  END

$$$$
No_29-/export/home/yangzhenyu/potential_scad_32_flow//YTHDC2/2024-12-06-03-22-00/
     RDKit          3D

 19 19  0  0  1  0  0  0  0  0999 V2000
    1.1787   -8.0297    3.5154 O   0  0  0  0  0  0  0  0  0  0  0  0
    0.9969   -8.9689    3.0048 C   0  0  0  0  0  0  0  0  0  0  0  0
    0.8148   -8.9936    1.6651 C   0  0  2  0  0  0  0  0  0  0  0  0
    1.1770  -10.1706    3.6799 C   0  0  0  0  0  0  0  0  0  0  0  0
    1.5667  -11.3526    2.9604 C   0  0  2  0  0  0  0  0  0  0  0  0
    1.5271  -11.3939    1.6473 C   0  0  0  0  0  0  0  0  0  0  0  0
    1.1960  -10.2241    0.9059 C   0  0  0  0  0  0  0  0  0  0  0  0
    1.7929  -12.5125    0.8748 O   0  0  0  0  0  0  0  0  0  0  0  0
    0.5563   -7.8621    0.9102 C   0  0  1  0  0  0  0  0  0  0  0  0
    1.2215   -6.8234    1.0132 N   0  0  0  0  0  0  0  0  0  0  0  0
    1.8481  -12.6165    3.6187 O   0  0  0  0  0  0  0  0  0  0  0  0
   -0.0174   -8.0527   -0.3991 C   0  0  0  0  0  0  0  0  0  0  0  0
    0.5898   -8.3114   -1.5012 O   0  0  0  0  0  0  0  0  0  0  0  0
   -1.3784   -7.9912   -0.5390 N   0  0  0  0  0  0  0  0  0  0  0  0
   -2.0136   -8.1296   -1.7507 C   0  0  0  0  0  0  0  0  0  0  0  0
   -2.2224   -6.7819   -2.3017 C   0  0  0  0  0  0  0  0  0  0  0  0
   -3.0820   -6.6251   -2.9707 C   0  0  0  0  0  0  0  0  0  0  0  0
   -3.9085   -7.6644   -3.4594 C   0  0  0  0  0  0  0  0  0  0  0  0
   -3.7670   -8.8872   -2.9236 C   0  0  0  0  0  0  0  0  0  0  0  0
  1  2  2  0
  2  3  1  0
  2  4  1  0
  5  6  1  0
  6  7  1  0
  6  8  2  0
  3  9  1  0
  9 10  1  6
  5 11  1  1
  9 12  1  0
 12 13  2  0
 12 14  1  0
 14 15  1  0
 15 16  1  0
 16 17  2  3
 17 18  1  0
 18 19  2  0
  4  5  1  0
  3  7  1  6
M  END

$$$$
No_30-/export/home/yangzhenyu/potential_scad_32_flow//YTHDC2/2024-12-06-03-22-00/
     RDKit          3D

 18 18  0  0  0  0  0  0  0  0999 V2000
    1.1787   -8.0297    3.5154 C   0  0  0  0  0  0  0  0  0  0  0  0
    1.1048   -9.2215    3.2892 C   0  0  0  0  0  0  0  0  0  0  0  0
    1.3627  -10.1721    4.3044 C   0  0  0  0  0  0  0  0  0  0  0  0
    1.7354  -11.4730    3.9023 C   0  0  0  0  0  0  0  0  0  0  0  0
    1.8080  -11.8127    2.7216 C   0  0  0  0  0  0  0  0  0  0  0  0
    1.5854  -11.0021    1.7249 C   0  0  0  0  0  0  0  0  0  0  0  0
    1.3573   -9.7389    1.9287 C   0  0  0  0  0  0  0  0  0  0  0  0
    1.2865   -8.8078    0.9161 C   0  0  0  0  0  0  0  0  0  0  0  0
    0.9210   -7.5140    1.1674 O   0  0  0  0  0  0  0  0  0  0  0  0
    1.4288   -9.1781   -0.4279 I   0  0  0  0  0  0  0  0  0  0  0  0
    2.1349  -13.4467    2.3032 C   0  0  0  0  0  0  0  0  0  0  0  0
    2.0003  -14.3183    3.1717 C   0  0  0  0  0  0  0  0  0  0  0  0
    1.3808  -15.5696    2.6056 C   0  0  0  0  0  0  0  0  0  0  0  0
    0.4828  -16.0669    3.0578 O   0  0  0  0  0  0  0  0  0  0  0  0
    2.2810  -16.3331    1.9574 O   0  0  0  0  0  0  0  0  0  0  0  0
    0.1271   -7.2233    3.7351 O   0  0  0  0  0  0  0  0  0  0  0  0
    2.3102   -7.1336    3.7502 O   0  0  0  0  0  0  0  0  0  0  0  0
    0.2106  -17.2772    3.5655 C   0  0  0  0  0  0  0  0  0  0  0  0
  1  2  1  0
  7  8  1  0
  8  9  2  0
  8 10  1  0
  5 11  1  0
 11 12  1  0
 12 13  1  0
 13 14  1  0
 13 15  2  0
  1 16  1  0
  1 17  2  0
 14 18  1  0
  2  3  2  0
  3  4  1  0
  4  5  2  0
  5  6  1  0
  6  7  2  0
  2  7  1  0
M  END

$$$$
No_31-/export/home/yangzhenyu/potential_scad_32_flow//YTHDC2/2024-12-06-03-22-00/
     RDKit          3D

 18 18  0  0  1  0  0  0  0  0999 V2000
    1.1787   -8.0297    3.5154 N   0  0  0  0  0  0  0  0  0  0  0  0
    1.0818   -9.0751    3.2053 C   0  0  0  0  0  0  0  0  0  0  0  0
    0.6776   -9.2823    1.8784 C   0  0  0  0  0  0  0  0  0  0  0  0
    0.6499   -8.2458    1.0911 C   0  0  0  0  0  0  0  0  0  0  0  0
    1.0003   -7.0553    1.3874 C   0  0  0  0  0  0  0  0  0  0  0  0
    1.4198   -6.8540    2.6862 C   0  0  0  0  0  0  0  0  0  0  0  0
    1.0745  -10.2539    4.0513 C   0  0  2  0  0  0  0  0  0  0  0  0
    2.1940  -10.9738    4.1299 C   0  0  0  0  0  0  0  0  0  0  0  0
    0.4063   -8.4556   -0.3792 C   0  0  0  0  0  0  0  0  0  0  0  0
   -0.7217   -8.8268   -0.6936 O   0  0  0  0  0  0  0  0  0  0  0  0
    1.2975   -8.6590   -1.2385 O   0  0  0  0  0  0  0  0  0  0  0  0
    0.0014  -10.6624    4.6730 C   0  0  0  0  0  0  0  0  0  0  0  0
    3.1683  -10.6321    5.1356 O   0  0  0  0  0  0  0  0  0  0  0  0
   -1.1522  -10.0361    4.5290 O   0  0  0  0  0  0  0  0  0  0  0  0
    2.5288  -11.9462    3.3800 O   0  0  0  0  0  0  0  0  0  0  0  0
    1.6277   -5.5930    3.3164 C   0  0  0  0  0  0  0  0  0  0  0  0
    1.8292   -5.3969    4.5168 O   0  0  0  0  0  0  0  0  0  0  0  0
    1.7538   -4.6228    2.4879 N   0  0  0  0  0  0  0  0  0  0  0  0
  2  7  1  0
  7  8  1  0
  4  9  1  0
  9 10  2  0
  9 11  1  0
  7 12  1  6
  8 13  1  0
 12 14  1  0
  8 15  2  0
  6 16  1  0
 16 17  2  0
 16 18  1  0
  1  2  2  0
  2  3  1  0
  3  4  2  0
  4  5  1  0
  5  6  2  0
  1  6  1  0
M  END

$$$$
No_32-/export/home/yangzhenyu/potential_scad_32_flow//YTHDC2/2024-12-06-03-22-00/
     RDKit          3D

 19 19  0  0  1  0  0  0  0  0999 V2000
    1.1787   -8.0297    3.5154 C   0  0  0  0  0  0  0  0  0  0  0  0
    1.1048   -9.2215    3.2892 C   0  0  0  0  0  0  0  0  0  0  0  0
    1.3627  -10.1721    4.3044 C   0  0  0  0  0  0  0  0  0  0  0  0
    1.7354  -11.4730    3.9023 C   0  0  0  0  0  0  0  0  0  0  0  0
    1.8080  -11.8127    2.7216 C   0  0  0  0  0  0  0  0  0  0  0  0
    1.5854  -11.0021    1.7249 C   0  0  0  0  0  0  0  0  0  0  0  0
    1.3573   -9.7389    1.9287 C   0  0  0  0  0  0  0  0  0  0  0  0
    1.1102   -8.8712    0.9017 C   0  0  0  0  0  0  0  0  0  0  0  0
    0.5299   -7.6926    1.0325 O   0  0  0  0  0  0  0  0  0  0  0  0
    1.8299   -9.0364   -0.3383 O   0  0  0  0  0  0  0  0  0  0  0  0
    2.0900  -13.2025    2.3114 O   0  0  0  0  0  0  0  0  0  0  0  0
    2.4069   -7.3272    3.4710 O   0  0  0  0  0  0  0  0  0  0  0  0
    0.1729   -7.3278    3.8654 O   0  0  0  0  0  0  0  0  0  0  0  0
    1.2458  -14.1845    2.0146 C   0  0  1  0  0  0  0  0  0  0  0  0
    1.7428  -15.3140    2.0190 C   0  0  0  0  0  0  0  0  0  0  0  0
    0.9646  -16.4116    1.7200 O   0  0  0  0  0  0  0  0  0  0  0  0
    2.9872  -15.4975    1.6490 O   0  0  0  0  0  0  0  0  0  0  0  0
   -0.0188  -13.8558    1.8976 C   0  0  0  0  0  0  0  0  0  0  0  0
   -0.8326  -13.9545    0.7360 O   0  0  0  0  0  0  0  0  0  0  0  0
  1  2  1  0
  7  8  1  0
  8  9  1  0
  8 10  2  0
  5 11  1  0
  1 12  2  0
  1 13  1  0
 14 11  1  1
 14 15  1  0
 15 16  2  0
 15 17  1  0
 14 18  1  0
 18 19  2  0
  2  3  2  0
  3  4  1  0
  4  5  2  0
  5  6  1  0
  6  7  2  0
  2  7  1  0
M  END

$$$$
No_33-/export/home/yangzhenyu/potential_scad_32_flow//YTHDC2/2024-12-06-03-22-00/
     RDKit          3D

 20 19  0  0  1  0  0  0  0  0999 V2000
    1.1787   -8.0297    3.5154 C   0  0  0  0  0  0  0  0  0  0  0  0
    1.0491   -6.8434    2.9820 C   0  0  0  0  0  0  0  0  0  0  0  0
    1.9985   -8.9840    2.8958 C   0  0  0  0  0  0  0  0  0  0  0  0
    1.9135  -10.3404    3.6266 C   0  0  2  0  0  0  0  0  0  0  0  0
    2.2847  -10.5440    4.7936 C   0  0  0  0  0  0  0  0  0  0  0  0
    0.3304   -6.7696    1.8077 C   0  0  0  0  0  0  0  0  0  0  0  0
   -0.0362   -5.5612    1.4430 O   0  0  0  0  0  0  0  0  0  0  0  0
    0.1430   -7.7441    1.0604 O   0  0  0  0  0  0  0  0  0  0  0  0
    1.6110  -11.4011    2.7524 C   0  0  0  0  0  0  0  0  0  0  0  0
    1.7518  -11.2381    1.4039 F   0  0  0  0  0  0  0  0  0  0  0  0
    1.4116  -12.5514    3.1344 O   0  0  0  0  0  0  0  0  0  0  0  0
    3.8157  -10.5357    5.0671 Cl  0  0  0  0  0  0  0  0  0  0  0  0
    0.6129   -7.8168   -0.3842 C   0  0  0  0  0  0  0  0  0  0  0  0
   -0.3821   -8.2166   -1.1160 C   0  0  0  0  0  0  0  0  0  0  0  0
   -1.4151   -8.7989   -0.5680 O   0  0  0  0  0  0  0  0  0  0  0  0
   -0.2189   -8.3871   -2.3162 O   0  0  0  0  0  0  0  0  0  0  0  0
   -2.3800   -9.6448   -1.1692 C   0  0  0  0  0  0  0  0  0  0  0  0
   -3.1199   -9.0448   -1.7899 C   0  0  0  0  0  0  0  0  0  0  0  0
   -3.7524   -7.9887   -1.2042 C   0  0  0  0  0  0  0  0  0  0  0  0
   -4.4440   -8.2121   -0.0744 C   0  0  0  0  0  0  0  0  0  0  0  0
  1  2  1  0
  1  3  1  0
  4  3  1  6
  4  5  1  0
  2  6  1  0
  6  7  2  0
  6  8  1  0
  4  9  1  0
  9 10  1  0
  9 11  2  0
  5 12  1  0
  8 13  1  0
 13 14  1  0
 14 15  1  0
 14 16  2  0
 15 17  1  0
 17 18  1  0
 18 19  1  0
 19 20  1  0
M  END

$$$$
No_34-/export/home/yangzhenyu/potential_scad_32_flow//YTHDC2/2024-12-06-03-22-00/
     RDKit          3D

 19 20  0  0  1  0  0  0  0  0999 V2000
    1.1787   -8.0297    3.5154 C   0  0  0  0  0  0  0  0  0  0  0  0
    1.0491   -6.8434    2.9820 C   0  0  0  0  0  0  0  0  0  0  0  0
    0.9905   -9.0774    2.6527 C   0  0  0  0  0  0  0  0  0  0  0  0
    1.1655  -10.4663    3.1286 C   0  0  0  0  0  0  0  0  0  0  0  0
    1.2197  -11.4898    2.5831 C   0  0  0  0  0  0  0  0  0  0  0  0
    1.0589  -11.4458    1.1293 C   0  0  0  0  0  0  0  0  0  0  0  0
    0.9638  -10.3069    0.4651 C   0  0  0  0  0  0  0  0  0  0  0  0
    0.9191   -9.0789    1.1942 C   0  0  0  0  0  0  0  0  0  0  0  0
    0.9198   -7.8339    0.6158 C   0  0  0  0  0  0  0  0  0  0  0  0
    1.0184   -6.6904    1.4953 C   0  0  0  0  0  0  0  0  0  0  0  0
    1.3445  -12.8197    3.0746 C   0  0  1  0  0  0  0  0  0  0  0  0
    0.2302  -13.7310    2.9230 I   0  0  0  0  0  0  0  0  0  0  0  0
    1.3845   -5.5878    3.6186 C   0  0  0  0  0  0  0  0  0  0  0  0
    2.1653   -5.6058    4.6743 O   0  0  0  0  0  0  0  0  0  0  0  0
    0.8611   -4.4150    3.2473 O   0  0  0  0  0  0  0  0  0  0  0  0
    2.7250  -13.3870    2.7317 C   0  0  0  0  0  0  0  0  0  0  0  0
    2.6603  -14.6675    2.0341 N   0  0  0  0  0  0  0  0  0  0  0  0
    2.7085  -15.6877    2.2325 N   0  0  0  0  0  0  0  0  0  0  0  0
    1.9850  -16.4880    2.6340 O   0  0  0  0  0  0  0  0  0  0  0  0
  5 11  1  0
 11 12  1  6
  2 13  1  0
 13 14  2  0
 13 15  1  0
 11 16  1  0
 16 17  1  0
 17 18  1  0
 18 19  2  0
  1  2  2  0
  2 10  1  0
  9 10  2  0
  8  9  1  0
  1  3  1  0
  3  4  2  0
  4  5  1  0
  5  6  2  0
  6  7  1  0
  7  8  2  0
  3  8  1  0
M  END

$$$$
No_35-/export/home/yangzhenyu/potential_scad_32_flow//YTHDC2/2024-12-06-03-22-00/
     RDKit          3D

 20 21  0  0  0  0  0  0  0  0999 V2000
    1.1787   -8.0297    3.5154 I   0  0  0  0  0  0  0  0  0  0  0  0
    0.4528   -9.3028    2.7351 C   0  0  0  0  0  0  0  0  0  0  0  0
    1.1907  -10.6341    3.0061 C   0  0  0  0  0  0  0  0  0  0  0  0
    1.1935  -11.6015    2.1417 C   0  0  0  0  0  0  0  0  0  0  0  0
    0.5308  -11.5355    0.9362 C   0  0  0  0  0  0  0  0  0  0  0  0
   -0.0161  -10.4389    0.5383 C   0  0  0  0  0  0  0  0  0  0  0  0
   -0.0136   -9.2913    1.3581 C   0  0  0  0  0  0  0  0  0  0  0  0
   -0.7126   -8.2103    0.8685 C   0  0  0  0  0  0  0  0  0  0  0  0
   -1.9696   -7.9875    0.7986 N   0  0  0  0  0  0  0  0  0  0  0  0
   -2.5590   -7.0212    0.0549 C   0  0  0  0  0  0  0  0  0  0  0  0
   -3.4581   -6.5698    0.0464 C   0  0  0  0  0  0  0  0  0  0  0  0
   -4.4556   -7.2287    0.8796 C   0  0  0  0  0  0  0  0  0  0  0  0
   -4.1391   -8.2343    1.6797 C   0  0  0  0  0  0  0  0  0  0  0  0
   -2.8089   -8.6835    1.7092 C   0  0  0  0  0  0  0  0  0  0  0  0
    1.8220  -13.0613    2.6954 C   0  0  0  0  0  0  0  0  0  0  0  0
    2.3690  -13.8532    1.7651 O   0  0  0  0  0  0  0  0  0  0  0  0
    0.1120   -7.6206   -0.0666 O   0  0  0  0  0  0  0  0  0  0  0  0
    1.6862  -13.4822    3.7805 O   0  0  0  0  0  0  0  0  0  0  0  0
   -5.8893   -6.6808    0.9511 P   0  0  0  0  0  0  0  0  0  0  0  0
   -6.3920   -6.6751    2.0700 O   0  0  0  0  0  0  0  0  0  0  0  0
  1  2  1  0
  7  8  1  0
  8  9  1  0
  9 10  1  0
 11 12  1  0
  9 14  1  0
 13 14  1  0
  4 15  1  0
 15 16  1  0
  8 17  2  0
 15 18  2  0
 12 19  1  0
 19 20  1  0
 10 11  1  0
 12 13  1  0
  2  3  2  0
  3  4  1  0
  4  5  2  0
  5  6  1  0
  6  7  2  0
  2  7  1  0
M  END

$$$$
No_36-/export/home/yangzhenyu/potential_scad_32_flow//YTHDC2/2024-12-06-03-22-00/
     RDKit          3D

 18 18  0  0  0  0  0  0  0  0999 V2000
    1.1787   -8.0297    3.5154 C   0  0  0  0  0  0  0  0  0  0  0  0
    1.0491   -6.8434    2.9820 C   0  0  0  0  0  0  0  0  0  0  0  0
    1.9985   -8.9840    2.8958 C   0  0  0  0  0  0  0  0  0  0  0  0
    1.7297   -9.2108    1.6335 C   0  0  0  0  0  0  0  0  0  0  0  0
    1.5234   -8.1478    0.8618 C   0  0  0  0  0  0  0  0  0  0  0  0
    1.0558   -6.9632    1.4912 C   0  0  0  0  0  0  0  0  0  0  0  0
    2.2104  -10.4378    3.7113 C   0  0  0  0  0  0  0  0  0  0  0  0
    1.7780  -11.3843    3.7996 O   0  0  0  0  0  0  0  0  0  0  0  0
    3.2664  -10.1910    4.7142 N   0  0  0  0  0  0  0  0  0  0  0  0
    1.5697   -8.0845   -0.5268 C   0  0  0  0  0  0  0  0  0  0  0  0
    2.4284   -8.8742   -1.1002 O   0  0  0  0  0  0  0  0  0  0  0  0
    0.7129   -7.7927   -1.3004 O   0  0  0  0  0  0  0  0  0  0  0  0
    3.7014  -11.3186    5.4151 C   0  0  0  0  0  0  0  0  0  0  0  0
    5.1159  -10.8575    5.6858 C   0  0  0  0  0  0  0  0  0  0  0  0
    0.8112   -5.7157    3.5510 C   0  0  0  0  0  0  0  0  0  0  0  0
    1.0540   -4.4707    2.9229 O   0  0  0  0  0  0  0  0  0  0  0  0
    0.2383   -5.5596    4.5208 O   0  0  0  0  0  0  0  0  0  0  0  0
    5.7557  -10.7810    4.2814 Cl  0  0  0  0  0  0  0  0  0  0  0  0
  3  7  1  0
  7  8  2  0
  7  9  1  0
  5 10  1  0
 10 11  1  0
 10 12  2  0
  9 13  1  0
 13 14  1  0
  2 15  1  0
 15 16  2  0
 15 17  1  0
 14 18  1  0
  1  2  2  0
  2  6  1  0
  5  6  2  0
  4  5  1  0
  3  4  2  0
  1  3  1  0
M  END

$$$$
No_37-/export/home/yangzhenyu/potential_scad_32_flow//YTHDC2/2024-12-06-03-22-00/
     RDKit          3D

 19 20  0  0  1  0  0  0  0  0999 V2000
    1.1787   -8.0297    3.5154 C   0  0  0  0  0  0  0  0  0  0  0  0
    1.0491   -6.8434    2.9820 C   0  0  0  0  0  0  0  0  0  0  0  0
    0.0950   -8.8404    3.2292 C   0  0  0  0  0  0  0  0  0  0  0  0
   -0.9173   -8.4596    2.5152 C   0  0  0  0  0  0  0  0  0  0  0  0
   -1.0331   -7.2162    2.0653 C   0  0  0  0  0  0  0  0  0  0  0  0
   -0.0105   -6.3168    2.3081 C   0  0  0  0  0  0  0  0  0  0  0  0
    0.0485   -4.9783    1.8782 C   0  0  0  0  0  0  0  0  0  0  0  0
   -0.4744   -4.1559    2.2381 O   0  0  0  0  0  0  0  0  0  0  0  0
    0.9176   -4.7080    0.8087 O   0  0  0  0  0  0  0  0  0  0  0  0
    0.1801  -10.2855    3.6701 C   0  0  2  0  0  0  0  0  0  0  0  0
   -1.0330  -10.9906    3.7805 C   0  0  0  0  0  0  0  0  0  0  0  0
    1.2821  -10.7444    4.5195 C   0  0  0  0  0  0  0  0  0  0  0  0
    1.3826  -12.1254    4.6365 C   0  0  0  0  0  0  0  0  0  0  0  0
   -0.9318  -12.3632    3.9394 C   0  0  0  0  0  0  0  0  0  0  0  0
    0.3712  -12.9096    4.3298 C   0  0  0  0  0  0  0  0  0  0  0  0
    0.5489  -14.2287    4.2626 O   0  0  0  0  0  0  0  0  0  0  0  0
   -2.0107  -13.1411    3.7701 Cl  0  0  0  0  0  0  0  0  0  0  0  0
   -2.2288   -6.7986    1.4063 C   0  0  0  0  0  0  0  0  0  0  0  0
   -2.4110   -6.8632    0.0441 F   0  0  0  0  0  0  0  0  0  0  0  0
  6  7  1  0
  7  8  2  0
  7  9  1  0
 10  3  1  1
 10 12  1  0
 11 14  1  0
 13 15  1  0
 14 15  1  0
 15 16  2  0
 14 17  1  0
  5 18  1  0
 18 19  1  0
 12 13  1  0
 10 11  1  0
  1  2  2  0
  2  6  1  0
  5  6  2  0
  4  5  1  0
  3  4  2  0
  1  3  1  0
M  END

$$$$
No_38-/export/home/yangzhenyu/potential_scad_32_flow//YTHDC2/2024-12-06-03-22-00/
     RDKit          3D

 19 19  0  0  0  0  0  0  0  0999 V2000
    1.1787   -8.0297    3.5154 C   0  0  0  0  0  0  0  0  0  0  0  0
    1.0491   -6.8434    2.9820 C   0  0  0  0  0  0  0  0  0  0  0  0
    0.2462   -8.9560    3.0873 C   0  0  0  0  0  0  0  0  0  0  0  0
    0.3295   -6.5187    1.9069 C   0  0  0  0  0  0  0  0  0  0  0  0
   -0.5260   -8.7862    2.1368 C   0  0  0  0  0  0  0  0  0  0  0  0
   -0.5458   -7.5614    1.5054 C   0  0  0  0  0  0  0  0  0  0  0  0
    0.3663  -10.3301    3.7373 C   0  0  0  0  0  0  0  0  0  0  0  0
   -0.8414  -11.0073    3.8266 O   0  0  0  0  0  0  0  0  0  0  0  0
    1.3638  -10.7568    4.4392 N   0  0  0  0  0  0  0  0  0  0  0  0
    0.3470   -5.0988    1.2531 O   0  0  0  0  0  0  0  0  0  0  0  0
    2.6751  -10.4859    4.1155 C   0  0  0  0  0  0  0  0  0  0  0  0
    3.5621  -10.9229    5.1794 C   0  0  0  0  0  0  0  0  0  0  0  0
    3.2668  -10.5629    6.4949 O   0  0  0  0  0  0  0  0  0  0  0  0
    4.8221  -11.1312    4.9311 O   0  0  0  0  0  0  0  0  0  0  0  0
    1.0933   -4.2521    1.9258 C   0  0  0  0  0  0  0  0  0  0  0  0
   -1.4845   -7.2467    0.4479 C   0  0  0  0  0  0  0  0  0  0  0  0
   -1.2064   -7.7314   -0.6824 C   0  0  0  0  0  0  0  0  0  0  0  0
   -0.1292   -8.6371   -1.0132 C   0  0  0  0  0  0  0  0  0  0  0  0
   -1.8498   -7.5239   -1.9445 C   0  0  0  0  0  0  0  0  0  0  0  0
  3  7  1  0
  7  8  2  0
  7  9  1  0
  4 10  1  0
  9 11  1  0
 11 12  1  0
 12 13  2  0
 12 14  1  0
 10 15  1  0
  6 16  1  0
 16 17  1  0
 17 18  1  0
 17 19  1  0
  1  2  2  0
  2  4  1  0
  4  6  2  0
  5  6  1  0
  3  5  2  0
  1  3  1  0
M  END

$$$$
No_39-/export/home/yangzhenyu/potential_scad_32_flow//YTHDC2/2024-12-06-03-22-00/
     RDKit          3D

 19 20  0  0  0  0  0  0  0  0999 V2000
    1.1787   -8.0297    3.5154 C   0  0  0  0  0  0  0  0  0  0  0  0
    1.1048   -9.2215    3.2892 C   0  0  0  0  0  0  0  0  0  0  0  0
    1.3627  -10.1721    4.3044 C   0  0  0  0  0  0  0  0  0  0  0  0
    1.7354  -11.4730    3.9023 C   0  0  0  0  0  0  0  0  0  0  0  0
    1.8080  -11.8127    2.7216 C   0  0  0  0  0  0  0  0  0  0  0  0
    1.5854  -11.0021    1.7249 C   0  0  0  0  0  0  0  0  0  0  0  0
    1.3573   -9.7389    1.9287 C   0  0  0  0  0  0  0  0  0  0  0  0
    1.1102   -8.8712    0.9017 C   0  0  0  0  0  0  0  0  0  0  0  0
    0.5299   -7.6926    1.0325 O   0  0  0  0  0  0  0  0  0  0  0  0
    1.1841   -9.3630   -0.4581 O   0  0  0  0  0  0  0  0  0  0  0  0
    2.1111  -13.2043    2.3260 C   0  0  0  0  0  0  0  0  0  0  0  0
    2.4381  -13.5919    1.0739 N   0  0  0  0  0  0  0  0  0  0  0  0
    2.2572  -14.2068    3.2324 N   0  0  0  0  0  0  0  0  0  0  0  0
    2.3702  -15.4517    2.6775 C   0  0  0  0  0  0  0  0  0  0  0  0
    2.5209  -15.1148    1.3066 N   0  0  0  0  0  0  0  0  0  0  0  0
    2.5461  -16.6118    3.1989 Cl  0  0  0  0  0  0  0  0  0  0  0  0
    2.5075   -7.3508    3.5386 O   0  0  0  0  0  0  0  0  0  0  0  0
    0.2671   -7.5033    4.2410 O   0  0  0  0  0  0  0  0  0  0  0  0
    1.1901   -8.5788   -1.5564 C   0  0  0  0  0  0  0  0  0  0  0  0
  1  2  1  0
  7  8  1  0
  8  9  2  0
  8 10  1  0
  5 11  1  0
 11 12  2  0
 11 13  1  0
 13 14  2  0
 12 15  1  0
 14 15  1  0
 14 16  1  0
  1 17  1  0
  1 18  2  0
 10 19  1  0
  2  3  2  0
  3  4  1  0
  4  5  2  0
  5  6  1  0
  6  7  2  0
  2  7  1  0
M  END

$$$$
No_40-/export/home/yangzhenyu/potential_scad_32_flow//YTHDC2/2024-12-06-03-22-00/
     RDKit          3D

 17 17  0  0  1  0  0  0  0  0999 V2000
    1.1787   -8.0297    3.5154 C   0  0  0  0  0  0  0  0  0  0  0  0
    1.1048   -9.2215    3.2892 C   0  0  0  0  0  0  0  0  0  0  0  0
    1.3627  -10.1721    4.3044 C   0  0  0  0  0  0  0  0  0  0  0  0
    1.7354  -11.4730    3.9023 C   0  0  0  0  0  0  0  0  0  0  0  0
    1.8080  -11.8127    2.7216 C   0  0  0  0  0  0  0  0  0  0  0  0
    1.5854  -11.0021    1.7249 C   0  0  0  0  0  0  0  0  0  0  0  0
    1.3573   -9.7389    1.9287 C   0  0  0  0  0  0  0  0  0  0  0  0
    1.1102   -8.8712    0.9017 C   0  0  1  0  0  0  0  0  0  0  0  0
    1.5724   -9.1697   -0.3048 O   0  0  0  0  0  0  0  0  0  0  0  0
   -0.1456   -8.3257    0.7732 Cl  0  0  0  0  0  0  0  0  0  0  0  0
    2.1099  -13.2117    2.3417 O   0  0  0  0  0  0  0  0  0  0  0  0
    2.3897   -7.2711    3.2906 O   0  0  0  0  0  0  0  0  0  0  0  0
    1.7334  -14.2958    3.0229 C   0  0  0  0  0  0  0  0  0  0  0  0
    0.2261   -7.3369    3.9445 O   0  0  0  0  0  0  0  0  0  0  0  0
    2.1484  -15.4910    2.3968 C   0  0  0  0  0  0  0  0  0  0  0  0
    1.8192  -16.6982    2.9774 O   0  0  0  0  0  0  0  0  0  0  0  0
    3.0166  -15.5518    1.5303 O   0  0  0  0  0  0  0  0  0  0  0  0
  1  2  1  0
  7  8  1  0
  8  9  1  6
  8 10  1  0
  5 11  1  0
  1 12  2  0
 11 13  1  0
  1 14  1  0
 13 15  1  0
 15 16  1  0
 15 17  2  0
  2  3  2  0
  3  4  1  0
  4  5  2  0
  5  6  1  0
  6  7  2  0
  2  7  1  0
M  END

$$$$
No_41-/export/home/yangzhenyu/potential_scad_32_flow//YTHDC2/2024-12-06-03-22-00/
     RDKit          3D

 19 19  0  0  1  0  0  0  0  0999 V2000
    1.1787   -8.0297    3.5154 O   0  0  0  0  0  0  0  0  0  0  0  0
    0.6747   -7.4019    2.7838 C   0  0  0  0  0  0  0  0  0  0  0  0
    0.7594   -8.0032    1.4295 C   0  0  0  0  0  0  0  0  0  0  0  0
    1.4743   -7.4398    0.6034 O   0  0  0  0  0  0  0  0  0  0  0  0
    0.0856   -9.0611    1.2322 C   0  0  0  0  0  0  0  0  0  0  0  0
   -0.7874   -9.4230    1.7357 C   0  0  0  0  0  0  0  0  0  0  0  0
   -1.5686   -8.5320    2.5606 C   0  0  2  0  0  0  0  0  0  0  0  0
   -1.1461   -8.4286    3.9619 C   0  0  0  0  0  0  0  0  0  0  0  0
   -2.1916   -7.7171    4.7106 N   0  0  0  0  0  0  0  0  0  0  0  0
   -3.2502   -7.8433    4.0797 C   0  0  2  0  0  0  0  0  0  0  0  0
   -2.9257   -8.4528    2.8135 C   0  0  0  0  0  0  0  0  0  0  0  0
    1.1251   -5.9077    2.7651 O   0  0  0  0  0  0  0  0  0  0  0  0
    0.5003   -9.6630   -0.2527 C   0  0  0  0  0  0  0  0  0  0  0  0
    1.6121   -9.2768   -0.7083 O   0  0  0  0  0  0  0  0  0  0  0  0
   -0.2876  -10.4159   -0.8926 O   0  0  0  0  0  0  0  0  0  0  0  0
   -3.9412   -8.6094    1.8857 O   0  0  0  0  0  0  0  0  0  0  0  0
   -4.4262   -7.3772    4.4463 C   0  0  0  0  0  0  0  0  0  0  0  0
   -4.8152   -6.1263    4.1424 C   0  0  0  0  0  0  0  0  0  0  0  0
   -3.9647   -5.1274    4.0296 C   0  0  0  0  0  0  0  0  0  0  0  0
  1  2  1  0
  2  3  1  0
  3  4  1  0
  3  5  1  0
  5  6  2  3
  7  6  1  1
  7  8  1  0
  8  9  2  0
  9 10  1  0
  7 11  1  0
 10 11  1  0
  2 12  2  0
  5 13  1  0
 13 14  2  0
 13 15  1  0
 11 16  2  0
 10 17  1  6
 17 18  1  0
 18 19  1  0
M  END

$$$$
No_42-/export/home/yangzhenyu/potential_scad_32_flow//YTHDC2/2024-12-06-03-22-00/
     RDKit          3D

 18 18  0  0  1  0  0  0  0  0999 V2000
    1.1787   -8.0297    3.5154 C   0  0  0  0  0  0  0  0  0  0  0  0
    1.1048   -9.2215    3.2892 N   0  0  0  0  0  0  0  0  0  0  0  0
    1.5378  -10.1363    4.2323 C   0  0  0  0  0  0  0  0  0  0  0  0
    0.9975   -7.0391    2.5788 C   0  0  0  0  0  0  0  0  0  0  0  0
    0.7137   -7.5395    1.3675 C   0  0  0  0  0  0  0  0  0  0  0  0
    0.6451   -8.7545    1.0015 C   0  0  2  0  0  0  0  0  0  0  0  0
    0.8770   -9.6930    1.9260 C   0  0  0  0  0  0  0  0  0  0  0  0
    2.8186  -10.6161    4.2638 N   0  0  0  0  0  0  0  0  0  0  0  0
    0.5495  -11.2260    4.5093 O   0  0  0  0  0  0  0  0  0  0  0  0
    0.8250  -10.9498    1.6660 O   0  0  0  0  0  0  0  0  0  0  0  0
    1.1267   -5.6083    2.8763 O   0  0  0  0  0  0  0  0  0  0  0  0
    0.4802   -9.1745   -0.3439 C   0  0  0  0  0  0  0  0  0  0  0  0
   -0.4857   -8.6217   -0.9786 O   0  0  0  0  0  0  0  0  0  0  0  0
    1.4009   -9.4016   -1.1736 O   0  0  0  0  0  0  0  0  0  0  0  0
    3.0892  -11.5887    5.1666 C   0  0  0  0  0  0  0  0  0  0  0  0
    4.2789  -11.1666    5.8099 N   0  0  0  0  0  0  0  0  0  0  0  0
    0.5259   -4.7260    2.1172 C   0  0  0  0  0  0  0  0  0  0  0  0
   -0.7883   -4.5835    2.2410 C   0  0  0  0  0  0  0  0  0  0  0  0
  1  2  1  0
  2  3  1  0
  4  5  1  0
  2  7  1  0
  6  7  1  0
  3  8  2  3
  3  9  1  0
  7 10  2  0
  4 11  1  0
  6 12  1  6
 12 13  2  0
 12 14  1  0
  8 15  1  0
 15 16  1  0
 11 17  1  0
 17 18  1  0
  1  4  1  0
  5  6  1  0
M  END

$$$$
No_43-/export/home/yangzhenyu/potential_scad_32_flow//YTHDC2/2024-12-06-03-22-00/
     RDKit          3D

 17 17  0  0  0  0  0  0  0  0999 V2000
    1.1787   -8.0297    3.5154 C   0  0  0  0  0  0  0  0  0  0  0  0
    1.1048   -9.2215    3.2892 C   0  0  0  0  0  0  0  0  0  0  0  0
    1.3627  -10.1721    4.3044 C   0  0  0  0  0  0  0  0  0  0  0  0
    1.7354  -11.4730    3.9023 C   0  0  0  0  0  0  0  0  0  0  0  0
    1.8080  -11.8127    2.7216 C   0  0  0  0  0  0  0  0  0  0  0  0
    1.5854  -11.0021    1.7249 C   0  0  0  0  0  0  0  0  0  0  0  0
    1.3573   -9.7389    1.9287 C   0  0  0  0  0  0  0  0  0  0  0  0
    1.2865   -8.8078    0.9161 C   0  0  0  0  0  0  0  0  0  0  0  0
    1.6845   -9.1638   -0.2896 O   0  0  0  0  0  0  0  0  0  0  0  0
    0.9852   -7.5566    1.1137 O   0  0  0  0  0  0  0  0  0  0  0  0
    2.0809  -13.2098    2.3190 C   0  0  0  0  0  0  0  0  0  0  0  0
    1.1837  -14.0454    1.6746 O   0  0  0  0  0  0  0  0  0  0  0  0
    3.2217  -13.7364    2.2534 O   0  0  0  0  0  0  0  0  0  0  0  0
    2.4626   -7.3799    3.6924 Cl  0  0  0  0  0  0  0  0  0  0  0  0
    0.0883   -7.3211    3.7821 O   0  0  0  0  0  0  0  0  0  0  0  0
    3.2968  -15.0618    1.7682 C   0  0  0  0  0  0  0  0  0  0  0  0
    2.7739  -15.9487    2.9384 C   0  0  0  0  0  0  0  0  0  0  0  0
  1  2  1  0
  7  8  1  0
  8  9  1  0
  8 10  2  0
  5 11  1  0
 11 12  2  0
 11 13  1  0
  1 14  1  0
  1 15  2  0
 13 16  1  0
 16 17  1  0
  2  3  2  0
  3  4  1  0
  4  5  2  0
  5  6  1  0
  6  7  2  0
  2  7  1  0
M  END

$$$$
No_44-/export/home/yangzhenyu/potential_scad_32_flow//YTHDC2/2024-12-06-03-22-00/
     RDKit          3D

 18 17  0  0  1  0  0  0  0  0999 V2000
    1.1787   -8.0297    3.5154 P   0  0  1  0  0  0  0  0  0  0  0  0
    1.2030   -9.2736    3.3536 O   0  0  0  0  0  0  0  0  0  0  0  0
   -0.0768   -7.4876    3.7816 O   0  0  0  0  0  0  0  0  0  0  0  0
    2.0420   -7.3158    4.4410 O   0  0  0  0  0  0  0  0  0  0  0  0
    1.3620   -7.3393    1.9708 C   0  0  0  0  0  0  0  0  0  0  0  0
    1.5443   -8.1733    0.9330 C   0  0  0  0  0  0  0  0  0  0  0  0
    1.8907   -7.5989   -0.3260 C   0  0  0  0  0  0  0  0  0  0  0  0
    2.2578   -8.7218   -1.2205 C   0  0  0  0  0  0  0  0  0  0  0  0
    2.7508   -9.9336   -0.7103 O   0  0  0  0  0  0  0  0  0  0  0  0
    2.3092   -8.6879   -2.3482 O   0  0  0  0  0  0  0  0  0  0  0  0
    0.8032  -10.3422    4.1049 C   0  0  0  0  0  0  0  0  0  0  0  0
   -0.2132  -11.2021    3.5392 C   0  0  1  0  0  0  0  0  0  0  0  0
   -1.4273  -10.7244    3.5428 Cl  0  0  0  0  0  0  0  0  0  0  0  0
    0.4104  -11.6501    2.1279 C   0  0  0  0  0  0  0  0  0  0  0  0
    0.2731  -12.8718    1.7589 C   0  0  0  0  0  0  0  0  0  0  0  0
    0.7835  -13.3869    0.4911 C   0  0  0  0  0  0  0  0  0  0  0  0
   -0.2099  -13.9909    2.6195 C   0  0  0  0  0  0  0  0  0  0  0  0
    0.2316  -15.3109    2.2438 C   0  0  0  0  0  0  0  0  0  0  0  0
  1  2  1  0
  1  3  1  1
  1  4  2  0
  1  5  1  0
  5  6  2  3
  6  7  1  0
  7  8  1  0
  8  9  1  0
  8 10  2  0
  2 11  1  0
 11 12  1  0
 12 13  1  6
 12 14  1  0
 14 15  2  3
 15 16  1  0
 15 17  1  0
 17 18  1  0
M  END

$$$$
No_45-/export/home/yangzhenyu/potential_scad_32_flow//YTHDC2/2024-12-06-03-22-00/
     RDKit          3D

 19 19  0  0  1  0  0  0  0  0999 V2000
    1.1787   -8.0297    3.5154 C   0  0  0  0  0  0  0  0  0  0  0  0
    1.0491   -6.8434    2.9820 C   0  0  0  0  0  0  0  0  0  0  0  0
    1.9985   -8.9840    2.8958 C   0  0  2  0  0  0  0  0  0  0  0  0
    1.7297   -9.2108    1.6335 C   0  0  0  0  0  0  0  0  0  0  0  0
    1.7343   -8.0566    0.8408 C   0  0  2  0  0  0  0  0  0  0  0  0
    1.0269   -6.8892    1.4456 C   0  0  0  0  0  0  0  0  0  0  0  0
    2.0740   -7.9416   -0.3682 C   0  0  0  0  0  0  0  0  0  0  0  0
    3.0714   -8.7358   -0.8759 O   0  0  0  0  0  0  0  0  0  0  0  0
    1.5652   -7.4484   -1.3109 O   0  0  0  0  0  0  0  0  0  0  0  0
    2.3817  -10.1685    3.6626 C   0  0  0  0  0  0  0  0  0  0  0  0
    1.5921  -11.0501    4.1479 O   0  0  0  0  0  0  0  0  0  0  0  0
    3.6958  -10.3134    4.0454 O   0  0  0  0  0  0  0  0  0  0  0  0
    0.9297   -5.6463    3.5098 C   0  0  0  0  0  0  0  0  0  0  0  0
    2.0419   -5.0732    4.1386 O   0  0  0  0  0  0  0  0  0  0  0  0
   -0.1150   -4.8837    3.3206 F   0  0  0  0  0  0  0  0  0  0  0  0
    1.8173  -10.3849    1.0855 O   0  0  0  0  0  0  0  0  0  0  0  0
    0.9930   -5.6813    0.7545 O   0  0  0  0  0  0  0  0  0  0  0  0
    4.0319  -11.0998    5.0950 C   0  0  0  0  0  0  0  0  0  0  0  0
    3.4073  -10.4165    6.2056 C   0  0  0  0  0  0  0  0  0  0  0  0
  1  2  1  0
  1  3  1  0
  3  4  1  0
  4  5  1  0
  2  6  1  0
  5  6  1  0
  5  7  1  6
  7  8  1  0
  7  9  2  0
  3 10  1  1
 10 11  2  0
 10 12  1  0
  2 13  1  0
 13 14  2  0
 13 15  1  0
  4 16  2  0
  6 17  2  0
 12 18  1  0
 18 19  1  0
M  END

$$$$
No_46-/export/home/yangzhenyu/potential_scad_32_flow//YTHDC2/2024-12-06-03-22-00/
     RDKit          3D

 20 20  0  0  0  0  0  0  0  0999 V2000
    1.1787   -8.0297    3.5154 C   0  0  0  0  0  0  0  0  0  0  0  0
    1.1048   -9.2215    3.2892 C   0  0  0  0  0  0  0  0  0  0  0  0
    1.3627  -10.1721    4.3044 C   0  0  0  0  0  0  0  0  0  0  0  0
    1.7354  -11.4730    3.9023 C   0  0  0  0  0  0  0  0  0  0  0  0
    1.8080  -11.8127    2.7216 C   0  0  0  0  0  0  0  0  0  0  0  0
    1.5854  -11.0021    1.7249 C   0  0  0  0  0  0  0  0  0  0  0  0
    1.3573   -9.7389    1.9287 C   0  0  0  0  0  0  0  0  0  0  0  0
    1.1102   -8.8712    0.9017 C   0  0  0  0  0  0  0  0  0  0  0  0
    0.5299   -7.6926    1.0325 O   0  0  0  0  0  0  0  0  0  0  0  0
    1.3970   -9.2634   -0.4035 O   0  0  0  0  0  0  0  0  0  0  0  0
    2.1059  -13.2053    2.3252 C   0  0  0  0  0  0  0  0  0  0  0  0
    1.8988  -14.2531    3.1368 O   0  0  0  0  0  0  0  0  0  0  0  0
    2.5007  -13.4973    1.0804 O   0  0  0  0  0  0  0  0  0  0  0  0
    2.4952   -7.3482    3.5373 O   0  0  0  0  0  0  0  0  0  0  0  0
    0.2574   -7.5043    4.2399 O   0  0  0  0  0  0  0  0  0  0  0  0
    2.0072  -15.5328    2.6493 C   0  0  0  0  0  0  0  0  0  0  0  0
    1.0564  -16.1675    2.5660 C   0  0  0  0  0  0  0  0  0  0  0  0
    0.9750  -17.4674    2.2092 O   0  0  0  0  0  0  0  0  0  0  0  0
   -0.0263  -16.0220    3.5022 N   0  0  0  0  0  0  0  0  0  0  0  0
   -1.0911  -16.7478    3.6998 C   0  0  0  0  0  0  0  0  0  0  0  0
  1  2  1  0
  7  8  1  0
  8  9  2  0
  8 10  1  0
  5 11  1  0
 11 12  1  0
 11 13  2  0
  1 14  1  0
  1 15  2  0
 12 16  1  0
 16 17  1  0
 17 18  2  0
 17 19  1  0
 19 20  1  0
  2  3  2  0
  3  4  1  0
  4  5  2  0
  5  6  1  0
  6  7  2  0
  2  7  1  0
M  END

$$$$
No_47-/export/home/yangzhenyu/potential_scad_32_flow//YTHDC2/2024-12-06-03-22-00/
     RDKit          3D

 14 14  0  0  1  0  0  0  0  0999 V2000
    1.1787   -8.0297    3.5154 C   0  0  0  0  0  0  0  0  0  0  0  0
    1.0491   -6.8434    2.9820 F   0  0  0  0  0  0  0  0  0  0  0  0
    0.0305   -8.5911    3.7360 C   0  0  2  0  0  0  0  0  0  0  0  0
   -1.0616   -7.8653    3.8164 C   0  0  0  0  0  0  0  0  0  0  0  0
   -2.1275   -8.5375    4.6499 C   0  0  0  0  0  0  0  0  0  0  0  0
   -1.4753   -9.9788    4.9005 C   0  0  0  0  0  0  0  0  0  0  0  0
   -0.1386   -9.9963    4.3526 C   0  0  0  0  0  0  0  0  0  0  0  0
    1.7628   -8.8636    2.3850 F   0  0  0  0  0  0  0  0  0  0  0  0
    0.6567  -10.9335    4.3683 C   0  0  0  0  0  0  0  0  0  0  0  0
    0.4451  -12.1382    3.8219 O   0  0  0  0  0  0  0  0  0  0  0  0
    1.7484  -10.9996    5.3159 O   0  0  0  0  0  0  0  0  0  0  0  0
   -2.1049  -10.9206    5.3406 O   0  0  0  0  0  0  0  0  0  0  0  0
    2.2804   -8.0426    4.1600 F   0  0  0  0  0  0  0  0  0  0  0  0
   -3.3795   -8.2353    4.9719 C   0  0  0  0  0  0  0  0  0  0  0  0
  1  2  1  0
  3  1  1  1
  3  4  1  0
  4  5  2  0
  5  6  1  0
  3  7  1  0
  6  7  1  0
  1  8  1  0
  7  9  1  0
  9 10  2  0
  9 11  1  0
  6 12  2  0
  1 13  1  0
  5 14  1  0
M  END

$$$$
No_48-/export/home/yangzhenyu/potential_scad_32_flow//YTHDC2/2024-12-06-03-22-00/
     RDKit          3D

 18 18  0  0  1  0  0  0  0  0999 V2000
    1.1787   -8.0297    3.5154 C   0  0  0  0  0  0  0  0  0  0  0  0
    1.1048   -9.2215    3.2892 C   0  0  0  0  0  0  0  0  0  0  0  0
    1.3627  -10.1721    4.3044 C   0  0  0  0  0  0  0  0  0  0  0  0
    1.7354  -11.4730    3.9023 C   0  0  0  0  0  0  0  0  0  0  0  0
    1.8080  -11.8127    2.7216 C   0  0  0  0  0  0  0  0  0  0  0  0
    1.5854  -11.0021    1.7249 C   0  0  0  0  0  0  0  0  0  0  0  0
    1.3573   -9.7389    1.9287 C   0  0  0  0  0  0  0  0  0  0  0  0
    1.1102   -8.8712    0.9017 C   0  0  0  0  0  0  0  0  0  0  0  0
    0.5299   -7.6926    1.0325 O   0  0  0  0  0  0  0  0  0  0  0  0
    1.6802   -9.1282   -0.4160 N   0  0  0  0  0  0  0  0  0  0  0  0
    2.1438  -13.3859    2.2864 C   0  0  0  0  0  0  0  0  0  0  0  0
    1.0586  -14.1223    1.7458 C   0  0  2  0  0  0  0  0  0  0  0  0
    0.2471  -13.5073    1.1824 C   0  0  0  0  0  0  0  0  0  0  0  0
    0.2547  -13.5759   -0.3271 O   0  0  0  0  0  0  0  0  0  0  0  0
   -0.6907  -12.7460    1.4735 O   0  0  0  0  0  0  0  0  0  0  0  0
    1.0287  -15.3933    2.0569 C   0  0  0  0  0  0  0  0  0  0  0  0
    1.7330  -16.3310    1.6102 C   0  0  0  0  0  0  0  0  0  0  0  0
    1.5228  -17.7438    2.0376 O   0  0  0  0  0  0  0  0  0  0  0  0
  1  2  1  0
  7  8  1  0
  8  9  2  0
  8 10  1  0
  5 11  1  0
 12 11  1  1
 12 13  1  0
 13 14  2  0
 13 15  1  0
 12 16  1  0
 16 17  1  0
 17 18  1  0
  2  3  2  0
  3  4  1  0
  4  5  2  0
  5  6  1  0
  6  7  2  0
  2  7  1  0
M  END

$$$$
No_49-/export/home/yangzhenyu/potential_scad_32_flow//YTHDC2/2024-12-06-03-22-00/
     RDKit          3D

 19 20  0  0  1  0  0  0  0  0999 V2000
    1.1787   -8.0297    3.5154 C   0  0  0  0  0  0  0  0  0  0  0  0
    1.1048   -9.2215    3.2892 C   0  0  0  0  0  0  0  0  0  0  0  0
    1.2339   -9.7611    2.0189 C   0  0  0  0  0  0  0  0  0  0  0  0
    1.3583   -9.0036    0.9764 C   0  0  0  0  0  0  0  0  0  0  0  0
    1.5996   -7.6362    1.1311 C   0  0  0  0  0  0  0  0  0  0  0  0
    1.4830   -7.0928    2.3626 C   0  0  0  0  0  0  0  0  0  0  0  0
    1.1008  -11.2372    1.8542 C   0  0  2  0  0  0  0  0  0  0  0  0
    1.9749  -12.0938    2.2342 C   0  0  0  0  0  0  0  0  0  0  0  0
    1.7533  -13.4231    1.8956 C   0  0  1  0  0  0  0  0  0  0  0  0
    0.8624  -13.8318    1.1071 C   0  0  0  0  0  0  0  0  0  0  0  0
   -0.0624  -12.9093    0.5581 C   0  0  0  0  0  0  0  0  0  0  0  0
    0.1157  -11.5285    0.9404 C   0  0  0  0  0  0  0  0  0  0  0  0
    1.5561   -5.6354    2.6426 Cl  0  0  0  0  0  0  0  0  0  0  0  0
   -0.8311  -10.6449    0.4827 O   0  0  0  0  0  0  0  0  0  0  0  0
    2.9231  -14.5484    2.5146 P   0  0  0  0  0  0  0  0  0  0  0  0
    3.8386  -14.9714    1.5876 O   0  0  0  0  0  0  0  0  0  0  0  0
    3.3560  -14.1891    3.8030 O   0  0  0  0  0  0  0  0  0  0  0  0
    1.8844  -15.8617    2.7898 O   0  0  0  0  0  0  0  0  0  0  0  0
    1.6293   -9.4648   -0.5322 O   0  0  0  0  0  0  0  0  0  0  0  0
  7  3  1  6
  7  8  1  0
  9 10  1  0
  7 12  1  0
 11 12  1  0
  6 13  1  0
 12 14  2  0
  9 15  1  6
 15 16  2  0
 15 17  1  0
 15 18  1  0
  4 19  1  0
  8  9  1  0
 10 11  1  0
  1  2  2  0
  2  3  1  0
  3  4  2  0
  4  5  1  0
  5  6  2  0
  1  6  1  0
M  END

$$$$
No_50-/export/home/yangzhenyu/potential_scad_32_flow//YTHDC2/2024-12-06-03-22-00/
     RDKit          3D

 20 20  0  0  1  0  0  0  0  0999 V2000
    1.1787   -8.0297    3.5154 O   0  0  0  0  0  0  0  0  0  0  0  0
    0.9969   -8.9689    3.0048 C   0  0  1  0  0  0  0  0  0  0  0  0
    0.9976   -8.9567    1.6341 C   0  0  0  0  0  0  0  0  0  0  0  0
    0.7663   -7.7728    1.0082 C   0  0  1  0  0  0  0  0  0  0  0  0
    1.1468   -6.5619    1.6541 C   0  0  2  0  0  0  0  0  0  0  0  0
    1.3592   -6.6155    3.0007 C   0  0  0  0  0  0  0  0  0  0  0  0
    0.9781  -10.1276    3.6866 C   0  0  0  0  0  0  0  0  0  0  0  0
   -0.1772  -10.7865    4.0343 O   0  0  0  0  0  0  0  0  0  0  0  0
    2.1303  -10.9822    3.8860 N   0  0  0  0  0  0  0  0  0  0  0  0
    0.7397   -7.7833   -0.3801 C   0  0  0  0  0  0  0  0  0  0  0  0
   -0.5705   -7.6916   -0.8638 O   0  0  0  0  0  0  0  0  0  0  0  0
    1.6245   -8.0359   -1.1902 O   0  0  0  0  0  0  0  0  0  0  0  0
    1.1102  -10.1493    0.9219 O   0  0  0  0  0  0  0  0  0  0  0  0
    1.6732   -5.6179    3.7386 O   0  0  0  0  0  0  0  0  0  0  0  0
    1.1229   -5.2822    1.0975 C   0  0  0  0  0  0  0  0  0  0  0  0
   -0.1816   -4.5965    1.0814 C   0  0  0  0  0  0  0  0  0  0  0  0
   -0.2603   -3.2537    0.6425 C   0  0  0  0  0  0  0  0  0  0  0  0
    0.5132   -2.3543    1.2907 C   0  0  0  0  0  0  0  0  0  0  0  0
    0.5404   -1.2172    0.9177 C   0  0  0  0  0  0  0  0  0  0  0  0
   -0.0617   -0.7152   -0.2736 C   0  0  0  0  0  0  0  0  0  0  0  0
  1  2  1  0
  2  3  1  0
  3  4  1  0
  4  5  1  0
  1  6  1  0
  5  6  1  0
  2  7  1  6
  7  8  2  0
  7  9  1  0
  4 10  1  6
 10 11  2  0
 10 12  1  0
  3 13  2  0
  6 14  2  0
  5 15  1  1
 15 16  1  0
 16 17  1  0
 17 18  1  0
 18 19  2  3
 19 20  1  0
M  END

$$$$
No_51-/export/home/yangzhenyu/potential_scad_32_flow//YTHDC2/2024-12-06-03-22-00/
     RDKit          3D

 19 19  0  0  1  0  0  0  0  0999 V2000
    1.1787   -8.0297    3.5154 C   0  0  0  0  0  0  0  0  0  0  0  0
    1.1048   -9.2215    3.2892 C   0  0  0  0  0  0  0  0  0  0  0  0
    1.3627  -10.1721    4.3044 C   0  0  0  0  0  0  0  0  0  0  0  0
    1.7354  -11.4730    3.9023 C   0  0  0  0  0  0  0  0  0  0  0  0
    1.8080  -11.8127    2.7216 C   0  0  0  0  0  0  0  0  0  0  0  0
    1.5854  -11.0021    1.7249 C   0  0  0  0  0  0  0  0  0  0  0  0
    1.3573   -9.7389    1.9287 C   0  0  0  0  0  0  0  0  0  0  0  0
    1.1102   -8.8712    0.9017 C   0  0  0  0  0  0  0  0  0  0  0  0
    0.5299   -7.6926    1.0325 O   0  0  0  0  0  0  0  0  0  0  0  0
    1.1841   -9.3630   -0.4581 O   0  0  0  0  0  0  0  0  0  0  0  0
    2.1111  -13.2043    2.3260 C   0  0  0  0  0  0  0  0  0  0  0  0
    1.9002  -14.2533    3.1352 O   0  0  0  0  0  0  0  0  0  0  0  0
    2.0446  -13.5728    0.9974 O   0  0  0  0  0  0  0  0  0  0  0  0
    2.4966   -7.3481    3.5450 O   0  0  0  0  0  0  0  0  0  0  0  0
    0.1786   -7.3222    3.7553 O   0  0  0  0  0  0  0  0  0  0  0  0
    2.0307  -15.5393    2.6865 C   0  0  0  0  0  0  0  0  0  0  0  0
    1.0337  -16.3591    2.9606 C   0  0  1  0  0  0  0  0  0  0  0  0
    1.1500  -17.6630    2.6586 F   0  0  0  0  0  0  0  0  0  0  0  0
    0.7144  -16.4114    4.4560 I   0  0  0  0  0  0  0  0  0  0  0  0
  1  2  1  0
  7  8  1  0
  8  9  2  0
  8 10  1  0
  5 11  1  0
 11 12  1  0
 11 13  2  0
  1 14  1  0
  1 15  2  0
 12 16  1  0
 16 17  1  0
 17 18  1  1
 17 19  1  0
  2  3  2  0
  3  4  1  0
  4  5  2  0
  5  6  1  0
  6  7  2  0
  2  7  1  0
M  END

$$$$
No_52-/export/home/yangzhenyu/potential_scad_32_flow//YTHDC2/2024-12-06-03-22-00/
     RDKit          3D

 18 18  0  0  1  0  0  0  0  0999 V2000
    1.1787   -8.0297    3.5154 O   0  0  0  0  0  0  0  0  0  0  0  0
    0.9969   -8.9689    3.0048 C   0  0  1  0  0  0  0  0  0  0  0  0
    0.9976   -8.9567    1.6341 C   0  0  0  0  0  0  0  0  0  0  0  0
    0.7663   -7.7728    1.0082 C   0  0  0  0  0  0  0  0  0  0  0  0
    0.5873   -6.9953    1.8663 C   0  0  2  0  0  0  0  0  0  0  0  0
    0.3147   -5.6081    1.1779 C   0  0  0  0  0  0  0  0  0  0  0  0
    1.0196   -6.8202    3.1399 C   0  0  0  0  0  0  0  0  0  0  0  0
    1.5259  -10.2720    3.6288 C   0  0  2  0  0  0  0  0  0  0  0  0
    2.6084  -10.6169    3.7163 C   0  0  0  0  0  0  0  0  0  0  0  0
    1.2635   -4.4942    1.4799 O   0  0  0  0  0  0  0  0  0  0  0  0
   -0.5917   -5.3400    0.2811 N   0  0  0  0  0  0  0  0  0  0  0  0
    0.4813  -11.2063    4.0772 C   0  0  0  0  0  0  0  0  0  0  0  0
    3.1701  -11.1310    4.9073 O   0  0  0  0  0  0  0  0  0  0  0  0
   -0.4547  -11.6234    3.2455 C   0  0  0  0  0  0  0  0  0  0  0  0
   -1.6821  -11.2072    3.1909 C   0  0  0  0  0  0  0  0  0  0  0  0
   -2.1169  -10.2849    4.2049 O   0  0  0  0  0  0  0  0  0  0  0  0
   -2.6810  -11.6763    2.4956 O   0  0  0  0  0  0  0  0  0  0  0  0
    3.5173  -10.5640    2.8529 O   0  0  0  0  0  0  0  0  0  0  0  0
  1  2  1  0
  2  3  1  6
  3  4  1  0
  4  5  1  0
  5  6  1  6
  1  7  1  0
  5  7  1  0
  2  8  1  0
  8  9  1  0
  6 10  2  0
  6 11  1  0
  8 12  1  6
  9 13  1  0
 12 14  1  0
 14 15  1  0
 15 16  2  0
 15 17  1  0
  9 18  2  0
M  END

$$$$
No_53-/export/home/yangzhenyu/potential_scad_32_flow//YTHDC2/2024-12-06-03-22-00/
     RDKit          3D

 19 18  0  0  1  0  0  0  0  0999 V2000
    1.1787   -8.0297    3.5154 C   0  0  0  0  0  0  0  0  0  0  0  0
    1.0491   -6.8434    2.9820 C   0  0  0  0  0  0  0  0  0  0  0  0
    1.9985   -8.9840    2.8958 C   0  0  0  0  0  0  0  0  0  0  0  0
    1.1815  -10.1889    2.5497 C   0  0  0  0  0  0  0  0  0  0  0  0
    0.9817  -11.1388    2.8134 C   0  0  2  0  0  0  0  0  0  0  0  0
    1.6854  -11.5768    4.1035 C   0  0  0  0  0  0  0  0  0  0  0  0
    0.2240   -6.7837    1.8683 N   0  0  0  0  0  0  0  0  0  0  0  0
   -0.7602   -7.3332    1.7880 C   0  0  1  0  0  0  0  0  0  0  0  0
   -1.6565   -7.2815    2.8587 C   0  0  0  0  0  0  0  0  0  0  0  0
   -2.1871   -6.1327    3.2635 O   0  0  0  0  0  0  0  0  0  0  0  0
   -1.8557   -8.3865    3.5448 O   0  0  0  0  0  0  0  0  0  0  0  0
    1.0390  -12.3784    1.9716 C   0  0  0  0  0  0  0  0  0  0  0  0
    1.4155  -13.5648    2.4712 N   0  0  0  0  0  0  0  0  0  0  0  0
    2.1110  -14.4093    1.7935 C   0  0  0  0  0  0  0  0  0  0  0  0
    2.4824  -15.6863    2.3636 O   0  0  0  0  0  0  0  0  0  0  0  0
    2.1111  -14.3487    0.4422 O   0  0  0  0  0  0  0  0  0  0  0  0
    0.8416   -9.8805    1.0223 O   0  0  0  0  0  0  0  0  0  0  0  0
   -1.3955   -7.7995    0.7562 C   0  0  0  0  0  0  0  0  0  0  0  0
   -1.5405   -7.0880   -0.4374 O   0  0  0  0  0  0  0  0  0  0  0  0
  1  2  1  0
  1  3  1  0
  3  4  1  0
  4  5  1  0
  5  6  1  1
  2  7  1  0
  8  7  1  6
  8  9  1  0
  9 10  2  0
  9 11  1  0
  5 12  1  0
 12 13  1  0
 13 14  1  0
 14 15  2  0
 14 16  1  0
  4 17  2  0
  8 18  1  0
 18 19  2  0
M  END

$$$$
No_54-/export/home/yangzhenyu/potential_scad_32_flow//YTHDC2/2024-12-06-03-22-00/
     RDKit          3D

 19 19  0  0  1  0  0  0  0  0999 V2000
    1.1787   -8.0297    3.5154 O   0  0  0  0  0  0  0  0  0  0  0  0
    0.9969   -8.9689    3.0048 C   0  0  1  0  0  0  0  0  0  0  0  0
    0.9976   -8.9567    1.6341 C   0  0  0  0  0  0  0  0  0  0  0  0
    0.7663   -7.7728    1.0082 C   0  0  1  0  0  0  0  0  0  0  0  0
    1.1468   -6.5619    1.6541 C   0  0  0  0  0  0  0  0  0  0  0  0
    1.3592   -6.6155    3.0007 C   0  0  0  0  0  0  0  0  0  0  0  0
    0.9781  -10.1276    3.6866 C   0  0  0  0  0  0  0  0  0  0  0  0
    1.9856  -10.9664    3.7361 C   0  0  0  0  0  0  0  0  0  0  0  0
    0.8263   -7.8148   -0.3756 C   0  0  0  0  0  0  0  0  0  0  0  0
   -0.4539   -7.7594   -0.9613 I   0  0  0  0  0  0  0  0  0  0  0  0
    3.1206  -10.4781    4.4087 O   0  0  0  0  0  0  0  0  0  0  0  0
    1.6916  -12.3188    3.8286 O   0  0  0  0  0  0  0  0  0  0  0  0
    1.6406   -5.6283    3.7622 C   0  0  0  0  0  0  0  0  0  0  0  0
    0.8641  -10.1421    0.9291 O   0  0  0  0  0  0  0  0  0  0  0  0
    1.1767   -5.3173    1.0955 O   0  0  0  0  0  0  0  0  0  0  0  0
   -0.2671  -10.4368    4.3351 C   0  0  0  0  0  0  0  0  0  0  0  0
   -0.9731  -11.4415    4.1545 C   0  0  0  0  0  0  0  0  0  0  0  0
   -2.3895  -11.3448    4.0532 C   0  0  0  0  0  0  0  0  0  0  0  0
   -2.9159  -10.2992    4.7994 C   0  0  0  0  0  0  0  0  0  0  0  0
  1  2  1  0
  2  3  1  0
  3  4  1  0
  4  5  1  0
  1  6  1  0
  5  6  1  0
  2  7  1  6
  7  8  1  0
  4  9  1  6
  9 10  1  0
  8 11  1  0
  8 12  2  0
  6 13  1  0
  3 14  2  0
  5 15  2  0
  7 16  1  0
 16 17  1  0
 17 18  2  3
 18 19  1  0
M  END

$$$$
No_55-/export/home/yangzhenyu/potential_scad_32_flow//YTHDC2/2024-12-06-03-22-00/
     RDKit          3D

 17 17  0  0  1  0  0  0  0  0999 V2000
    1.1787   -8.0297    3.5154 C   0  0  0  0  0  0  0  0  0  0  0  0
    1.0491   -6.8434    2.9820 C   0  0  0  0  0  0  0  0  0  0  0  0
    0.2462   -8.9560    3.0873 C   0  0  0  0  0  0  0  0  0  0  0  0
    0.3295   -6.5187    1.9069 C   0  0  0  0  0  0  0  0  0  0  0  0
   -0.5260   -8.7862    2.1368 C   0  0  0  0  0  0  0  0  0  0  0  0
   -0.5458   -7.5614    1.5054 C   0  0  0  0  0  0  0  0  0  0  0  0
    0.3636   -5.3203    1.2895 C   0  0  0  0  0  0  0  0  0  0  0  0
    1.2843   -4.3993    1.8232 O   0  0  0  0  0  0  0  0  0  0  0  0
   -0.4021   -4.8647    0.5132 O   0  0  0  0  0  0  0  0  0  0  0  0
    0.3621  -10.4980    3.7284 Cl  0  0  0  0  0  0  0  0  0  0  0  0
   -1.4550   -9.7018    1.5663 P   0  0  2  0  0  0  0  0  0  0  0  0
   -2.2739  -10.2109    2.3326 O   0  0  0  0  0  0  0  0  0  0  0  0
   -0.6194  -10.9545    0.9507 O   0  0  0  0  0  0  0  0  0  0  0  0
   -2.2345   -9.1960    0.2967 O   0  0  0  0  0  0  0  0  0  0  0  0
   -1.7795   -9.4028   -1.0776 C   0  0  0  0  0  0  0  0  0  0  0  0
   -2.4502   -8.4186   -1.9490 C   0  0  0  0  0  0  0  0  0  0  0  0
   -1.6965   -8.2611   -3.1204 O   0  0  0  0  0  0  0  0  0  0  0  0
  4  7  1  0
  7  8  1  0
  7  9  2  0
  3 10  1  0
  5 11  1  0
 11 12  1  1
 11 13  2  0
 11 14  1  0
 14 15  1  0
 15 16  1  0
 16 17  1  0
  1  2  2  0
  2  4  1  0
  4  6  2  0
  5  6  1  0
  3  5  2  0
  1  3  1  0
M  END

$$$$
No_56-/export/home/yangzhenyu/potential_scad_32_flow//YTHDC2/2024-12-06-03-22-00/
     RDKit          3D

 20 21  0  0  1  0  0  0  0  0999 V2000
    1.1787   -8.0297    3.5154 C   0  0  0  0  0  0  0  0  0  0  0  0
    1.0491   -6.8434    2.9820 C   0  0  2  0  0  0  0  0  0  0  0  0
    0.9905   -9.0774    2.6527 Cl  0  0  0  0  0  0  0  0  0  0  0  0
    1.4019   -5.6545    3.5911 C   0  0  0  0  0  0  0  0  0  0  0  0
    0.9578   -4.4829    3.3039 C   0  0  0  0  0  0  0  0  0  0  0  0
    0.3763   -4.5804    1.9047 C   0  0  0  0  0  0  0  0  0  0  0  0
    0.4658   -6.1099    1.6495 C   0  0  0  0  0  0  0  0  0  0  0  0
    0.1678   -6.6765    0.6866 C   0  0  0  0  0  0  0  0  0  0  0  0
   -1.2480   -6.6270    0.3393 C   0  0  0  0  0  0  0  0  0  0  0  0
   -2.0840   -5.9383    1.2038 C   0  0  1  0  0  0  0  0  0  0  0  0
   -3.3708   -5.8057    0.8132 C   0  0  1  0  0  0  0  0  0  0  0  0
   -4.1574   -5.1123    1.7732 C   0  0  0  0  0  0  0  0  0  0  0  0
   -3.6926   -4.8284    3.0750 C   0  0  0  0  0  0  0  0  0  0  0  0
   -2.4834   -5.1209    3.4626 C   0  0  0  0  0  0  0  0  0  0  0  0
   -1.6681   -5.7114    2.6527 C   0  0  0  0  0  0  0  0  0  0  0  0
   -2.1464   -4.8902    4.7713 O   0  0  0  0  0  0  0  0  0  0  0  0
    1.8222   -8.2084    4.4400 O   0  0  0  0  0  0  0  0  0  0  0  0
   -3.8786   -5.9473   -0.6133 O   0  0  0  0  0  0  0  0  0  0  0  0
   -4.0334   -7.0070   -0.8899 C   0  0  0  0  0  0  0  0  0  0  0  0
   -3.6389   -7.2114   -2.2166 C   0  0  0  0  0  0  0  0  0  0  0  0
  2  1  1  1
  1  3  1  0
  2  4  1  0
  4  5  2  0
  5  6  1  0
  2  7  1  0
  6  7  1  0
  7  8  1  0
  8  9  2  3
  9 10  1  0
 11 12  1  0
 13 14  1  0
 10 15  1  1
 14 15  1  0
 14 16  2  0
  1 17  2  0
 11 18  1  6
 18 19  1  0
 19 20  1  0
 12 13  1  0
 10 11  1  0
M  END

$$$$
No_57-/export/home/yangzhenyu/potential_scad_32_flow//YTHDC2/2024-12-06-03-22-00/
     RDKit          3D

 18 18  0  0  1  0  0  0  0  0999 V2000
    1.1787   -8.0297    3.5154 N   0  0  0  0  0  0  0  0  0  0  0  0
    1.0818   -9.0751    3.2053 C   0  0  2  0  0  0  0  0  0  0  0  0
    0.7576   -9.3725    1.9159 C   0  0  1  0  0  0  0  0  0  0  0  0
    0.8823   -8.4917    1.0547 C   0  0  1  0  0  0  0  0  0  0  0  0
    1.4631   -7.3107    1.2451 C   0  0  0  0  0  0  0  0  0  0  0  0
    1.6470   -6.9326    2.5669 C   0  0  0  0  0  0  0  0  0  0  0  0
    0.8237  -10.1305    4.2407 C   0  0  0  0  0  0  0  0  0  0  0  0
    1.7644  -11.1125    4.2479 F   0  0  0  0  0  0  0  0  0  0  0  0
   -0.3991  -10.8597    4.1134 F   0  0  0  0  0  0  0  0  0  0  0  0
    1.7878   -5.6380    2.9916 O   0  0  0  0  0  0  0  0  0  0  0  0
    0.8606   -8.8288   -0.6781 C   0  0  0  0  0  0  0  0  0  0  0  0
    1.7334   -8.8122   -1.3228 O   0  0  0  0  0  0  0  0  0  0  0  0
   -0.3572   -9.0448   -1.0274 O   0  0  0  0  0  0  0  0  0  0  0  0
    0.9161   -9.7591    5.4619 F   0  0  0  0  0  0  0  0  0  0  0  0
    0.5050  -10.7978    1.4915 C   0  0  0  0  0  0  0  0  0  0  0  0
    1.6744  -11.6362    1.1824 C   0  0  0  0  0  0  0  0  0  0  0  0
    1.5476  -12.9527    0.8970 Cl  0  0  0  0  0  0  0  0  0  0  0  0
    2.7803  -10.8114    0.7807 O   0  0  0  0  0  0  0  0  0  0  0  0
  1  2  1  0
  3  4  1  0
  1  6  1  0
  5  6  1  0
  2  7  1  1
  7  8  1  0
  7  9  1  0
  6 10  2  0
  4 11  1  6
 11 12  2  0
 11 13  1  0
  7 14  1  0
  3 15  1  6
 15 16  1  0
 16 17  1  0
 16 18  2  0
  2  3  1  0
  4  5  1  0
M  END

$$$$
No_58-/export/home/yangzhenyu/potential_scad_32_flow//YTHDC2/2024-12-06-03-22-00/
     RDKit          3D

 21 22  0  0  1  0  0  0  0  0999 V2000
    1.1787   -8.0297    3.5154 C   0  0  0  0  0  0  0  0  0  0  0  0
    1.1048   -9.2215    3.2892 C   0  0  0  0  0  0  0  0  0  0  0  0
    1.2339   -9.7611    2.0189 C   0  0  0  0  0  0  0  0  0  0  0  0
    1.3583   -9.0036    0.9764 C   0  0  0  0  0  0  0  0  0  0  0  0
    1.5996   -7.6362    1.1311 C   0  0  0  0  0  0  0  0  0  0  0  0
    1.4830   -7.0928    2.3626 C   0  0  0  0  0  0  0  0  0  0  0  0
    1.1008  -11.2372    1.8542 C   0  0  1  0  0  0  0  0  0  0  0  0
    0.4812  -11.6084    0.6459 C   0  0  0  0  0  0  0  0  0  0  0  0
   -0.3691  -10.9312    0.0124 C   0  0  0  0  0  0  0  0  0  0  0  0
   -0.9284   -9.6856    0.5810 C   0  0  0  0  0  0  0  0  0  0  0  0
   -1.6505   -8.9364   -0.6012 C   0  0  0  0  0  0  0  0  0  0  0  0
   -2.2919   -7.7690   -0.1261 C   0  0  0  0  0  0  0  0  0  0  0  0
   -2.2884   -6.6896   -0.8331 C   0  0  0  0  0  0  0  0  0  0  0  0
   -1.9370   -6.7986   -2.1693 C   0  0  0  0  0  0  0  0  0  0  0  0
   -1.3929   -7.9255   -2.7060 C   0  0  0  0  0  0  0  0  0  0  0  0
   -1.1054   -7.9665   -4.0486 C   0  0  0  0  0  0  0  0  0  0  0  0
   -1.1645   -9.0241   -1.9236 C   0  0  0  0  0  0  0  0  0  0  0  0
   -0.8650   -6.8015   -4.7338 O   0  0  0  0  0  0  0  0  0  0  0  0
   -0.5627   -9.0792   -4.7066 O   0  0  0  0  0  0  0  0  0  0  0  0
    2.1886  -11.9691    2.3724 C   0  0  0  0  0  0  0  0  0  0  0  0
    1.8923  -13.3956    2.1958 O   0  0  0  0  0  0  0  0  0  0  0  0
  3  7  1  0
  7  8  1  0
  8  9  2  3
  9 10  1  0
 15 16  1  0
 16 18  2  0
 16 19  1  0
  7 20  1  6
 20 21  1  0
 10 11  1  0
  1  2  2  0
  2  3  1  0
  3  4  2  0
  4  5  1  0
  5  6  2  0
  1  6  1  0
 11 12  2  0
 12 13  1  0
 13 14  2  0
 14 15  1  0
 15 17  2  0
 11 17  1  0
M  END

$$$$
No_59-/export/home/yangzhenyu/potential_scad_32_flow//YTHDC2/2024-12-06-03-22-00/
     RDKit          3D

 19 19  0  0  0  0  0  0  0  0999 V2000
    1.1787   -8.0297    3.5154 C   0  0  0  0  0  0  0  0  0  0  0  0
    1.1048   -9.2215    3.2892 C   0  0  0  0  0  0  0  0  0  0  0  0
    1.3627  -10.1721    4.3044 C   0  0  0  0  0  0  0  0  0  0  0  0
    1.7354  -11.4730    3.9023 C   0  0  0  0  0  0  0  0  0  0  0  0
    1.8080  -11.8127    2.7216 C   0  0  0  0  0  0  0  0  0  0  0  0
    1.5854  -11.0021    1.7249 C   0  0  0  0  0  0  0  0  0  0  0  0
    1.3573   -9.7389    1.9287 C   0  0  0  0  0  0  0  0  0  0  0  0
    1.1102   -8.8712    0.9017 C   0  0  0  0  0  0  0  0  0  0  0  0
    0.5299   -7.6926    1.0325 O   0  0  0  0  0  0  0  0  0  0  0  0
    1.3970   -9.2634   -0.4035 O   0  0  0  0  0  0  0  0  0  0  0  0
    2.1059  -13.2053    2.3252 O   0  0  0  0  0  0  0  0  0  0  0  0
    1.2349  -14.1740    1.9619 C   0  0  0  0  0  0  0  0  0  0  0  0
    1.7267  -15.3018    1.9341 C   0  0  0  0  0  0  0  0  0  0  0  0
    0.9536  -16.3829    1.6379 O   0  0  0  0  0  0  0  0  0  0  0  0
    2.9779  -15.5012    1.6791 O   0  0  0  0  0  0  0  0  0  0  0  0
    0.1589   -7.1813    3.6527 N   0  0  0  0  0  0  0  0  0  0  0  0
    0.0712   -5.9694    3.1878 C   0  0  0  0  0  0  0  0  0  0  0  0
   -1.1343   -5.4034    2.7227 C   0  0  0  0  0  0  0  0  0  0  0  0
    1.2167   -5.1231    3.2690 C   0  0  0  0  0  0  0  0  0  0  0  0
  1  2  1  0
  7  8  1  0
  8  9  2  0
  8 10  1  0
  5 11  1  0
 11 12  1  0
 12 13  1  0
 13 14  2  0
 13 15  1  0
  1 16  1  0
 16 17  1  0
 17 18  1  0
 17 19  1  0
  2  3  2  0
  3  4  1  0
  4  5  2  0
  5  6  1  0
  6  7  2  0
  2  7  1  0
M  END

$$$$
No_60-/export/home/yangzhenyu/potential_scad_32_flow//YTHDC2/2024-12-06-03-22-00/
     RDKit          3D

 18 18  0  0  0  0  0  0  0  0999 V2000
    1.1787   -8.0297    3.5154 C   0  0  0  0  0  0  0  0  0  0  0  0
    1.1048   -9.2215    3.2892 C   0  0  0  0  0  0  0  0  0  0  0  0
    1.3627  -10.1721    4.3044 C   0  0  0  0  0  0  0  0  0  0  0  0
    1.7354  -11.4730    3.9023 C   0  0  0  0  0  0  0  0  0  0  0  0
    1.8080  -11.8127    2.7216 C   0  0  0  0  0  0  0  0  0  0  0  0
    1.5854  -11.0021    1.7249 C   0  0  0  0  0  0  0  0  0  0  0  0
    1.3573   -9.7389    1.9287 C   0  0  0  0  0  0  0  0  0  0  0  0
    1.1102   -8.8712    0.9017 C   0  0  0  0  0  0  0  0  0  0  0  0
    1.5724   -9.1697   -0.3048 C   0  0  0  0  0  0  0  0  0  0  0  0
    1.2378   -8.2159   -1.4226 O   0  0  0  0  0  0  0  0  0  0  0  0
    2.1031  -13.4009    2.2918 C   0  0  0  0  0  0  0  0  0  0  0  0
    1.9809  -14.3023    3.1814 C   0  0  0  0  0  0  0  0  0  0  0  0
    0.7402  -14.8018    3.3689 C   0  0  0  0  0  0  0  0  0  0  0  0
    0.5444  -15.8856    2.3975 C   0  0  0  0  0  0  0  0  0  0  0  0
    1.3614  -16.9931    2.6024 O   0  0  0  0  0  0  0  0  0  0  0  0
    0.8802   -7.0441    2.9642 O   0  0  0  0  0  0  0  0  0  0  0  0
   -0.3643  -15.9171    1.6237 O   0  0  0  0  0  0  0  0  0  0  0  0
    2.5118   -9.9982   -0.6749 O   0  0  0  0  0  0  0  0  0  0  0  0
  1  2  1  0
  7  8  1  0
  8  9  2  3
  9 10  1  0
  5 11  1  0
 11 12  1  0
 12 13  1  0
 13 14  1  0
 14 15  1  0
  1 16  2  0
 14 17  2  0
  9 18  1  0
  2  3  2  0
  3  4  1  0
  4  5  2  0
  5  6  1  0
  6  7  2  0
  2  7  1  0
M  END

$$$$
No_61-/export/home/yangzhenyu/potential_scad_32_flow//YTHDC2/2024-12-06-03-22-00/
     RDKit          3D

 17 17  0  0  1  0  0  0  0  0999 V2000
    1.1787   -8.0297    3.5154 C   0  0  0  0  0  0  0  0  0  0  0  0
    1.0491   -6.8434    2.9820 C   0  0  1  0  0  0  0  0  0  0  0  0
    1.9985   -8.9840    2.8958 C   0  0  2  0  0  0  0  0  0  0  0  0
    1.7297   -9.2108    1.6335 C   0  0  0  0  0  0  0  0  0  0  0  0
    1.7343   -8.0566    0.8408 C   0  0  0  0  0  0  0  0  0  0  0  0
    1.0268   -6.8892    1.4456 C   0  0  0  0  0  0  0  0  0  0  0  0
    2.0740   -7.9416   -0.3682 O   0  0  0  0  0  0  0  0  0  0  0  0
    1.9646  -10.3580    3.5767 C   0  0  0  0  0  0  0  0  0  0  0  0
    1.1665  -11.3332    3.3170 O   0  0  0  0  0  0  0  0  0  0  0  0
    1.4156  -12.6087    3.3790 C   0  0  0  0  0  0  0  0  0  0  0  0
    1.3531  -13.2793    2.2115 C   0  0  0  0  0  0  0  0  0  0  0  0
    1.3169  -12.5802    1.1107 O   0  0  0  0  0  0  0  0  0  0  0  0
    2.2537  -14.3946    2.1930 F   0  0  0  0  0  0  0  0  0  0  0  0
    0.8565   -5.6890    3.5345 C   0  0  0  0  0  0  0  0  0  0  0  0
    1.8978   -4.8510    4.0031 O   0  0  0  0  0  0  0  0  0  0  0  0
   -0.2891   -5.1147    3.4649 O   0  0  0  0  0  0  0  0  0  0  0  0
    2.9171  -10.6493    4.5047 O   0  0  0  0  0  0  0  0  0  0  0  0
  1  2  1  0
  1  3  1  0
  3  4  1  0
  4  5  1  0
  2  6  1  0
  5  6  1  0
  5  7  2  0
  3  8  1  1
  8  9  1  0
  9 10  1  0
 10 11  1  0
 11 12  2  0
 11 13  1  0
  2 14  1  1
 14 15  1  0
 14 16  2  0
  8 17  2  0
M  END

$$$$
No_62-/export/home/yangzhenyu/potential_scad_32_flow//YTHDC2/2024-12-06-03-22-00/
     RDKit          3D

 17 17  0  0  1  0  0  0  0  0999 V2000
    1.1787   -8.0297    3.5154 C   0  0  0  0  0  0  0  0  0  0  0  0
    1.0491   -6.8434    2.9820 C   0  0  0  0  0  0  0  0  0  0  0  0
    1.9985   -8.9840    2.8958 C   0  0  2  0  0  0  0  0  0  0  0  0
    1.7297   -9.2108    1.6335 C   0  0  0  0  0  0  0  0  0  0  0  0
    1.7343   -8.0566    0.8408 C   0  0  2  0  0  0  0  0  0  0  0  0
    1.0269   -6.8892    1.4456 C   0  0  0  0  0  0  0  0  0  0  0  0
    1.7596   -8.0979   -0.4723 C   0  0  0  0  0  0  0  0  0  0  0  0
    2.7309   -8.8718   -1.0817 C   0  0  0  0  0  0  0  0  0  0  0  0
    2.4234  -10.1661    3.6309 C   0  0  0  0  0  0  0  0  0  0  0  0
    1.5932  -11.0091    4.2194 F   0  0  0  0  0  0  0  0  0  0  0  0
    3.5825  -10.3724    3.8852 O   0  0  0  0  0  0  0  0  0  0  0  0
    2.6048  -10.2084   -0.9936 O   0  0  0  0  0  0  0  0  0  0  0  0
    3.7233   -8.4420   -1.7770 O   0  0  0  0  0  0  0  0  0  0  0  0
    0.8615   -5.7338    0.8629 O   0  0  0  0  0  0  0  0  0  0  0  0
    0.8275   -5.7146    3.5265 O   0  0  0  0  0  0  0  0  0  0  0  0
    1.6597  -10.4166    1.1864 O   0  0  0  0  0  0  0  0  0  0  0  0
    1.0263   -7.6378   -1.3048 O   0  0  0  0  0  0  0  0  0  0  0  0
  1  2  1  0
  1  3  1  0
  3  4  1  0
  4  5  1  0
  2  6  1  0
  5  6  1  0
  5  7  1  6
  7  8  1  0
  3  9  1  1
  9 10  1  0
  9 11  2  0
  8 12  1  0
  8 13  2  0
  6 14  2  0
  2 15  2  0
  4 16  2  0
  7 17  2  0
M  END

$$$$
No_63-/export/home/yangzhenyu/potential_scad_32_flow//YTHDC2/2024-12-06-03-22-00/
     RDKit          3D

 20 20  0  0  1  0  0  0  0  0999 V2000
    1.1787   -8.0297    3.5154 O   0  0  0  0  0  0  0  0  0  0  0  0
    0.9969   -8.9689    3.0048 C   0  0  0  0  0  0  0  0  0  0  0  0
    0.8148   -8.9936    1.6651 C   0  0  0  0  0  0  0  0  0  0  0  0
    1.1770  -10.1706    3.6799 C   0  0  0  0  0  0  0  0  0  0  0  0
    0.3744  -11.1806    3.6681 C   0  0  0  0  0  0  0  0  0  0  0  0
   -0.9785  -10.8755    3.4033 C   0  0  0  0  0  0  0  0  0  0  0  0
    1.2148  -10.0622    0.8228 C   0  0  2  0  0  0  0  0  0  0  0  0
    2.4190  -10.6101    1.0203 C   0  0  0  0  0  0  0  0  0  0  0  0
    0.9715   -9.7120   -0.6477 C   0  0  0  0  0  0  0  0  0  0  0  0
    1.8130   -8.9546   -1.1756 O   0  0  0  0  0  0  0  0  0  0  0  0
   -0.0442  -10.0235   -1.3295 Br  0  0  0  0  0  0  0  0  0  0  0  0
   -1.6972  -11.8022    2.6450 C   0  0  0  0  0  0  0  0  0  0  0  0
   -1.2238  -13.1255    2.6530 C   0  0  0  0  0  0  0  0  0  0  0  0
    0.1547  -13.2921    3.0114 C   0  0  0  0  0  0  0  0  0  0  0  0
    0.9575  -12.4052    3.5201 C   0  0  0  0  0  0  0  0  0  0  0  0
    0.7196  -14.6766    2.7680 C   0  0  0  0  0  0  0  0  0  0  0  0
    1.9727  -14.7681    2.2679 N   0  0  0  0  0  0  0  0  0  0  0  0
    0.1769  -15.7713    3.1294 O   0  0  0  0  0  0  0  0  0  0  0  0
    2.6812  -15.9588    2.1161 C   0  0  0  0  0  0  0  0  0  0  0  0
    3.7257  -16.1843    2.7007 C   0  0  0  0  0  0  0  0  0  0  0  0
  1  2  2  0
  2  3  1  0
  2  4  1  0
  4  5  1  0
  3  7  1  0
  7  8  1  6
  7  9  1  0
  9 10  2  0
  9 11  1  0
 14 16  1  0
 16 17  1  0
 16 18  2  0
 17 19  1  0
 19 20  1  0
  5  6  2  0
  6 12  1  0
 12 13  2  0
 13 14  1  0
 14 15  2  0
  5 15  1  0
M  END

$$$$
No_64-/export/home/yangzhenyu/potential_scad_32_flow//YTHDC2/2024-12-06-03-22-00/
     RDKit          3D

 19 18  0  0  1  0  0  0  0  0999 V2000
    1.1787   -8.0297    3.5154 C   0  0  0  0  0  0  0  0  0  0  0  0
    1.1048   -9.2215    3.2892 F   0  0  0  0  0  0  0  0  0  0  0  0
    0.0668   -7.3577    3.4997 C   0  0  1  0  0  0  0  0  0  0  0  0
    0.0092   -6.1216    2.8034 N   0  0  0  0  0  0  0  0  0  0  0  0
    1.1804   -5.4937    2.4548 C   0  0  0  0  0  0  0  0  0  0  0  0
   -1.0754   -7.8122    4.0218 C   0  0  0  0  0  0  0  0  0  0  0  0
    1.0817   -4.1526    2.1756 C   0  0  0  0  0  0  0  0  0  0  0  0
    0.8411   -3.6873    0.8496 C   0  0  0  0  0  0  0  0  0  0  0  0
    0.0691   -4.3021    0.1725 C   0  0  1  0  0  0  0  0  0  0  0  0
   -0.6319   -5.2866    0.3855 C   0  0  0  0  0  0  0  0  0  0  0  0
   -0.2444   -3.4933   -1.0290 C   0  0  0  0  0  0  0  0  0  0  0  0
   -1.3420   -2.7505   -0.9966 O   0  0  0  0  0  0  0  0  0  0  0  0
   -1.8475   -8.3793    3.5946 O   0  0  0  0  0  0  0  0  0  0  0  0
   -1.0478   -7.9562    5.5018 O   0  0  0  0  0  0  0  0  0  0  0  0
   -1.4158   -1.5882   -0.3225 C   0  0  0  0  0  0  0  0  0  0  0  0
   -0.6434   -0.5746   -0.9301 C   0  0  0  0  0  0  0  0  0  0  0  0
   -0.8359    0.4248   -1.0515 C   0  0  0  0  0  0  0  0  0  0  0  0
   -1.9021    0.9761   -0.2365 C   0  0  0  0  0  0  0  0  0  0  0  0
   -2.6520    0.1340    0.5103 C   0  0  0  0  0  0  0  0  0  0  0  0
  1  2  1  0
  3  1  1  6
  3  4  1  0
  4  5  1  0
  3  6  1  0
  5  7  1  0
  7  8  1  0
  8  9  1  0
  9 10  1  1
  9 11  1  0
 11 12  1  0
  6 13  2  0
  6 14  1  0
 12 15  1  0
 15 16  1  0
 16 17  2  3
 17 18  1  0
 18 19  2  0
M  END

$$$$
No_65-/export/home/yangzhenyu/potential_scad_32_flow//YTHDC2/2024-12-06-03-22-00/
     RDKit          3D

 19 19  0  0  1  0  0  0  0  0999 V2000
    1.1787   -8.0297    3.5154 C   0  0  0  0  0  0  0  0  0  0  0  0
    1.1048   -9.2215    3.2892 C   0  0  0  0  0  0  0  0  0  0  0  0
    1.2339   -9.7611    2.0189 C   0  0  0  0  0  0  0  0  0  0  0  0
    1.3583   -9.0036    0.9764 C   0  0  0  0  0  0  0  0  0  0  0  0
    1.5996   -7.6362    1.1311 C   0  0  0  0  0  0  0  0  0  0  0  0
    1.4830   -7.0928    2.3626 C   0  0  0  0  0  0  0  0  0  0  0  0
    1.5395   -5.7300    2.6182 C   0  0  0  0  0  0  0  0  0  0  0  0
    1.1775  -11.2233    1.8407 C   0  0  0  0  0  0  0  0  0  0  0  0
    1.9057  -12.1147    2.3397 C   0  0  1  0  0  0  0  0  0  0  0  0
    1.8570  -12.2582    3.5930 C   0  0  0  0  0  0  0  0  0  0  0  0
    1.7771  -13.4969    1.6993 C   0  0  0  0  0  0  0  0  0  0  0  0
    1.6782   -5.1631    3.8986 O   0  0  0  0  0  0  0  0  0  0  0  0
    1.4047   -4.8305    1.6639 O   0  0  0  0  0  0  0  0  0  0  0  0
    2.4579  -11.1234    4.1622 O   0  0  0  0  0  0  0  0  0  0  0  0
    2.7326  -14.2850    1.9082 O   0  0  0  0  0  0  0  0  0  0  0  0
    0.9116  -13.7941    0.8998 O   0  0  0  0  0  0  0  0  0  0  0  0
    1.5488   -9.4703   -0.3162 O   0  0  0  0  0  0  0  0  0  0  0  0
    1.6347   -8.7685   -1.5087 C   0  0  0  0  0  0  0  0  0  0  0  0
    0.5641   -8.5437   -1.9928 C   0  0  0  0  0  0  0  0  0  0  0  0
  6  7  1  0
  3  8  1  0
  9  8  1  6
  9 10  1  0
  9 11  1  0
  7 12  1  0
  7 13  2  0
 10 14  1  0
 11 15  1  0
 11 16  2  0
  4 17  1  0
 17 18  1  0
 18 19  1  0
  1  2  2  0
  2  3  1  0
  3  4  2  0
  4  5  1  0
  5  6  2  0
  1  6  1  0
M  END

$$$$
No_66-/export/home/yangzhenyu/potential_scad_32_flow//YTHDC2/2024-12-06-03-22-00/
     RDKit          3D

 19 19  0  0  1  0  0  0  0  0999 V2000
    1.1787   -8.0297    3.5154 C   0  0  0  0  0  0  0  0  0  0  0  0
    1.0491   -6.8434    2.9820 C   0  0  1  0  0  0  0  0  0  0  0  0
    1.9985   -8.9840    2.8958 C   0  0  0  0  0  0  0  0  0  0  0  0
    1.9135  -10.3404    3.6266 C   0  0  0  0  0  0  0  0  0  0  0  0
    0.9460  -10.6347    4.5748 C   0  0  0  0  0  0  0  0  0  0  0  0
   -0.0977   -9.6850    4.6652 C   0  0  0  0  0  0  0  0  0  0  0  0
   -0.0465   -8.4791    4.1040 C   0  0  0  0  0  0  0  0  0  0  0  0
    1.1124   -5.6985    3.4928 P   0  0  2  0  0  0  0  0  0  0  0  0
    0.9878   -4.4300    2.8498 O   0  0  0  0  0  0  0  0  0  0  0  0
    2.6346   -5.4903    3.9982 O   0  0  0  0  0  0  0  0  0  0  0  0
    0.8672  -11.9269    4.8002 O   0  0  0  0  0  0  0  0  0  0  0  0
   -1.0477   -7.6990    4.3106 N   0  0  0  0  0  0  0  0  0  0  0  0
    2.9677  -11.2471    3.3720 C   0  0  0  0  0  0  0  0  0  0  0  0
    2.8533  -11.9640    2.3889 N   0  0  0  0  0  0  0  0  0  0  0  0
    3.9968  -11.3054    4.2799 C   0  0  0  0  0  0  0  0  0  0  0  0
    4.0785  -10.4900    5.3077 O   0  0  0  0  0  0  0  0  0  0  0  0
    1.0993   -6.7374    1.3935 C   0  0  0  0  0  0  0  0  0  0  0  0
    0.6906   -7.7703    0.5973 C   0  0  0  0  0  0  0  0  0  0  0  0
    2.0460  -11.8732    1.7888 H   0  0  0  0  0  0  0  0  0  0  0  0
  1  2  1  0
  2  8  1  0
  8  9  2  0
  8 10  1  6
  5 11  1  0
  4 13  1  0
 13 14  2  0
 13 15  1  0
 15 16  2  0
  2 17  1  6
 17 18  1  0
  7 12  1  0
  1  3  2  0
  3  4  1  0
  4  5  2  0
  5  6  1  0
  6  7  2  0
  1  7  1  0
 14 19  1  0
M  END

$$$$
No_67-/export/home/yangzhenyu/potential_scad_32_flow//YTHDC2/2024-12-06-03-22-00/
     RDKit          3D

 18 18  0  0  0  0  0  0  0  0999 V2000
    1.1787   -8.0297    3.5154 C   0  0  0  0  0  0  0  0  0  0  0  0
    1.1048   -9.2215    3.2892 C   0  0  0  0  0  0  0  0  0  0  0  0
    1.3627  -10.1721    4.3044 C   0  0  0  0  0  0  0  0  0  0  0  0
    1.7354  -11.4730    3.9024 C   0  0  0  0  0  0  0  0  0  0  0  0
    1.8080  -11.8127    2.7216 C   0  0  0  0  0  0  0  0  0  0  0  0
    1.5854  -11.0021    1.7249 C   0  0  0  0  0  0  0  0  0  0  0  0
    1.3573   -9.7389    1.9287 C   0  0  0  0  0  0  0  0  0  0  0  0
    1.2865   -8.8078    0.9161 C   0  0  0  0  0  0  0  0  0  0  0  0
    1.6845   -9.1638   -0.2896 C   0  0  0  0  0  0  0  0  0  0  0  0
    2.0917  -13.3473    2.3482 C   0  0  0  0  0  0  0  0  0  0  0  0
    1.6805   -8.1277   -1.3864 O   0  0  0  0  0  0  0  0  0  0  0  0
    2.3225  -13.6664    1.0788 O   0  0  0  0  0  0  0  0  0  0  0  0
    2.0563  -14.2633    3.2078 O   0  0  0  0  0  0  0  0  0  0  0  0
    2.2445   -7.1521    3.6255 O   0  0  0  0  0  0  0  0  0  0  0  0
   -0.0324   -7.4386    3.5428 O   0  0  0  0  0  0  0  0  0  0  0  0
    2.3180  -10.1855   -0.6787 O   0  0  0  0  0  0  0  0  0  0  0  0
    1.6807  -15.5389    2.8308 C   0  0  0  0  0  0  0  0  0  0  0  0
    0.3213  -15.9014    2.9895 C   0  0  0  0  0  0  0  0  0  0  0  0
  1  2  1  0
  7  8  1  0
  8  9  2  3
  5 10  1  0
  9 11  1  0
 10 12  2  0
 10 13  1  0
  1 14  1  0
  1 15  2  0
  9 16  1  0
 13 17  1  0
 17 18  1  0
  2  3  2  0
  3  4  1  0
  4  5  2  0
  5  6  1  0
  6  7  2  0
  2  7  1  0
M  END

$$$$
No_68-/export/home/yangzhenyu/potential_scad_32_flow//YTHDC2/2024-12-06-03-22-00/
     RDKit          3D

 16 16  0  0  1  0  0  0  0  0999 V2000
    1.1787   -8.0297    3.5154 C   0  0  0  0  0  0  0  0  0  0  0  0
    1.1048   -9.2215    3.2892 Cl  0  0  0  0  0  0  0  0  0  0  0  0
    1.1053   -7.0623    2.3233 C   0  0  0  0  0  0  0  0  0  0  0  0
    0.9916   -5.7309    2.4267 C   0  0  0  0  0  0  0  0  0  0  0  0
    0.8878   -5.1247    1.0062 C   0  0  0  0  0  0  0  0  0  0  0  0
    0.4966   -5.7952    0.1189 C   0  0  0  0  0  0  0  0  0  0  0  0
    0.4308   -7.0588    0.1452 C   0  0  0  0  0  0  0  0  0  0  0  0
    0.7665   -7.8605    1.2577 C   0  0  0  0  0  0  0  0  0  0  0  0
    0.9075   -3.5541    1.3469 Br  0  0  0  0  0  0  0  0  0  0  0  0
    0.1421   -7.9416   -0.9986 O   0  0  0  0  0  0  0  0  0  0  0  0
   -0.5036   -9.0796   -0.8215 C   0  0  2  0  0  0  0  0  0  0  0  0
   -1.5623   -9.1119   -0.7608 I   0  0  0  0  0  0  0  0  0  0  0  0
    0.4932  -10.1689   -0.5569 C   0  0  0  0  0  0  0  0  0  0  0  0
    1.9072   -9.9973   -0.4876 O   0  0  0  0  0  0  0  0  0  0  0  0
    0.1163  -11.4079   -0.3963 O   0  0  0  0  0  0  0  0  0  0  0  0
    1.4451   -5.1030    3.5590 Cl  0  0  0  0  0  0  0  0  0  0  0  0
  1  2  1  0
  1  3  1  0
  5  9  1  0
  7 10  1  0
 10 11  1  0
 11 12  1  1
 11 13  1  0
 13 14  2  0
 13 15  1  0
  4 16  1  0
  3  4  2  0
  4  5  1  0
  5  6  2  0
  6  7  1  0
  7  8  2  0
  3  8  1  0
M  END

$$$$
No_69-/export/home/yangzhenyu/potential_scad_32_flow//YTHDC2/2024-12-06-03-22-00/
     RDKit          3D

 18 19  0  0  1  0  0  0  0  0999 V2000
    1.1787   -8.0297    3.5154 O   0  0  0  0  0  0  0  0  0  0  0  0
    0.6747   -7.4019    2.7838 C   0  0  0  0  0  0  0  0  0  0  0  0
    0.7594   -8.0032    1.4295 C   0  0  2  0  0  0  0  0  0  0  0  0
    0.3459   -9.1500    1.3581 C   0  0  0  0  0  0  0  0  0  0  0  0
    0.9462   -9.9230    0.3351 C   0  0  0  0  0  0  0  0  0  0  0  0
    1.6884   -9.1549   -0.6693 C   0  0  0  0  0  0  0  0  0  0  0  0
    2.2919   -7.9289   -0.4546 C   0  0  0  0  0  0  0  0  0  0  0  0
    1.8021   -7.1760    0.6858 C   0  0  0  0  0  0  0  0  0  0  0  0
    0.6771  -11.1152    0.0462 O   0  0  0  0  0  0  0  0  0  0  0  0
   -0.5702   -9.7179    2.0237 C   0  0  0  0  0  0  0  0  0  0  0  0
   -1.9027   -9.3911    1.9969 C   0  0  0  0  0  0  0  0  0  0  0  0
   -2.2243   -8.2847    1.0447 C   0  0  0  0  0  0  0  0  0  0  0  0
   -2.7651   -7.1434    1.3817 C   0  0  0  0  0  0  0  0  0  0  0  0
   -2.9460   -6.1653    0.4159 C   0  0  0  0  0  0  0  0  0  0  0  0
   -2.9854   -6.5107   -0.8652 C   0  0  0  0  0  0  0  0  0  0  0  0
   -2.4839   -7.6891   -1.2771 C   0  0  0  0  0  0  0  0  0  0  0  0
   -2.0811   -8.6707   -0.3461 C   0  0  0  0  0  0  0  0  0  0  0  0
    0.3794   -6.1953    3.0585 O   0  0  0  0  0  0  0  0  0  0  0  0
  1  2  1  0
  3  2  1  1
  3  4  1  0
  4  5  1  0
  5  6  1  0
  6  7  1  0
  3  8  1  0
  7  8  1  0
  5  9  2  0
  4 10  1  0
 10 11  2  3
 11 12  1  0
  2 18  2  0
 12 13  2  0
 13 14  1  0
 14 15  2  0
 15 16  1  0
 16 17  2  0
 12 17  1  0
M  END

$$$$
No_70-/export/home/yangzhenyu/potential_scad_32_flow//YTHDC2/2024-12-06-03-22-00/
     RDKit          3D

 18 18  0  0  1  0  0  0  0  0999 V2000
    1.1787   -8.0297    3.5154 C   0  0  0  0  0  0  0  0  0  0  0  0
    1.0491   -6.8434    2.9820 C   0  0  0  0  0  0  0  0  0  0  0  0
    1.9985   -8.9840    2.8958 C   0  0  2  0  0  0  0  0  0  0  0  0
    1.7297   -9.2108    1.6335 C   0  0  0  0  0  0  0  0  0  0  0  0
    1.7343   -8.0566    0.8408 C   0  0  2  0  0  0  0  0  0  0  0  0
    1.0269   -6.8892    1.4456 C   0  0  0  0  0  0  0  0  0  0  0  0
    2.0740   -7.9416   -0.3682 C   0  0  0  0  0  0  0  0  0  0  0  0
    2.2588   -9.0634   -1.1089 C   0  0  0  0  0  0  0  0  0  0  0  0
    3.4999   -9.2524   -1.6422 O   0  0  0  0  0  0  0  0  0  0  0  0
    2.3628  -10.1665    3.6635 C   0  0  0  0  0  0  0  0  0  0  0  0
    1.5480  -11.0791    4.1341 O   0  0  0  0  0  0  0  0  0  0  0  0
    3.6716  -10.5157    3.7930 N   0  0  0  0  0  0  0  0  0  0  0  0
    1.5868   -9.9496   -1.0927 O   0  0  0  0  0  0  0  0  0  0  0  0
    0.6619   -5.8128    0.8562 O   0  0  0  0  0  0  0  0  0  0  0  0
    4.1429  -11.2070    4.9477 C   0  0  0  0  0  0  0  0  0  0  0  0
    5.5024  -11.0759    5.0213 O   0  0  0  0  0  0  0  0  0  0  0  0
    0.9073   -5.6742    3.5079 O   0  0  0  0  0  0  0  0  0  0  0  0
    1.8022  -10.4053    1.1481 O   0  0  0  0  0  0  0  0  0  0  0  0
  1  2  1  0
  1  3  1  0
  3  4  1  0
  4  5  1  0
  2  6  1  0
  5  6  1  0
  5  7  1  6
  7  8  1  0
  8  9  2  0
  3 10  1  1
 10 11  2  0
 10 12  1  0
  8 13  1  0
  6 14  2  0
 12 15  1  0
 15 16  2  0
  2 17  2  0
  4 18  2  0
M  END

$$$$
No_71-/export/home/yangzhenyu/potential_scad_32_flow//YTHDC2/2024-12-06-03-22-00/
     RDKit          3D

 18 17  0  0  1  0  0  0  0  0999 V2000
    1.1787   -8.0297    3.5154 O   0  0  0  0  0  0  0  0  0  0  0  0
    0.6747   -7.4019    2.7838 P   0  0  1  0  0  0  0  0  0  0  0  0
    1.3630   -7.6347    1.4390 O   0  0  0  0  0  0  0  0  0  0  0  0
   -0.8301   -7.8863    2.4897 O   0  0  0  0  0  0  0  0  0  0  0  0
    0.6580   -5.7772    2.9447 O   0  0  0  0  0  0  0  0  0  0  0  0
    0.8103   -4.6938    2.1641 C   0  0  0  0  0  0  0  0  0  0  0  0
    0.3474   -3.4382    2.4824 C   0  0  1  0  0  0  0  0  0  0  0  0
    1.3066   -2.7814    3.3409 C   0  0  0  0  0  0  0  0  0  0  0  0
    0.0590   -2.6675    1.3036 C   0  0  0  0  0  0  0  0  0  0  0  0
   -0.9246   -2.9846    0.4838 C   0  0  0  0  0  0  0  0  0  0  0  0
   -0.7254   -3.0170   -0.8115 O   0  0  0  0  0  0  0  0  0  0  0  0
   -2.1265   -3.2956    0.9155 O   0  0  0  0  0  0  0  0  0  0  0  0
    1.5834   -9.4359    3.5173 C   0  0  0  0  0  0  0  0  0  0  0  0
    0.7257  -10.4807    3.8717 C   0  0  0  0  0  0  0  0  0  0  0  0
    1.0500  -11.8266    3.7963 C   0  0  0  0  0  0  0  0  0  0  0  0
    0.3837  -12.4875    2.7711 C   0  0  0  0  0  0  0  0  0  0  0  0
   -0.6284  -11.9448    2.2882 C   0  0  0  0  0  0  0  0  0  0  0  0
   -1.1999  -12.7629    1.2134 C   0  0  0  0  0  0  0  0  0  0  0  0
  1  2  1  0
  2  3  2  0
  2  4  1  6
  2  5  1  0
  5  6  1  0
  6  7  1  0
  7  8  1  6
  7  9  1  0
  9 10  1  0
 10 11  2  0
 10 12  1  0
  1 13  1  0
 13 14  1  0
 14 15  1  0
 15 16  1  0
 16 17  1  0
 17 18  2  0
M  END

$$$$
No_72-/export/home/yangzhenyu/potential_scad_32_flow//YTHDC2/2024-12-06-03-22-00/
     RDKit          3D

 19 20  0  0  1  0  0  0  0  0999 V2000
    1.1787   -8.0297    3.5154 O   0  0  0  0  0  0  0  0  0  0  0  0
    0.9969   -8.9689    3.0048 C   0  0  1  0  0  0  0  0  0  0  0  0
    0.9976   -8.9567    1.6341 C   0  0  0  0  0  0  0  0  0  0  0  0
    0.7663   -7.7728    1.0082 C   0  0  1  0  0  0  0  0  0  0  0  0
    1.1468   -6.5619    1.6541 C   0  0  0  0  0  0  0  0  0  0  0  0
    1.3592   -6.6155    3.0007 C   0  0  0  0  0  0  0  0  0  0  0  0
    0.9781  -10.1276    3.6866 C   0  0  0  0  0  0  0  0  0  0  0  0
   -0.1772  -10.7865    4.0343 C   0  0  0  0  0  0  0  0  0  0  0  0
    2.1937  -10.7840    4.0491 C   0  0  0  0  0  0  0  0  0  0  0  0
    0.4440   -7.6906   -0.2521 C   0  0  0  0  0  0  0  0  0  0  0  0
    0.2348   -7.0489   -0.9947 C   0  0  0  0  0  0  0  0  0  0  0  0
   -0.5602   -7.3781   -2.2433 C   0  0  0  0  0  0  0  0  0  0  0  0
   -0.8362   -8.8947   -2.3114 O   0  0  0  0  0  0  0  0  0  0  0  0
   -0.9549   -6.7884   -3.2832 O   0  0  0  0  0  0  0  0  0  0  0  0
    1.3341  -10.0916    0.9301 O   0  0  0  0  0  0  0  0  0  0  0  0
    2.2007  -12.1022    4.2391 N   0  0  0  0  0  0  0  0  0  0  0  0
   -0.1458  -12.0941    4.4153 C   0  0  0  0  0  0  0  0  0  0  0  0
    0.9848  -12.8013    4.4441 C   0  0  0  0  0  0  0  0  0  0  0  0
    1.6637   -5.6296    3.7369 O   0  0  0  0  0  0  0  0  0  0  0  0
  1  2  1  0
  2  3  1  0
  3  4  1  0
  4  5  1  6
  1  6  1  0
  5  6  1  0
  2  7  1  6
  4 10  1  0
 10 11  2  3
 11 12  1  0
 12 13  2  0
 12 14  1  0
  3 15  2  0
  6 19  2  0
  7  8  2  0
  8 17  1  0
 17 18  2  0
 16 18  1  0
  9 16  2  0
  7  9  1  0
M  END

$$$$
No_73-/export/home/yangzhenyu/potential_scad_32_flow//YTHDC2/2024-12-06-03-22-00/
     RDKit          3D

 18 19  0  0  1  0  0  0  0  0999 V2000
    1.1787   -8.0297    3.5154 S   0  0  0  0  0  0  0  0  0  0  0  0
    0.9303   -9.3504    3.2709 C   0  0  0  0  0  0  0  0  0  0  0  0
    1.5236  -10.2642    4.1775 C   0  0  0  0  0  0  0  0  0  0  0  0
    0.5184   -7.2780    2.2552 C   0  0  1  0  0  0  0  0  0  0  0  0
    0.6563   -5.8333    2.1002 F   0  0  0  0  0  0  0  0  0  0  0  0
    1.3786  -11.6351    4.0985 C   0  0  0  0  0  0  0  0  0  0  0  0
    0.4835  -12.0357    3.1398 C   0  0  0  0  0  0  0  0  0  0  0  0
   -0.1609  -11.1572    2.3062 C   0  0  0  0  0  0  0  0  0  0  0  0
    0.1260   -9.8443    2.3719 C   0  0  0  0  0  0  0  0  0  0  0  0
    0.0045   -7.8752    1.2702 C   0  0  1  0  0  0  0  0  0  0  0  0
   -0.3483   -9.1539    1.2606 C   0  0  0  0  0  0  0  0  0  0  0  0
   -0.5705   -7.0914    0.2961 C   0  0  0  0  0  0  0  0  0  0  0  0
   -0.9189   -9.6758    0.2056 O   0  0  0  0  0  0  0  0  0  0  0  0
   -1.6189   -6.2373    0.5582 C   0  0  2  0  0  0  0  0  0  0  0  0
   -2.4673   -6.4191    1.6079 F   0  0  0  0  0  0  0  0  0  0  0  0
   -2.5611   -5.9251   -0.4333 C   0  0  0  0  0  0  0  0  0  0  0  0
   -2.3427   -6.2225   -1.5714 O   0  0  0  0  0  0  0  0  0  0  0  0
   -3.7531   -5.4242   -0.2154 O   0  0  0  0  0  0  0  0  0  0  0  0
  1  2  1  0
  1  4  1  0
  4  5  1  6
  4 10  1  0
  9 11  1  0
 10 11  1  0
 10 12  1  1
 11 13  2  0
 12 14  1  0
 14 15  1  1
 14 16  1  0
 16 17  2  0
 16 18  1  0
  2  3  2  0
  3  6  1  0
  6  7  2  0
  7  8  1  0
  8  9  2  0
  2  9  1  0
M  END

$$$$
No_74-/export/home/yangzhenyu/potential_scad_32_flow//YTHDC2/2024-12-06-03-22-00/
     RDKit          3D

 18 18  0  0  0  0  0  0  0  0999 V2000
    1.1787   -8.0297    3.5154 C   0  0  0  0  0  0  0  0  0  0  0  0
    1.1048   -9.2215    3.2892 C   0  0  0  0  0  0  0  0  0  0  0  0
    1.3627  -10.1721    4.3044 C   0  0  0  0  0  0  0  0  0  0  0  0
    1.7354  -11.4730    3.9023 C   0  0  0  0  0  0  0  0  0  0  0  0
    1.8080  -11.8127    2.7216 C   0  0  0  0  0  0  0  0  0  0  0  0
    1.5854  -11.0021    1.7249 C   0  0  0  0  0  0  0  0  0  0  0  0
    1.3573   -9.7389    1.9287 C   0  0  0  0  0  0  0  0  0  0  0  0
    1.1102   -8.8712    0.9017 C   0  0  0  0  0  0  0  0  0  0  0  0
    1.5724   -9.1697   -0.3048 C   0  0  0  0  0  0  0  0  0  0  0  0
    1.2378   -8.2159   -1.4226 N   0  0  0  0  0  0  0  0  0  0  0  0
    2.0637  -13.2083    2.3285 C   0  0  0  0  0  0  0  0  0  0  0  0
    1.9087  -14.2496    3.1761 O   0  0  0  0  0  0  0  0  0  0  0  0
    2.8347  -13.4151    1.2575 O   0  0  0  0  0  0  0  0  0  0  0  0
    0.9518   -7.0655    2.5816 O   0  0  0  0  0  0  0  0  0  0  0  0
    1.4497   -7.5256    4.6616 O   0  0  0  0  0  0  0  0  0  0  0  0
   -0.0057   -8.1315   -1.6527 C   0  0  0  0  0  0  0  0  0  0  0  0
   -0.9730   -8.0573   -0.6463 O   0  0  0  0  0  0  0  0  0  0  0  0
   -0.3897   -7.7636   -2.9931 O   0  0  0  0  0  0  0  0  0  0  0  0
  1  2  1  0
  7  8  1  0
  8  9  2  3
  9 10  1  0
  5 11  1  0
 11 12  1  0
 11 13  2  0
  1 14  2  0
  1 15  1  0
 10 16  2  3
 16 17  1  0
 16 18  1  0
  2  3  2  0
  3  4  1  0
  4  5  2  0
  5  6  1  0
  6  7  2  0
  2  7  1  0
M  END

$$$$
No_75-/export/home/yangzhenyu/potential_scad_32_flow//YTHDC2/2024-12-06-03-22-00/
     RDKit          3D

 18 18  0  0  1  0  0  0  0  0999 V2000
    1.1787   -8.0297    3.5154 O   0  0  0  0  0  0  0  0  0  0  0  0
    0.9969   -8.9689    3.0048 C   0  0  0  0  0  0  0  0  0  0  0  0
    1.4315  -10.1310    3.5523 C   0  0  0  0  0  0  0  0  0  0  0  0
    1.3751  -11.3715    2.9098 C   0  0  1  0  0  0  0  0  0  0  0  0
    0.9638  -11.4041    1.6414 C   0  0  0  0  0  0  0  0  0  0  0  0
    0.5025  -10.3377    0.9928 C   0  0  0  0  0  0  0  0  0  0  0  0
    0.5777   -9.1031    1.6704 C   0  0  0  0  0  0  0  0  0  0  0  0
    0.1835   -7.8549    1.0870 C   0  0  0  0  0  0  0  0  0  0  0  0
    0.9471   -6.9764    0.7835 C   0  0  2  0  0  0  0  0  0  0  0  0
    2.2717   -7.2539    0.4560 C   0  0  0  0  0  0  0  0  0  0  0  0
    0.5578   -5.6234    0.9880 C   0  0  0  0  0  0  0  0  0  0  0  0
    1.7962  -12.6125    3.4807 C   0  0  0  0  0  0  0  0  0  0  0  0
    1.6376  -13.8256    2.6209 C   0  0  0  0  0  0  0  0  0  0  0  0
    0.6521  -14.6435    2.8484 C   0  0  0  0  0  0  0  0  0  0  0  0
   -0.3865  -14.4830    2.3105 O   0  0  0  0  0  0  0  0  0  0  0  0
    0.7500  -15.5162    3.8795 O   0  0  0  0  0  0  0  0  0  0  0  0
   -0.0593   -5.2005    2.0956 C   0  0  0  0  0  0  0  0  0  0  0  0
   -0.3326   -3.6870    2.3609 Br  0  0  0  0  0  0  0  0  0  0  0  0
  1  2  2  0
  2  3  1  0
  4  5  1  0
  2  7  1  0
  6  7  1  0
  7  8  1  0
  8  9  1  0
  9 10  1  1
  9 11  1  0
  4 12  1  6
 12 13  1  0
 13 14  1  0
 14 15  2  0
 14 16  1  0
 11 17  1  0
 17 18  1  0
  3  4  1  0
  5  6  1  0
M  END

$$$$
No_76-/export/home/yangzhenyu/potential_scad_32_flow//YTHDC2/2024-12-06-03-22-00/
     RDKit          3D

 18 19  0  0  0  0  0  0  0  0999 V2000
    1.1787   -8.0297    3.5154 C   0  0  0  0  0  0  0  0  0  0  0  0
    1.1048   -9.2215    3.2892 C   0  0  0  0  0  0  0  0  0  0  0  0
    1.2339   -9.7611    2.0189 C   0  0  0  0  0  0  0  0  0  0  0  0
    1.1954  -11.2312    1.8661 C   0  0  0  0  0  0  0  0  0  0  0  0
    1.2996  -11.5815    0.5387 C   0  0  0  0  0  0  0  0  0  0  0  0
    1.3263   -7.1208    2.3229 C   0  0  0  0  0  0  0  0  0  0  0  0
    1.3693   -7.6408    1.0625 C   0  0  0  0  0  0  0  0  0  0  0  0
    1.4358   -8.9950    0.8622 C   0  0  0  0  0  0  0  0  0  0  0  0
    1.6034  -10.8414   -0.4738 C   0  0  0  0  0  0  0  0  0  0  0  0
    1.5954   -9.4621   -0.3677 C   0  0  0  0  0  0  0  0  0  0  0  0
    1.7632   -8.6946   -1.3816 O   0  0  0  0  0  0  0  0  0  0  0  0
    1.0984  -11.9477    2.9564 C   0  0  0  0  0  0  0  0  0  0  0  0
    0.3350  -13.0124    2.9857 C   0  0  0  0  0  0  0  0  0  0  0  0
    0.8628  -14.2223    3.6492 C   0  0  0  0  0  0  0  0  0  0  0  0
    2.0763  -14.7410    3.2549 C   0  0  0  0  0  0  0  0  0  0  0  0
    2.3665  -16.0662    3.2836 C   0  0  0  0  0  0  0  0  0  0  0  0
    1.7046  -16.9752    3.9236 O   0  0  0  0  0  0  0  0  0  0  0  0
    3.4145  -16.6269    2.6219 O   0  0  0  0  0  0  0  0  0  0  0  0
  3  4  1  0
  4  5  1  0
  8 10  1  0
  9 10  1  0
 10 11  2  0
  4 12  1  0
 12 13  2  3
 13 14  1  0
 14 15  2  3
 15 16  1  0
 16 17  1  0
 16 18  2  0
  5  9  1  0
  1  2  2  0
  2  3  1  0
  3  8  2  0
  7  8  1  0
  6  7  2  0
  1  6  1  0
M  END

$$$$
No_77-/export/home/yangzhenyu/potential_scad_32_flow//YTHDC2/2024-12-06-03-22-00/
     RDKit          3D

 19 19  0  0  0  0  0  0  0  0999 V2000
    1.1787   -8.0297    3.5154 C   0  0  0  0  0  0  0  0  0  0  0  0
    1.1048   -9.2215    3.2892 C   0  0  0  0  0  0  0  0  0  0  0  0
    1.3627  -10.1721    4.3044 C   0  0  0  0  0  0  0  0  0  0  0  0
    1.7354  -11.4730    3.9023 C   0  0  0  0  0  0  0  0  0  0  0  0
    1.8080  -11.8127    2.7216 C   0  0  0  0  0  0  0  0  0  0  0  0
    1.5854  -11.0021    1.7249 C   0  0  0  0  0  0  0  0  0  0  0  0
    1.3573   -9.7389    1.9287 C   0  0  0  0  0  0  0  0  0  0  0  0
    1.2865   -8.8078    0.9161 C   0  0  0  0  0  0  0  0  0  0  0  0
    1.6845   -9.1638   -0.2896 C   0  0  0  0  0  0  0  0  0  0  0  0
    2.0771  -13.2284    2.3629 C   0  0  0  0  0  0  0  0  0  0  0  0
    2.4409  -13.5750    1.0743 O   0  0  0  0  0  0  0  0  0  0  0  0
    2.0821  -14.1980    3.2340 O   0  0  0  0  0  0  0  0  0  0  0  0
    1.6355   -8.1272   -1.3715 C   0  0  0  0  0  0  0  0  0  0  0  0
    0.9447   -7.0659    2.6222 O   0  0  0  0  0  0  0  0  0  0  0  0
    0.6644   -7.9594   -1.7776 O   0  0  0  0  0  0  0  0  0  0  0  0
    2.7688   -7.8507   -1.8427 O   0  0  0  0  0  0  0  0  0  0  0  0
    1.4269   -7.5376    4.6583 O   0  0  0  0  0  0  0  0  0  0  0  0
    1.6011  -15.4210    2.8864 C   0  0  0  0  0  0  0  0  0  0  0  0
    0.2262  -15.6142    2.9736 C   0  0  0  0  0  0  0  0  0  0  0  0
  1  2  1  0
  7  8  1  0
  8  9  2  3
  5 10  1  0
 10 11  2  0
 10 12  1  0
  9 13  1  0
  1 14  2  0
 13 15  2  0
 13 16  1  0
  1 17  1  0
 12 18  1  0
 18 19  1  0
  2  3  2  0
  3  4  1  0
  4  5  2  0
  5  6  1  0
  6  7  2  0
  2  7  1  0
M  END

$$$$
No_78-/export/home/yangzhenyu/potential_scad_32_flow//YTHDC2/2024-12-06-03-22-00/
     RDKit          3D

 19 19  0  0  0  0  0  0  0  0999 V2000
    1.1787   -8.0297    3.5154 C   0  0  0  0  0  0  0  0  0  0  0  0
    1.1048   -9.2215    3.2892 C   0  0  0  0  0  0  0  0  0  0  0  0
    1.3627  -10.1721    4.3044 C   0  0  0  0  0  0  0  0  0  0  0  0
    1.7354  -11.4730    3.9023 C   0  0  0  0  0  0  0  0  0  0  0  0
    1.8080  -11.8127    2.7216 C   0  0  0  0  0  0  0  0  0  0  0  0
    1.5854  -11.0021    1.7249 C   0  0  0  0  0  0  0  0  0  0  0  0
    1.3573   -9.7389    1.9287 C   0  0  0  0  0  0  0  0  0  0  0  0
    1.1102   -8.8712    0.9017 C   0  0  0  0  0  0  0  0  0  0  0  0
    1.5724   -9.1697   -0.3048 C   0  0  0  0  0  0  0  0  0  0  0  0
    1.2378   -8.2159   -1.4226 O   0  0  0  0  0  0  0  0  0  0  0  0
    2.1031  -13.4009    2.2918 C   0  0  0  0  0  0  0  0  0  0  0  0
    1.9809  -14.3023    3.1814 O   0  0  0  0  0  0  0  0  0  0  0  0
    2.2738  -13.6504    1.0579 O   0  0  0  0  0  0  0  0  0  0  0  0
    2.2808   -7.1587    3.5646 O   0  0  0  0  0  0  0  0  0  0  0  0
   -0.0089   -7.4370    3.5974 O   0  0  0  0  0  0  0  0  0  0  0  0
    2.5473   -9.9617   -0.6503 O   0  0  0  0  0  0  0  0  0  0  0  0
    1.9266  -15.6157    2.7746 C   0  0  0  0  0  0  0  0  0  0  0  0
    0.8000  -16.2781    2.9185 C   0  0  0  0  0  0  0  0  0  0  0  0
   -0.1805  -15.5631    3.1224 O   0  0  0  0  0  0  0  0  0  0  0  0
  1  2  1  0
  7  8  1  0
  8  9  2  3
  9 10  1  0
  5 11  1  0
 11 12  1  0
 11 13  2  0
  1 14  1  0
  1 15  2  0
  9 16  1  0
 12 17  1  0
 17 18  1  0
 18 19  2  0
  2  3  2  0
  3  4  1  0
  4  5  2  0
  5  6  1  0
  6  7  2  0
  2  7  1  0
M  END

$$$$
No_79-/export/home/yangzhenyu/potential_scad_32_flow//YTHDC2/2024-12-06-03-22-00/
     RDKit          3D

 19 21  0  0  0  0  0  0  0  0999 V2000
    1.1787   -8.0297    3.5154 C   0  0  0  0  0  0  0  0  0  0  0  0
    1.1048   -9.2215    3.2892 C   0  0  0  0  0  0  0  0  0  0  0  0
    1.3627  -10.1721    4.3044 C   0  0  0  0  0  0  0  0  0  0  0  0
    1.7354  -11.4730    3.9023 C   0  0  0  0  0  0  0  0  0  0  0  0
    1.8080  -11.8127    2.7216 C   0  0  0  0  0  0  0  0  0  0  0  0
    1.5854  -11.0021    1.7249 C   0  0  0  0  0  0  0  0  0  0  0  0
    1.3573   -9.7389    1.9287 C   0  0  0  0  0  0  0  0  0  0  0  0
    1.2865   -8.8078    0.9161 C   0  0  0  0  0  0  0  0  0  0  0  0
    0.9210   -7.5140    1.1674 C   0  0  0  0  0  0  0  0  0  0  0  0
    0.9034   -6.6155    0.0533 S   0  0  0  0  0  0  0  0  0  0  0  0
    1.0693   -7.1331    2.6332 C   0  0  0  0  0  0  0  0  0  0  0  0
   -0.5635   -6.2711    0.2664 N   0  0  0  0  0  0  0  0  0  0  0  0
    2.0464  -13.2760    2.4449 C   0  0  0  0  0  0  0  0  0  0  0  0
    2.5364  -13.7802    1.4355 N   0  0  0  0  0  0  0  0  0  0  0  0
    1.6415  -14.2308    3.3680 N   0  0  0  0  0  0  0  0  0  0  0  0
    1.5182   -5.4115    0.5709 O   0  0  0  0  0  0  0  0  0  0  0  0
    1.6037  -15.5037    2.9856 C   0  0  0  0  0  0  0  0  0  0  0  0
    2.2331  -15.7242    1.8710 N   0  0  0  0  0  0  0  0  0  0  0  0
    2.7062  -14.9774    1.1248 C   0  0  0  0  0  0  0  0  0  0  0  0
  9 10  1  0
 10 12  1  1
  5 13  1  0
 10 16  2  0
  2  3  1  0
  3  4  2  0
  4  5  1  0
  5  6  2  0
  6  7  1  0
  1  2  2  0
  2  7  1  0
  7  8  2  0
  8  9  1  0
  9 11  2  0
  1 11  1  0
 13 14  2  0
 14 19  1  0
 18 19  2  0
 17 18  1  0
 15 17  2  0
 13 15  1  0
M  END

$$$$
No_80-/export/home/yangzhenyu/potential_scad_32_flow//YTHDC2/2024-12-06-03-22-00/
     RDKit          3D

 18 18  0  0  0  0  0  0  0  0999 V2000
    1.1787   -8.0297    3.5154 C   0  0  0  0  0  0  0  0  0  0  0  0
    1.1048   -9.2215    3.2892 Cl  0  0  0  0  0  0  0  0  0  0  0  0
    1.1053   -7.0623    2.3233 C   0  0  0  0  0  0  0  0  0  0  0  0
    0.9916   -5.7309    2.4267 O   0  0  0  0  0  0  0  0  0  0  0  0
    1.4637   -7.6275    1.2320 O   0  0  0  0  0  0  0  0  0  0  0  0
    0.9475   -4.9041    1.3773 C   0  0  0  0  0  0  0  0  0  0  0  0
    0.2972   -3.5939    1.8363 C   0  0  0  0  0  0  0  0  0  0  0  0
   -0.9662   -3.6097    1.3585 C   0  0  0  0  0  0  0  0  0  0  0  0
   -1.8937   -3.7420    2.2949 C   0  0  0  0  0  0  0  0  0  0  0  0
   -2.6381   -4.8198    2.3333 C   0  0  0  0  0  0  0  0  0  0  0  0
   -2.7010   -5.6338    1.2329 C   0  0  0  0  0  0  0  0  0  0  0  0
   -1.8038   -5.3898    0.1307 C   0  0  0  0  0  0  0  0  0  0  0  0
   -0.9727   -4.4291    0.2303 C   0  0  0  0  0  0  0  0  0  0  0  0
   -1.9047   -6.2621   -0.9459 O   0  0  0  0  0  0  0  0  0  0  0  0
   -2.0605   -5.8954   -2.1251 C   0  0  0  0  0  0  0  0  0  0  0  0
   -2.6180   -4.7289   -2.3690 O   0  0  0  0  0  0  0  0  0  0  0  0
   -1.7534   -6.6463   -3.1920 N   0  0  0  0  0  0  0  0  0  0  0  0
   -1.1568   -7.9105   -2.9749 C   0  0  0  0  0  0  0  0  0  0  0  0
  1  2  1  0
  1  3  1  0
  3  4  1  0
  3  5  2  0
  4  6  1  0
  6  7  1  0
  7  8  1  0
 12 14  1  0
 14 15  1  0
 15 16  2  0
 15 17  1  0
 17 18  1  0
  8  9  2  0
  9 10  1  0
 10 11  2  0
 11 12  1  0
 12 13  2  0
  8 13  1  0
M  END

$$$$
No_81-/export/home/yangzhenyu/potential_scad_32_flow//YTHDC2/2024-12-06-03-22-00/
     RDKit          3D

 18 18  0  0  1  0  0  0  0  0999 V2000
    1.1787   -8.0297    3.5154 C   0  0  0  0  0  0  0  0  0  0  0  0
    1.0491   -6.8434    2.9820 C   0  0  1  0  0  0  0  0  0  0  0  0
    1.9985   -8.9840    2.8958 C   0  0  0  0  0  0  0  0  0  0  0  0
    1.7297   -9.2108    1.6335 C   0  0  0  0  0  0  0  0  0  0  0  0
    1.7343   -8.0566    0.8408 C   0  0  2  0  0  0  0  0  0  0  0  0
    1.0269   -6.8892    1.4456 C   0  0  0  0  0  0  0  0  0  0  0  0
    2.0740   -7.9416   -0.3682 C   0  0  0  0  0  0  0  0  0  0  0  0
    1.3156   -7.8710   -1.3006 C   0  0  0  0  0  0  0  0  0  0  0  0
    3.3154   -8.7798   -0.7558 C   0  0  0  0  0  0  0  0  0  0  0  0
    3.4370   -9.0582   -2.0766 O   0  0  0  0  0  0  0  0  0  0  0  0
    2.4028  -10.1481    3.6663 O   0  0  0  0  0  0  0  0  0  0  0  0
    0.2997   -5.8337    3.4364 C   0  0  0  0  0  0  0  0  0  0  0  0
    0.8180   -4.5125    3.4108 O   0  0  0  0  0  0  0  0  0  0  0  0
   -0.9101   -5.8580    3.6858 O   0  0  0  0  0  0  0  0  0  0  0  0
    0.6240   -5.8380    0.7715 O   0  0  0  0  0  0  0  0  0  0  0  0
    1.8213  -10.3934    1.0875 O   0  0  0  0  0  0  0  0  0  0  0  0
    4.1391   -9.0917    0.0382 O   0  0  0  0  0  0  0  0  0  0  0  0
    0.2513   -3.3038    3.5304 C   0  0  0  0  0  0  0  0  0  0  0  0
  1  2  1  0
  1  3  1  0
  3  4  1  0
  4  5  1  0
  2  6  1  0
  5  6  1  0
  5  7  1  6
  7  8  2  0
  7  9  1  0
  9 10  1  0
  3 11  2  0
  2 12  1  1
 12 13  1  0
 12 14  2  0
  6 15  2  0
  4 16  2  0
  9 17  2  0
 13 18  1  0
M  END

$$$$
No_82-/export/home/yangzhenyu/potential_scad_32_flow//YTHDC2/2024-12-06-03-22-00/
     RDKit          3D

 19 19  0  0  1  0  0  0  0  0999 V2000
    1.1787   -8.0297    3.5154 C   0  0  0  0  0  0  0  0  0  0  0  0
    1.1048   -9.2215    3.2892 C   0  0  0  0  0  0  0  0  0  0  0  0
    1.2339   -9.7611    2.0189 C   0  0  0  0  0  0  0  0  0  0  0  0
    1.3583   -9.0036    0.9764 C   0  0  0  0  0  0  0  0  0  0  0  0
    1.5996   -7.6362    1.1311 C   0  0  0  0  0  0  0  0  0  0  0  0
    1.4830   -7.0928    2.3626 C   0  0  0  0  0  0  0  0  0  0  0  0
    1.5395   -5.7300    2.6182 C   0  0  0  0  0  0  0  0  0  0  0  0
    1.1775  -11.2233    1.8407 C   0  0  1  0  0  0  0  0  0  0  0  0
    0.7252  -11.5870    0.5412 Cl  0  0  0  0  0  0  0  0  0  0  0  0
    2.5836  -11.8143    2.1445 C   0  0  0  0  0  0  0  0  0  0  0  0
    2.2890  -12.9870    3.0379 C   0  0  0  0  0  0  0  0  0  0  0  0
    1.9647  -14.2314    2.3224 O   0  0  0  0  0  0  0  0  0  0  0  0
    1.4939   -5.1308    3.7911 C   0  0  0  0  0  0  0  0  0  0  0  0
    0.9422   -4.9718    1.5650 O   0  0  0  0  0  0  0  0  0  0  0  0
    1.1463  -15.1000    2.9360 C   0  0  2  0  0  0  0  0  0  0  0  0
    1.5600  -16.3717    3.1438 C   0  0  0  0  0  0  0  0  0  0  0  0
    0.7508  -17.2065    3.8193 O   0  0  0  0  0  0  0  0  0  0  0  0
    2.8260  -16.6936    2.9164 O   0  0  0  0  0  0  0  0  0  0  0  0
   -0.0846  -14.7789    2.9753 C   0  0  0  0  0  0  0  0  0  0  0  0
  6  7  1  0
  3  8  1  0
  8  9  1  6
  8 10  1  0
 10 11  1  0
 11 12  1  0
  7 13  1  0
  7 14  2  0
 12 15  1  0
 15 16  1  0
 16 17  2  0
 16 18  1  0
 15 19  1  6
  1  2  2  0
  2  3  1  0
  3  4  2  0
  4  5  1  0
  5  6  2  0
  1  6  1  0
M  END

$$$$
No_83-/export/home/yangzhenyu/potential_scad_32_flow//YTHDC2/2024-12-06-03-22-00/
     RDKit          3D

 16 16  0  0  0  0  0  0  0  0999 V2000
    1.1787   -8.0297    3.5154 N   0  0  0  0  0  0  0  0  0  0  0  0
    1.0818   -9.0751    3.2053 C   0  0  0  0  0  0  0  0  0  0  0  0
    1.5216  -10.1164    3.9747 C   0  0  0  0  0  0  0  0  0  0  0  0
    2.4786  -10.1841    4.6947 C   0  0  0  0  0  0  0  0  0  0  0  0
    1.1207   -6.9611    2.6761 C   0  0  0  0  0  0  0  0  0  0  0  0
    1.1071   -5.6343    3.0594 O   0  0  0  0  0  0  0  0  0  0  0  0
    1.1746   -7.2399    1.3730 O   0  0  0  0  0  0  0  0  0  0  0  0
    2.9536  -11.4045    5.3329 C   0  0  0  0  0  0  0  0  0  0  0  0
    1.0029  -11.4652    3.6455 C   0  0  0  0  0  0  0  0  0  0  0  0
    1.4178  -12.5794    4.1003 C   0  0  0  0  0  0  0  0  0  0  0  0
    2.4947  -12.5754    4.9490 C   0  0  0  0  0  0  0  0  0  0  0  0
    0.7662  -13.7498    3.6239 O   0  0  0  0  0  0  0  0  0  0  0  0
    0.0395  -13.8639    2.6338 C   0  0  0  0  0  0  0  0  0  0  0  0
    0.2065  -15.2848    2.1716 C   0  0  0  0  0  0  0  0  0  0  0  0
    0.9814  -15.9985    2.7610 C   0  0  0  0  0  0  0  0  0  0  0  0
    1.1153  -17.3736    2.3552 C   0  0  0  0  0  0  0  0  0  0  0  0
  1  2  1  0
  2  3  1  0
  1  5  1  0
  5  6  1  0
  5  7  2  0
 10 12  1  0
 12 13  1  0
 13 14  1  0
 14 15  1  0
 15 16  2  0
  3  4  2  0
  4  8  1  0
  8 11  2  0
 10 11  1  0
  9 10  2  0
  3  9  1  0
M  END

$$$$
No_84-/export/home/yangzhenyu/potential_scad_32_flow//YTHDC2/2024-12-06-03-22-00/
     RDKit          3D

 20 20  0  0  1  0  0  0  0  0999 V2000
    1.1787   -8.0297    3.5154 C   0  0  0  0  0  0  0  0  0  0  0  0
    1.0491   -6.8434    2.9820 C   0  0  0  0  0  0  0  0  0  0  0  0
    0.0950   -8.8404    3.2292 C   0  0  0  0  0  0  0  0  0  0  0  0
   -0.9173   -8.4596    2.5152 C   0  0  0  0  0  0  0  0  0  0  0  0
   -1.0331   -7.2162    2.0653 C   0  0  0  0  0  0  0  0  0  0  0  0
   -0.0105   -6.3168    2.3081 C   0  0  0  0  0  0  0  0  0  0  0  0
    0.0485   -4.9783    1.8782 C   0  0  0  0  0  0  0  0  0  0  0  0
   -0.4744   -4.1559    2.2381 O   0  0  0  0  0  0  0  0  0  0  0  0
    1.2121   -4.5911    1.0362 P   0  0  2  0  0  0  0  0  0  0  0  0
    2.1717   -3.8486    1.8049 O   0  0  0  0  0  0  0  0  0  0  0  0
    1.1826   -4.7914   -0.0508 O   0  0  0  0  0  0  0  0  0  0  0  0
    0.1980  -10.2301    3.8223 C   0  0  0  0  0  0  0  0  0  0  0  0
   -0.9921  -10.8992    4.0725 O   0  0  0  0  0  0  0  0  0  0  0  0
    1.2117  -10.6662    4.5566 N   0  0  0  0  0  0  0  0  0  0  0  0
    2.4946  -10.5643    4.0842 C   0  0  0  0  0  0  0  0  0  0  0  0
    2.6471  -10.9631    2.8906 C   0  0  0  0  0  0  0  0  0  0  0  0
    2.0197  -11.8539    2.1424 C   0  0  0  0  0  0  0  0  0  0  0  0
    1.6759  -11.8154    0.7961 C   0  0  0  0  0  0  0  0  0  0  0  0
    0.8724  -12.8132    0.3437 N   0  0  0  0  0  0  0  0  0  0  0  0
    0.5562  -13.5335    0.9772 H   0  0  0  0  0  0  0  0  0  0  0  0
  6  7  1  0
  7  8  2  0
  7  9  1  0
  9 10  1  6
  9 11  2  0
  3 12  1  0
 12 13  2  0
 12 14  1  0
 14 15  1  0
 15 16  1  0
 16 17  1  0
 17 18  1  0
 18 19  2  0
  1  2  2  0
  2  6  1  0
  5  6  2  0
  4  5  1  0
  3  4  2  0
  1  3  1  0
 19 20  1  0
M  END

$$$$
No_85-/export/home/yangzhenyu/potential_scad_32_flow//YTHDC2/2024-12-06-03-22-00/
     RDKit          3D

 18 18  0  0  0  0  0  0  0  0999 V2000
    1.1787   -8.0297    3.5154 C   0  0  0  0  0  0  0  0  0  0  0  0
    1.1048   -9.2215    3.2892 C   0  0  0  0  0  0  0  0  0  0  0  0
    1.3627  -10.1721    4.3044 C   0  0  0  0  0  0  0  0  0  0  0  0
    2.3720  -10.8948    4.2468 C   0  0  0  0  0  0  0  0  0  0  0  0
    2.9262  -11.1926    3.1170 C   0  0  0  0  0  0  0  0  0  0  0  0
    2.5807  -10.4593    1.9550 C   0  0  0  0  0  0  0  0  0  0  0  0
    1.7065   -9.4353    2.0233 C   0  0  0  0  0  0  0  0  0  0  0  0
    1.3623   -8.6610    1.0017 C   0  0  0  0  0  0  0  0  0  0  0  0
    1.8834   -8.8592   -0.1868 C   0  0  0  0  0  0  0  0  0  0  0  0
    2.6127  -10.0222   -0.5036 O   0  0  0  0  0  0  0  0  0  0  0  0
    1.9139   -8.0198   -1.2516 O   0  0  0  0  0  0  0  0  0  0  0  0
    0.5572   -7.0431    3.0721 O   0  0  0  0  0  0  0  0  0  0  0  0
    2.0216   -7.4095    4.3770 O   0  0  0  0  0  0  0  0  0  0  0  0
    2.5272  -11.9184    5.3320 O   0  0  0  0  0  0  0  0  0  0  0  0
    0.6589   -9.9518    5.5189 O   0  0  0  0  0  0  0  0  0  0  0  0
   -0.7873   -9.8249    5.0236 C   0  0  0  0  0  0  0  0  0  0  0  0
   -1.5341  -10.8392    4.5024 C   0  0  0  0  0  0  0  0  0  0  0  0
   -0.8796  -11.6418    3.8316 C   0  0  0  0  0  0  0  0  0  0  0  0
  1  2  1  0
  7  8  1  0
  8  9  2  3
  9 10  1  0
  9 11  1  0
  1 12  2  0
  1 13  1  0
  4 14  1  0
  3 15  1  0
 15 16  1  0
 16 17  1  0
 17 18  2  0
  2  3  2  0
  3  4  1  0
  4  5  2  0
  5  6  1  0
  6  7  2  0
  2  7  1  0
M  END

$$$$
No_86-/export/home/yangzhenyu/potential_scad_32_flow//YTHDC2/2024-12-06-03-22-00/
     RDKit          3D

 18 17  0  0  1  0  0  0  0  0999 V2000
    1.1787   -8.0297    3.5154 O   0  0  0  0  0  0  0  0  0  0  0  0
    0.6747   -7.4019    2.7838 C   0  0  2  0  0  0  0  0  0  0  0  0
    0.7594   -8.0032    1.4295 C   0  0  0  0  0  0  0  0  0  0  0  0
    0.3459   -9.1500    1.3581 C   0  0  2  0  0  0  0  0  0  0  0  0
   -0.4155   -9.6726    2.0241 P   0  0  2  0  0  0  0  0  0  0  0  0
   -0.0022  -10.1199    3.0968 O   0  0  0  0  0  0  0  0  0  0  0  0
   -0.9563  -11.1383    1.3240 O   0  0  0  0  0  0  0  0  0  0  0  0
   -1.8334   -9.0414    2.2187 O   0  0  0  0  0  0  0  0  0  0  0  0
    1.6671  -10.0429    0.9072 C   0  0  0  0  0  0  0  0  0  0  0  0
    2.2975  -10.5374    1.7835 O   0  0  0  0  0  0  0  0  0  0  0  0
    1.9149  -10.1222   -0.3598 O   0  0  0  0  0  0  0  0  0  0  0  0
    1.1685   -5.8183    2.7161 C   0  0  0  0  0  0  0  0  0  0  0  0
    1.7163   -5.5484    3.7971 O   0  0  0  0  0  0  0  0  0  0  0  0
    0.5032   -5.0549    1.9681 O   0  0  0  0  0  0  0  0  0  0  0  0
   -0.6555  -11.0180    4.2663 C   0  0  2  0  0  0  0  0  0  0  0  0
   -1.6303  -10.2582    4.6873 C   0  0  0  0  0  0  0  0  0  0  0  0
   -2.9300  -10.9759    4.7069 I   0  0  0  0  0  0  0  0  0  0  0  0
    0.5993  -11.4467    5.0876 C   0  0  0  0  0  0  0  0  0  0  0  0
  2  1  1  1
  2  3  1  0
  4  3  1  1
  4  5  1  0
  5  6  1  0
  5  7  2  0
  5  8  1  1
  4  9  1  0
  9 10  1  0
  9 11  2  0
  2 12  1  0
 12 13  1  0
 12 14  2  0
  6 15  1  0
 15 16  1  0
 16 17  1  0
 15 18  1  1
M  END

$$$$
No_87-/export/home/yangzhenyu/potential_scad_32_flow//YTHDC2/2024-12-06-03-22-00/
     RDKit          3D

 19 20  0  0  1  0  0  0  0  0999 V2000
    1.1787   -8.0297    3.5154 N   0  0  0  0  0  0  0  0  0  0  0  0
    0.8669   -7.0905    2.8589 C   0  0  0  0  0  0  0  0  0  0  0  0
    1.0039   -7.3686    1.4179 C   0  0  0  0  0  0  0  0  0  0  0  0
    1.2818   -8.4791    0.9991 C   0  0  0  0  0  0  0  0  0  0  0  0
    1.7823   -9.4650    1.7819 C   0  0  0  0  0  0  0  0  0  0  0  0
    2.1961  -10.7668    1.2843 C   0  0  0  0  0  0  0  0  0  0  0  0
    1.6924   -9.3015    3.1190 C   0  0  0  0  0  0  0  0  0  0  0  0
    2.0814  -11.8096    2.0361 N   0  0  0  0  0  0  0  0  0  0  0  0
    1.7591  -11.6535    3.4038 C   0  0  0  0  0  0  0  0  0  0  0  0
    1.6209  -10.4719    3.9333 C   0  0  0  0  0  0  0  0  0  0  0  0
    1.4704   -8.5508   -0.4541 Cl  0  0  0  0  0  0  0  0  0  0  0  0
    1.9774  -12.7718    4.1511 O   0  0  0  0  0  0  0  0  0  0  0  0
    0.6669   -5.8047    3.3610 Cl  0  0  0  0  0  0  0  0  0  0  0  0
    1.4819  -10.3748    5.2141 O   0  0  0  0  0  0  0  0  0  0  0  0
    0.7438   -6.3078    0.5680 O   0  0  0  0  0  0  0  0  0  0  0  0
   -0.7121   -6.1485    0.3376 C   0  0  1  0  0  0  0  0  0  0  0  0
   -1.3932   -7.1541   -0.0519 C   0  0  0  0  0  0  0  0  0  0  0  0
   -1.3086   -5.0269    0.8615 C   0  0  0  0  0  0  0  0  0  0  0  0
   -2.1924   -4.4112    0.2987 C   0  0  0  0  0  0  0  0  0  0  0  0
  5  6  1  0
  8  9  1  0
  7 10  1  0
  9 10  1  0
  4 11  1  0
  9 12  2  0
  2 13  1  0
 10 14  2  0
  3 15  1  0
 15 16  1  0
 16 17  1  1
 16 18  1  0
 18 19  2  0
  6  8  1  0
  1  2  2  0
  2  3  1  0
  3  4  2  0
  4  5  1  0
  5  7  2  0
  1  7  1  0
M  END

$$$$
No_88-/export/home/yangzhenyu/potential_scad_32_flow//YTHDC2/2024-12-06-03-22-00/
     RDKit          3D

 19 19  0  0  1  0  0  0  0  0999 V2000
    1.1787   -8.0297    3.5154 C   0  0  0  0  0  0  0  0  0  0  0  0
    1.1048   -9.2215    3.2892 N   0  0  0  0  0  0  0  0  0  0  0  0
    1.5378  -10.1363    4.2323 C   0  0  0  0  0  0  0  0  0  0  0  0
    0.8191   -7.0289    2.5357 C   0  0  0  0  0  0  0  0  0  0  0  0
    0.3291   -7.6013    1.4499 C   0  0  0  0  0  0  0  0  0  0  0  0
    0.1648   -8.8030    1.1776 C   0  0  0  0  0  0  0  0  0  0  0  0
    0.6142   -9.7499    2.0807 C   0  0  1  0  0  0  0  0  0  0  0  0
    0.7807  -11.4726    4.2458 O   0  0  0  0  0  0  0  0  0  0  0  0
    2.5702  -10.1715    5.1080 N   0  0  0  0  0  0  0  0  0  0  0  0
   -0.1666   -6.6719    0.4095 C   0  0  0  0  0  0  0  0  0  0  0  0
   -0.4066   -5.2981    0.8320 O   0  0  0  0  0  0  0  0  0  0  0  0
   -0.8323   -6.9959   -0.6058 O   0  0  0  0  0  0  0  0  0  0  0  0
    2.9836  -11.2540    5.7524 N   0  0  0  0  0  0  0  0  0  0  0  0
    1.4672  -10.7564    1.5642 C   0  0  0  0  0  0  0  0  0  0  0  0
    2.5329  -10.7592    0.7764 O   0  0  0  0  0  0  0  0  0  0  0  0
    0.9447  -12.0554    1.5089 N   0  0  0  0  0  0  0  0  0  0  0  0
   -0.4827  -12.3164    1.6217 C   0  0  0  0  0  0  0  0  0  0  0  0
   -1.3027  -12.4351    0.5291 C   0  0  0  0  0  0  0  0  0  0  0  0
   -1.2196  -13.2486   -0.3115 C   0  0  0  0  0  0  0  0  0  0  0  0
  1  2  1  0
  2  3  1  0
  4  5  1  0
  2  7  1  0
  6  7  1  0
  3  8  2  0
  3  9  1  0
  5 10  1  0
 10 11  2  0
 10 12  1  0
  9 13  1  0
  7 14  1  6
 14 15  2  0
 14 16  1  0
 16 17  1  0
 17 18  1  0
 18 19  1  0
  1  4  1  0
  5  6  1  0
M  END

$$$$
No_89-/export/home/yangzhenyu/potential_scad_32_flow//YTHDC2/2024-12-06-03-22-00/
     RDKit          3D

 18 18  0  0  1  0  0  0  0  0999 V2000
    1.1787   -8.0297    3.5154 C   0  0  0  0  0  0  0  0  0  0  0  0
    1.0491   -6.8434    2.9820 C   0  0  0  0  0  0  0  0  0  0  0  0
    1.9985   -8.9840    2.8958 C   0  0  2  0  0  0  0  0  0  0  0  0
    1.7297   -9.2108    1.6335 C   0  0  1  0  0  0  0  0  0  0  0  0
    1.7343   -8.0566    0.8408 C   0  0  0  0  0  0  0  0  0  0  0  0
    1.0269   -6.8892    1.4456 C   0  0  2  0  0  0  0  0  0  0  0  0
    2.0740   -7.9416   -0.3682 O   0  0  0  0  0  0  0  0  0  0  0  0
    1.9646  -10.3580    3.5767 C   0  0  1  0  0  0  0  0  0  0  0  0
    2.8852  -10.5868    4.4417 O   0  0  0  0  0  0  0  0  0  0  0  0
    1.0191  -11.2087    3.4651 Cl  0  0  0  0  0  0  0  0  0  0  0  0
    0.4917   -5.7498    3.4138 O   0  0  0  0  0  0  0  0  0  0  0  0
    2.4815  -10.1672    0.8593 C   0  0  0  0  0  0  0  0  0  0  0  0
    1.7586  -10.8707   -0.0376 O   0  0  0  0  0  0  0  0  0  0  0  0
    0.9433   -5.6952    0.8850 C   0  0  0  0  0  0  0  0  0  0  0  0
    0.1935   -4.7400    1.4195 P   0  0  0  0  0  0  0  0  0  0  0  0
   -1.1830   -5.0876    1.3443 O   0  0  0  0  0  0  0  0  0  0  0  0
    0.0903   -3.3716    0.4181 O   0  0  0  0  0  0  0  0  0  0  0  0
    0.4405   -3.8701    2.6697 O   0  0  0  0  0  0  0  0  0  0  0  0
  1  2  1  0
  3  1  1  1
  3  4  1  0
  4  5  1  0
  2  6  1  0
  5  6  1  0
  5  7  2  0
  3  8  1  0
  8  9  1  1
  8 10  1  0
  2 11  2  0
  4 12  1  6
 12 13  2  0
  6 14  1  6
 14 15  1  0
 15 16  1  0
 15 17  2  0
 15 18  1  0
M  END

$$$$
No_90-/export/home/yangzhenyu/potential_scad_32_flow//YTHDC2/2024-12-06-03-22-00/
     RDKit          3D

 19 19  0  0  0  0  0  0  0  0999 V2000
    1.1787   -8.0297    3.5154 C   0  0  0  0  0  0  0  0  0  0  0  0
    1.1048   -9.2215    3.2892 C   0  0  0  0  0  0  0  0  0  0  0  0
    1.3627  -10.1721    4.3044 C   0  0  0  0  0  0  0  0  0  0  0  0
    1.7354  -11.4730    3.9023 C   0  0  0  0  0  0  0  0  0  0  0  0
    1.8080  -11.8127    2.7216 C   0  0  0  0  0  0  0  0  0  0  0  0
    1.5854  -11.0021    1.7249 C   0  0  0  0  0  0  0  0  0  0  0  0
    1.3573   -9.7389    1.9287 C   0  0  0  0  0  0  0  0  0  0  0  0
    1.2865   -8.8078    0.9161 C   0  0  0  0  0  0  0  0  0  0  0  0
    1.6845   -9.1638   -0.2896 C   0  0  0  0  0  0  0  0  0  0  0  0
    2.0771  -13.2284    2.3629 C   0  0  0  0  0  0  0  0  0  0  0  0
    2.4409  -13.5750    1.0743 O   0  0  0  0  0  0  0  0  0  0  0  0
    1.7497  -14.2470    3.1345 O   0  0  0  0  0  0  0  0  0  0  0  0
    1.6328   -8.1274   -1.3704 O   0  0  0  0  0  0  0  0  0  0  0  0
    0.1030   -7.2294    3.3510 O   0  0  0  0  0  0  0  0  0  0  0  0
    2.1870   -7.2248    3.9279 O   0  0  0  0  0  0  0  0  0  0  0  0
    1.9170  -15.5460    2.6901 C   0  0  0  0  0  0  0  0  0  0  0  0
    0.9482  -16.4574    2.9418 C   0  0  0  0  0  0  0  0  0  0  0  0
    1.2011  -17.7389    2.6404 O   0  0  0  0  0  0  0  0  0  0  0  0
   -0.1403  -16.0885    3.5595 C   0  0  0  0  0  0  0  0  0  0  0  0
  1  2  1  0
  7  8  1  0
  8  9  2  3
  5 10  1  0
 10 11  2  0
 10 12  1  0
  9 13  1  0
  1 14  2  0
  1 15  1  0
 12 16  1  0
 16 17  1  0
 17 18  2  0
 17 19  1  0
  2  3  2  0
  3  4  1  0
  4  5  2  0
  5  6  1  0
  6  7  2  0
  2  7  1  0
M  END

$$$$
No_91-/export/home/yangzhenyu/potential_scad_32_flow//YTHDC2/2024-12-06-03-22-00/
     RDKit          3D

 17 17  0  0  0  0  0  0  0  0999 V2000
    1.1787   -8.0297    3.5154 C   0  0  0  0  0  0  0  0  0  0  0  0
    1.0491   -6.8434    2.9820 C   0  0  0  0  0  0  0  0  0  0  0  0
    1.9985   -8.9840    2.8958 C   0  0  0  0  0  0  0  0  0  0  0  0
    1.7297   -9.2108    1.6335 C   0  0  0  0  0  0  0  0  0  0  0  0
    1.5234   -8.1478    0.8618 C   0  0  0  0  0  0  0  0  0  0  0  0
    1.0558   -6.9632    1.4912 C   0  0  0  0  0  0  0  0  0  0  0  0
    1.6625   -8.1627   -0.5228 C   0  0  0  0  0  0  0  0  0  0  0  0
    0.7226   -8.4843   -1.2499 O   0  0  0  0  0  0  0  0  0  0  0  0
    2.7629   -7.8232   -1.1226 O   0  0  0  0  0  0  0  0  0  0  0  0
    2.1999  -10.5154    3.7084 C   0  0  0  0  0  0  0  0  0  0  0  0
    3.1483  -10.3683    4.4935 N   0  0  0  0  0  0  0  0  0  0  0  0
    1.5907  -11.4750    3.3767 O   0  0  0  0  0  0  0  0  0  0  0  0
    3.4964  -11.6064    5.2818 N   0  0  0  0  0  0  0  0  0  0  0  0
    0.6503   -5.5721    3.6286 Cl  0  0  0  0  0  0  0  0  0  0  0  0
    4.9188  -11.4639    5.5054 C   0  0  0  0  0  0  0  0  0  0  0  0
    5.5852  -10.3676    5.2847 O   0  0  0  0  0  0  0  0  0  0  0  0
    2.3346  -10.3354    0.9071 C   0  0  0  0  0  0  0  0  0  0  0  0
  5  7  1  0
  7  8  2  0
  7  9  1  0
  3 10  1  0
 10 11  1  0
 10 12  2  0
 11 13  1  0
  2 14  1  0
 13 15  1  0
 15 16  2  0
  4 17  1  0
  1  2  2  0
  2  6  1  0
  5  6  2  0
  4  5  1  0
  3  4  2  0
  1  3  1  0
M  END

$$$$
No_92-/export/home/yangzhenyu/potential_scad_32_flow//YTHDC2/2024-12-06-03-22-00/
     RDKit          3D

 17 17  0  0  0  0  0  0  0  0999 V2000
    1.1787   -8.0297    3.5154 C   0  0  0  0  0  0  0  0  0  0  0  0
    1.1048   -9.2215    3.2892 C   0  0  0  0  0  0  0  0  0  0  0  0
    1.3627  -10.1721    4.3044 C   0  0  0  0  0  0  0  0  0  0  0  0
    1.7354  -11.4730    3.9024 C   0  0  0  0  0  0  0  0  0  0  0  0
    1.8080  -11.8127    2.7216 C   0  0  0  0  0  0  0  0  0  0  0  0
    1.5854  -11.0021    1.7249 C   0  0  0  0  0  0  0  0  0  0  0  0
    1.3573   -9.7389    1.9287 C   0  0  0  0  0  0  0  0  0  0  0  0
    1.1102   -8.8712    0.9017 C   0  0  0  0  0  0  0  0  0  0  0  0
    1.5724   -9.1697   -0.3048 C   0  0  0  0  0  0  0  0  0  0  0  0
    1.2378   -8.2159   -1.4226 O   0  0  0  0  0  0  0  0  0  0  0  0
    2.0610  -13.2069    2.3284 C   0  0  0  0  0  0  0  0  0  0  0  0
    1.9011  -14.2479    3.1770 O   0  0  0  0  0  0  0  0  0  0  0  0
    2.4416  -13.5042    1.0763 O   0  0  0  0  0  0  0  0  0  0  0  0
    0.1264   -7.2182    3.3811 O   0  0  0  0  0  0  0  0  0  0  0  0
    2.0822   -7.2439    4.2366 O   0  0  0  0  0  0  0  0  0  0  0  0
    2.5957   -9.9324   -0.6390 O   0  0  0  0  0  0  0  0  0  0  0  0
    1.5061  -15.4429    2.6774 C   0  0  0  0  0  0  0  0  0  0  0  0
  1  2  1  0
  7  8  1  0
  8  9  2  3
  9 10  1  0
  5 11  1  0
 11 12  1  0
 11 13  2  0
  1 14  2  0
  1 15  1  0
  9 16  1  0
 12 17  1  0
  2  3  2  0
  3  4  1  0
  4  5  2  0
  5  6  1  0
  6  7  2  0
  2  7  1  0
M  END

$$$$
No_93-/export/home/yangzhenyu/potential_scad_32_flow//YTHDC2/2024-12-06-03-22-00/
     RDKit          3D

 18 18  0  0  0  0  0  0  0  0999 V2000
    1.1787   -8.0297    3.5154 C   0  0  0  0  0  0  0  0  0  0  0  0
    1.0491   -6.8434    2.9820 C   0  0  0  0  0  0  0  0  0  0  0  0
    0.9905   -9.0774    2.6527 C   0  0  0  0  0  0  0  0  0  0  0  0
    0.7897   -8.9519    1.3691 C   0  0  0  0  0  0  0  0  0  0  0  0
    0.7018   -7.7198    0.7892 C   0  0  0  0  0  0  0  0  0  0  0  0
    0.8918   -6.5957    1.6117 C   0  0  0  0  0  0  0  0  0  0  0  0
    1.0774  -10.6059    3.3145 C   0  0  0  0  0  0  0  0  0  0  0  0
    2.1444  -11.0408    3.6446 C   0  0  0  0  0  0  0  0  0  0  0  0
   -0.0506  -11.2314    3.3994 C   0  0  0  0  0  0  0  0  0  0  0  0
   -1.1898  -10.5223    3.9624 N   0  0  0  0  0  0  0  0  0  0  0  0
    2.1271  -12.0301    4.6858 O   0  0  0  0  0  0  0  0  0  0  0  0
    0.8192   -5.2864    1.0824 Cl  0  0  0  0  0  0  0  0  0  0  0  0
   -2.4196  -10.8137    3.7332 C   0  0  0  0  0  0  0  0  0  0  0  0
   -3.4631  -10.2705    4.4800 N   0  0  0  0  0  0  0  0  0  0  0  0
   -2.7994  -11.7451    2.7173 O   0  0  0  0  0  0  0  0  0  0  0  0
    3.4142  -10.7105    3.3254 O   0  0  0  0  0  0  0  0  0  0  0  0
   -4.6858  -10.5913    4.1951 C   0  0  0  0  0  0  0  0  0  0  0  0
   -5.4882   -9.6644    3.8753 C   0  0  0  0  0  0  0  0  0  0  0  0
  3  7  1  0
  7  8  1  0
  7  9  1  0
  9 10  1  0
  8 11  2  0
  6 12  1  0
 10 13  2  3
 13 14  1  0
 13 15  1  0
  8 16  1  0
 14 17  1  0
 17 18  1  0
  1  2  2  0
  2  6  1  0
  5  6  2  0
  4  5  1  0
  3  4  2  0
  1  3  1  0
M  END

$$$$
No_94-/export/home/yangzhenyu/potential_scad_32_flow//YTHDC2/2024-12-06-03-22-00/
     RDKit          3D

 20 20  0  0  0  0  0  0  0  0999 V2000
    1.1787   -8.0297    3.5154 N   0  0  0  0  0  0  0  0  0  0  0  0
    0.8669   -7.0905    2.8589 C   0  0  0  0  0  0  0  0  0  0  0  0
    1.0447   -7.3244    1.4123 C   0  0  0  0  0  0  0  0  0  0  0  0
    1.3746   -8.4389    1.0864 C   0  0  0  0  0  0  0  0  0  0  0  0
    1.8493   -9.4093    1.8124 C   0  0  0  0  0  0  0  0  0  0  0  0
    1.7421   -9.2119    3.1541 C   0  0  0  0  0  0  0  0  0  0  0  0
    2.0608  -10.3132    4.0586 C   0  0  0  0  0  0  0  0  0  0  0  0
    1.3103  -11.3806    4.2606 O   0  0  0  0  0  0  0  0  0  0  0  0
    3.2530  -10.3750    4.7061 O   0  0  0  0  0  0  0  0  0  0  0  0
    1.6816   -8.6471   -0.4206 C   0  0  0  0  0  0  0  0  0  0  0  0
    0.7303   -8.6748   -1.1732 O   0  0  0  0  0  0  0  0  0  0  0  0
    2.9037   -8.5803   -1.0121 O   0  0  0  0  0  0  0  0  0  0  0  0
    0.4628   -5.8729    3.3434 C   0  0  0  0  0  0  0  0  0  0  0  0
    1.3465   -4.9860    3.3599 O   0  0  0  0  0  0  0  0  0  0  0  0
   -0.7216   -5.3814    3.0306 O   0  0  0  0  0  0  0  0  0  0  0  0
    2.4069  -10.6565    1.3557 O   0  0  0  0  0  0  0  0  0  0  0  0
   -1.0473   -4.0353    3.0492 C   0  0  0  0  0  0  0  0  0  0  0  0
   -0.7987   -3.4341    1.9023 C   0  0  0  0  0  0  0  0  0  0  0  0
   -1.4981   -3.8074    0.8110 C   0  0  0  0  0  0  0  0  0  0  0  0
   -1.6106   -3.1975   -0.1792 C   0  0  0  0  0  0  0  0  0  0  0  0
  6  7  1  0
  7  8  1  0
  7  9  2  0
  4 10  1  0
 10 11  2  0
 10 12  1  0
  2 13  1  0
 13 14  2  0
 13 15  1  0
  5 16  1  0
 15 17  1  0
 17 18  1  0
 18 19  1  0
 19 20  2  0
  1  2  2  0
  2  3  1  0
  3  4  2  0
  4  5  1  0
  5  6  2  0
  1  6  1  0
M  END

$$$$
No_95-/export/home/yangzhenyu/potential_scad_32_flow//YTHDC2/2024-12-06-03-22-00/
     RDKit          3D

 16 17  0  0  1  0  0  0  0  0999 V2000
    1.1787   -8.0297    3.5154 C   0  0  0  0  0  0  0  0  0  0  0  0
    1.0491   -6.8434    2.9820 C   0  0  0  0  0  0  0  0  0  0  0  0
    0.0950   -8.8404    3.2292 C   0  0  0  0  0  0  0  0  0  0  0  0
    0.0602  -10.1764    3.8231 C   0  0  2  0  0  0  0  0  0  0  0  0
    0.2248   -6.3830    2.0648 C   0  0  0  0  0  0  0  0  0  0  0  0
   -0.6745   -7.2322    1.6857 C   0  0  0  0  0  0  0  0  0  0  0  0
   -0.7374   -8.4992    2.1291 C   0  0  0  0  0  0  0  0  0  0  0  0
    1.0201  -10.8960    4.1038 N   0  0  0  0  0  0  0  0  0  0  0  0
    0.9312  -12.2844    3.9554 C   0  0  0  0  0  0  0  0  0  0  0  0
   -0.0027  -12.5917    3.1656 N   0  0  0  0  0  0  0  0  0  0  0  0
   -0.8213  -11.3448    2.9705 C   0  0  0  0  0  0  0  0  0  0  0  0
    0.3749   -5.0391    1.5045 O   0  0  0  0  0  0  0  0  0  0  0  0
   -1.6031   -6.7026    0.7878 C   0  0  0  0  0  0  0  0  0  0  0  0
   -1.5899   -7.1475   -0.4416 C   0  0  0  0  0  0  0  0  0  0  0  0
   -0.7676   -8.1097   -0.9784 C   0  0  0  0  0  0  0  0  0  0  0  0
   -1.0565   -8.7475   -2.1331 C   0  0  0  0  0  0  0  0  0  0  0  0
  4  3  1  6
  4  8  1  0
  8  9  2  0
  9 10  1  0
  4 11  1  0
 10 11  1  0
  5 12  1  0
  6 13  1  0
 13 14  1  0
 14 15  1  0
 15 16  2  0
  1  2  2  0
  2  5  1  0
  5  6  2  0
  6  7  1  0
  3  7  2  0
  1  3  1  0
M  END

$$$$
No_96-/export/home/yangzhenyu/potential_scad_32_flow//YTHDC2/2024-12-06-03-22-00/
     RDKit          3D

 17 17  0  0  1  0  0  0  0  0999 V2000
    1.1787   -8.0297    3.5154 P   0  0  0  0  0  0  0  0  0  0  0  0
    1.2030   -9.2736    3.3536 O   0  0  0  0  0  0  0  0  0  0  0  0
   -0.0768   -7.4876    3.7816 O   0  0  0  0  0  0  0  0  0  0  0  0
    2.0420   -7.3158    4.4410 O   0  0  0  0  0  0  0  0  0  0  0  0
    1.3620   -7.3393    1.9708 O   0  0  0  0  0  0  0  0  0  0  0  0
    1.3928  -10.3434    2.9648 C   0  0  0  0  0  0  0  0  0  0  0  0
    0.6071  -11.3574    3.1131 C   0  0  2  0  0  0  0  0  0  0  0  0
    0.8833  -12.7253    3.2477 Cl  0  0  0  0  0  0  0  0  0  0  0  0
   -0.7712  -10.9495    2.9627 C   0  0  2  0  0  0  0  0  0  0  0  0
   -1.7062  -11.2198    3.8559 C   0  0  0  0  0  0  0  0  0  0  0  0
   -2.9925  -11.2203    3.7063 C   0  0  0  0  0  0  0  0  0  0  0  0
   -3.3251  -10.9395    2.4092 C   0  0  2  0  0  0  0  0  0  0  0  0
   -2.5645  -10.6466    1.3887 C   0  0  0  0  0  0  0  0  0  0  0  0
   -1.1334  -10.7474    1.6255 C   0  0  0  0  0  0  0  0  0  0  0  0
   -0.2820  -10.5684    0.5521 O   0  0  0  0  0  0  0  0  0  0  0  0
   -4.7404  -10.7546    2.0388 O   0  0  0  0  0  0  0  0  0  0  0  0
   -5.2626  -11.6499    1.2534 C   0  0  0  0  0  0  0  0  0  0  0  0
  1  2  1  0
  1  3  1  0
  1  4  2  0
  1  5  1  0
  2  6  1  0
  6  7  1  0
  7  8  1  6
  7  9  1  0
  9 10  1  6
 11 12  1  0
  9 14  1  0
 13 14  1  0
 14 15  2  0
 12 16  1  1
 16 17  1  0
 10 11  1  0
 12 13  1  0
M  END

$$$$
No_97-/export/home/yangzhenyu/potential_scad_32_flow//YTHDC2/2024-12-06-03-22-00/
     RDKit          3D

 20 20  0  0  1  0  0  0  0  0999 V2000
    1.1787   -8.0297    3.5154 C   0  0  0  0  0  0  0  0  0  0  0  0
    1.0491   -6.8434    2.9820 O   0  0  0  0  0  0  0  0  0  0  0  0
    1.9898   -8.9833    2.9120 C   0  0  0  0  0  0  0  0  0  0  0  0
    1.1964  -10.1304    2.5103 C   0  0  1  0  0  0  0  0  0  0  0  0
    0.6857  -10.0725    1.2198 C   0  0  0  0  0  0  0  0  0  0  0  0
    1.4937   -9.4577    0.2249 O   0  0  0  0  0  0  0  0  0  0  0  0
   -0.1502  -10.8836    0.7376 N   0  0  0  0  0  0  0  0  0  0  0  0
   -0.5626  -10.9437   -0.6500 C   0  0  0  0  0  0  0  0  0  0  0  0
   -1.3436   -9.7402   -1.0328 C   0  0  0  0  0  0  0  0  0  0  0  0
   -1.8354   -8.9902   -0.1792 C   0  0  0  0  0  0  0  0  0  0  0  0
   -1.5224   -7.5918   -0.1633 C   0  0  1  0  0  0  0  0  0  0  0  0
   -1.8476   -6.8090    1.0743 C   0  0  0  0  0  0  0  0  0  0  0  0
   -1.4345   -5.5032    1.2577 C   0  0  0  0  0  0  0  0  0  0  0  0
   -0.4492   -5.0797    0.2621 C   0  0  0  0  0  0  0  0  0  0  0  0
   -0.1571   -5.7673   -0.7520 C   0  0  0  0  0  0  0  0  0  0  0  0
   -0.6176   -6.9873   -0.9156 C   0  0  0  0  0  0  0  0  0  0  0  0
   -0.2556   -7.6702   -1.9701 O   0  0  0  0  0  0  0  0  0  0  0  0
    2.2230  -11.3735    2.6634 C   0  0  0  0  0  0  0  0  0  0  0  0
    1.8928  -11.9997    4.0081 C   0  0  0  0  0  0  0  0  0  0  0  0
    0.3964  -12.1434    3.9987 C   0  0  0  0  0  0  0  0  0  0  0  0
  1  2  1  0
  1  3  1  0
  4  3  1  6
  4  5  1  0
  5  6  2  0
  5  7  1  0
  7  8  1  0
  8  9  1  0
  9 10  1  0
 11 10  1  1
 11 12  1  0
 13 14  1  0
 11 16  1  0
 15 16  1  0
 16 17  2  0
  4 18  1  0
 18 19  1  0
 19 20  1  0
 12 13  1  0
 14 15  1  0
M  END

$$$$
No_98-/export/home/yangzhenyu/potential_scad_32_flow//YTHDC2/2024-12-06-03-22-00/
     RDKit          3D

 19 19  0  0  1  0  0  0  0  0999 V2000
    1.1787   -8.0297    3.5154 N   0  0  0  0  0  0  0  0  0  0  0  0
    0.8669   -7.0905    2.8589 C   0  0  0  0  0  0  0  0  0  0  0  0
    1.0447   -7.3244    1.4123 C   0  0  0  0  0  0  0  0  0  0  0  0
    1.3746   -8.4389    1.0864 C   0  0  1  0  0  0  0  0  0  0  0  0
    1.8185   -8.7923   -0.3129 C   0  0  0  0  0  0  0  0  0  0  0  0
    1.7714   -9.1001    2.3120 C   0  0  2  0  0  0  0  0  0  0  0  0
    2.1345  -10.3511    2.5694 C   0  0  0  0  0  0  0  0  0  0  0  0
    2.2522   -9.6630   -0.6548 O   0  0  0  0  0  0  0  0  0  0  0  0
    1.1198   -8.2231   -1.2399 O   0  0  0  0  0  0  0  0  0  0  0  0
    1.9303  -11.3860    1.8378 O   0  0  0  0  0  0  0  0  0  0  0  0
    2.8989  -10.5537    3.6215 N   0  0  0  0  0  0  0  0  0  0  0  0
    3.0771  -11.7687    4.2962 C   0  0  0  0  0  0  0  0  0  0  0  0
    4.2188  -11.9508    4.4989 C   0  0  0  0  0  0  0  0  0  0  0  0
    5.0700  -10.9254    5.1552 O   0  0  0  0  0  0  0  0  0  0  0  0
    0.5818   -5.9059    3.4731 C   0  0  0  0  0  0  0  0  0  0  0  0
    1.4727   -5.0035    3.4392 C   0  0  0  0  0  0  0  0  0  0  0  0
    0.9527   -3.5952    3.8389 O   0  0  0  0  0  0  0  0  0  0  0  0
    0.6103   -2.7953    2.8623 C   0  0  0  0  0  0  0  0  0  0  0  0
    1.7571   -2.3018    2.2133 C   0  0  0  0  0  0  0  0  0  0  0  0
  1  2  1  0
  2  3  2  0
  3  4  1  0
  4  5  1  6
  1  6  1  0
  4  6  1  0
  6  7  1  1
  5  8  2  0
  5  9  1  0
  7 10  2  0
  7 11  1  0
 11 12  1  0
 12 13  1  0
 13 14  1  0
  2 15  1  0
 15 16  1  0
 16 17  1  0
 17 18  1  0
 18 19  1  0
M  END

$$$$
No_99-/export/home/yangzhenyu/potential_scad_32_flow//YTHDC2/2024-12-06-03-22-00/
     RDKit          3D

 18 18  0  0  0  0  0  0  0  0999 V2000
    1.1787   -8.0297    3.5154 C   0  0  0  0  0  0  0  0  0  0  0  0
    1.0491   -6.8434    2.9820 F   0  0  0  0  0  0  0  0  0  0  0  0
    0.0305   -8.5911    3.7360 C   0  0  0  0  0  0  0  0  0  0  0  0
   -1.0616   -7.8653    3.8164 C   0  0  0  0  0  0  0  0  0  0  0  0
   -2.1275   -8.5375    4.6499 C   0  0  0  0  0  0  0  0  0  0  0  0
   -2.0020   -9.7971    5.1516 C   0  0  0  0  0  0  0  0  0  0  0  0
   -0.8453  -10.5573    4.8566 C   0  0  0  0  0  0  0  0  0  0  0  0
    0.2303   -9.9844    4.2136 C   0  0  0  0  0  0  0  0  0  0  0  0
    1.7907   -8.7983    2.3939 F   0  0  0  0  0  0  0  0  0  0  0  0
    1.3873  -10.5358    4.2299 C   0  0  0  0  0  0  0  0  0  0  0  0
    1.5451  -11.8343    3.6081 O   0  0  0  0  0  0  0  0  0  0  0  0
    2.5095  -10.3162    4.9646 O   0  0  0  0  0  0  0  0  0  0  0  0
   -3.5974   -7.6834    4.9613 C   0  0  0  0  0  0  0  0  0  0  0  0
   -3.8936   -7.7401    6.0115 O   0  0  0  0  0  0  0  0  0  0  0  0
   -4.1847   -7.3392    3.9346 O   0  0  0  0  0  0  0  0  0  0  0  0
    2.3277   -7.9743    4.1340 I   0  0  0  0  0  0  0  0  0  0  0  0
    3.6755  -11.2984    4.9761 C   0  0  0  0  0  0  0  0  0  0  0  0
    4.8783  -10.6127    5.6355 C   0  0  0  0  0  0  0  0  0  0  0  0
  1  2  1  0
  1  3  1  0
  1  9  1  0
  8 10  1  0
 10 11  2  0
 10 12  1  0
  5 13  1  0
 13 14  1  0
 13 15  2  0
  1 16  1  0
 12 17  1  0
 17 18  1  0
  3  4  2  0
  4  5  1  0
  5  6  2  0
  6  7  1  0
  7  8  2  0
  3  8  1  0
M  END

$$$$
No_100-/export/home/yangzhenyu/potential_scad_32_flow//YTHDC2/2024-12-06-03-22-00/
     RDKit          3D

 19 19  0  0  1  0  0  0  0  0999 V2000
    1.1787   -8.0297    3.5154 C   0  0  0  0  0  0  0  0  0  0  0  0
    1.0491   -6.8434    2.9820 C   0  0  0  0  0  0  0  0  0  0  0  0
    0.9905   -9.0774    2.6527 C   0  0  0  0  0  0  0  0  0  0  0  0
    0.7897   -8.9519    1.3691 C   0  0  0  0  0  0  0  0  0  0  0  0
    0.6550  -10.0985    0.4848 C   0  0  0  0  0  0  0  0  0  0  0  0
    0.7849   -6.5836    1.6043 C   0  0  0  0  0  0  0  0  0  0  0  0
    0.6652   -7.6671    0.8008 C   0  0  0  0  0  0  0  0  0  0  0  0
    1.2441  -11.1828    0.5777 O   0  0  0  0  0  0  0  0  0  0  0  0
    0.0856   -9.8969   -0.8187 O   0  0  0  0  0  0  0  0  0  0  0  0
    0.6660   -5.3031    1.0886 Cl  0  0  0  0  0  0  0  0  0  0  0  0
    1.2477  -10.4644    3.2305 C   0  0  1  0  0  0  0  0  0  0  0  0
    2.5704  -10.8694    3.5685 C   0  0  0  0  0  0  0  0  0  0  0  0
    0.2291  -11.2069    3.5618 C   0  0  0  0  0  0  0  0  0  0  0  0
    2.4712  -11.9807    4.4640 O   0  0  0  0  0  0  0  0  0  0  0  0
   -0.8171  -10.5744    4.3015 O   0  0  0  0  0  0  0  0  0  0  0  0
   -0.0243  -12.4254    3.3482 C   0  0  0  0  0  0  0  0  0  0  0  0
    1.0301  -13.3582    3.7568 N   0  0  0  0  0  0  0  0  0  0  0  0
    1.7853  -13.4802    2.9962 C   0  0  0  0  0  0  0  0  0  0  0  0
    1.7310  -14.6624    1.9882 C   0  0  0  0  0  0  0  0  0  0  0  0
  4  5  1  0
  5  8  2  0
  5  9  1  0
  6 10  1  0
  3 11  1  0
 11 12  1  1
 11 13  1  0
 12 14  1  0
 13 15  2  0
 13 16  1  0
 16 17  1  0
 17 18  1  0
 18 19  1  0
  1  2  2  0
  2  6  1  0
  6  7  2  0
  4  7  1  0
  3  4  2  0
  1  3  1  0
M  END

$$$$
No_101-/export/home/yangzhenyu/potential_scad_32_flow//YTHDC2/2024-12-06-03-22-00/
     RDKit          3D

 18 17  0  0  0  0  0  0  0  0999 V2000
    1.1787   -8.0297    3.5154 C   0  0  0  0  0  0  0  0  0  0  0  0
    1.0491   -6.8434    2.9820 C   0  0  0  0  0  0  0  0  0  0  0  0
    0.0950   -8.8404    3.2292 C   0  0  0  0  0  0  0  0  0  0  0  0
   -0.7663   -8.2602    2.4375 F   0  0  0  0  0  0  0  0  0  0  0  0
    0.9418   -6.4713    1.6548 C   0  0  0  0  0  0  0  0  0  0  0  0
    1.1419   -7.4275    0.6808 C   0  0  0  0  0  0  0  0  0  0  0  0
   -0.2200   -9.9476    4.0003 C   0  0  0  0  0  0  0  0  0  0  0  0
   -1.4234  -10.3487    4.1575 C   0  0  0  0  0  0  0  0  0  0  0  0
    0.8734  -10.6560    4.7015 C   0  0  0  0  0  0  0  0  0  0  0  0
    2.1927  -10.5112    4.4040 C   0  0  0  0  0  0  0  0  0  0  0  0
    3.0124  -11.1080    5.3432 C   0  0  0  0  0  0  0  0  0  0  0  0
    2.5202   -7.9723    0.5896 C   0  0  0  0  0  0  0  0  0  0  0  0
    2.6501   -8.9444   -0.4024 C   0  0  0  0  0  0  0  0  0  0  0  0
    2.5426   -8.6968   -1.6852 O   0  0  0  0  0  0  0  0  0  0  0  0
    2.9764  -10.1225   -0.0102 O   0  0  0  0  0  0  0  0  0  0  0  0
    4.4231  -11.1080    4.9659 O   0  0  0  0  0  0  0  0  0  0  0  0
   -1.8637  -11.6809    4.1912 C   0  0  0  0  0  0  0  0  0  0  0  0
   -3.2424  -11.8840    4.1270 C   0  0  0  0  0  0  0  0  0  0  0  0
  1  2  1  0
  1  3  2  3
  3  4  1  0
  2  5  2  3
  5  6  1  0
  3  7  1  0
  7  8  2  3
  7  9  1  0
  9 10  1  0
 10 11  1  0
  6 12  1  0
 12 13  1  0
 13 14  2  0
 13 15  1  0
 11 16  2  0
  8 17  1  0
 17 18  2  0
M  END

$$$$
No_102-/export/home/yangzhenyu/potential_scad_32_flow//YTHDC2/2024-12-06-03-22-00/
     RDKit          3D

 19 19  0  0  1  0  0  0  0  0999 V2000
    1.1787   -8.0297    3.5154 C   0  0  0  0  0  0  0  0  0  0  0  0
    1.0491   -6.8434    2.9820 C   0  0  0  0  0  0  0  0  0  0  0  0
    0.9905   -9.0774    2.6527 C   0  0  0  0  0  0  0  0  0  0  0  0
    0.7897   -8.9519    1.3691 C   0  0  0  0  0  0  0  0  0  0  0  0
    0.7018   -7.7198    0.7892 C   0  0  0  0  0  0  0  0  0  0  0  0
    0.8918   -6.5957    1.6117 C   0  0  0  0  0  0  0  0  0  0  0  0
    1.0998  -10.4710    3.2437 C   0  0  1  0  0  0  0  0  0  0  0  0
    1.3102  -11.5554    2.5214 C   0  0  0  0  0  0  0  0  0  0  0  0
    1.3598  -12.8243    3.2502 C   0  0  0  0  0  0  0  0  0  0  0  0
    0.8660  -13.9599    2.3836 C   0  0  0  0  0  0  0  0  0  0  0  0
    1.2766  -15.2713    2.8498 C   0  0  0  0  0  0  0  0  0  0  0  0
    0.8583   -5.2567    1.2346 C   0  0  0  0  0  0  0  0  0  0  0  0
    0.6134  -16.2436    3.3320 O   0  0  0  0  0  0  0  0  0  0  0  0
    2.7052  -15.4101    2.9633 O   0  0  0  0  0  0  0  0  0  0  0  0
    1.1864  -10.5324    4.6320 P   0  0  0  0  0  0  0  0  0  0  0  0
    2.5229  -10.3318    5.1942 O   0  0  0  0  0  0  0  0  0  0  0  0
    0.2258   -4.2935    2.0071 N   0  0  0  0  0  0  0  0  0  0  0  0
    0.9529   -3.4068    2.6169 C   0  0  0  0  0  0  0  0  0  0  0  0
    0.3206  -10.9791    5.3385 O   0  0  0  0  0  0  0  0  0  0  0  0
  3  7  1  0
  7  8  1  6
  8  9  1  0
  9 10  1  0
 10 11  1  0
  6 12  1  0
 11 13  2  0
 11 14  1  0
  7 15  1  0
 15 16  1  0
 12 17  1  0
 17 18  1  0
 15 19  1  0
  1  2  2  0
  2  6  1  0
  5  6  2  0
  4  5  1  0
  3  4  2  0
  1  3  1  0
M  END

$$$$
No_103-/export/home/yangzhenyu/potential_scad_32_flow//YTHDC2/2024-12-06-03-22-00/
     RDKit          3D

 18 18  0  0  1  0  0  0  0  0999 V2000
    1.1787   -8.0297    3.5154 C   0  0  0  0  0  0  0  0  0  0  0  0
    1.1048   -9.2215    3.2892 C   0  0  0  0  0  0  0  0  0  0  0  0
    1.4683  -10.2314    4.1915 C   0  0  0  0  0  0  0  0  0  0  0  0
    0.8445   -6.9865    2.5175 C   0  0  2  0  0  0  0  0  0  0  0  0
    0.3587   -7.3973    1.3953 C   0  0  0  0  0  0  0  0  0  0  0  0
    0.1901   -8.6971    1.0711 C   0  0  0  0  0  0  0  0  0  0  0  0
    0.5759   -9.6647    1.9442 C   0  0  0  0  0  0  0  0  0  0  0  0
    2.7055  -10.5235    4.4262 C   0  0  0  0  0  0  0  0  0  0  0  0
   -0.3172   -9.1228   -0.1102 C   0  0  0  0  0  0  0  0  0  0  0  0
   -1.1869  -10.2217   -0.1351 O   0  0  0  0  0  0  0  0  0  0  0  0
    0.0115   -8.5562   -1.2968 O   0  0  0  0  0  0  0  0  0  0  0  0
    0.2898  -10.9500    1.8474 O   0  0  0  0  0  0  0  0  0  0  0  0
    2.9956  -11.6089    5.3014 O   0  0  0  0  0  0  0  0  0  0  0  0
    1.1168   -5.5691    2.7819 O   0  0  0  0  0  0  0  0  0  0  0  0
    1.4367   -5.2732    3.9485 C   0  0  0  0  0  0  0  0  0  0  0  0
    0.5139  -10.9606    4.8854 C   0  0  0  0  0  0  0  0  0  0  0  0
    0.7013  -12.2151    4.9363 O   0  0  0  0  0  0  0  0  0  0  0  0
   -0.6247  -10.5228    5.1797 O   0  0  0  0  0  0  0  0  0  0  0  0
  2  3  1  0
  1  4  1  0
  5  6  1  0
  2  7  1  0
  6  7  1  0
  3  8  1  0
  6  9  1  0
  9 10  2  0
  9 11  1  0
  7 12  2  0
  8 13  1  0
  4 14  1  6
 14 15  1  0
  3 16  1  0
 16 17  2  0
 16 18  1  0
  1  2  1  0
  4  5  1  0
M  END

$$$$
No_104-/export/home/yangzhenyu/potential_scad_32_flow//YTHDC2/2024-12-06-03-22-00/
     RDKit          3D

 19 20  0  0  1  0  0  0  0  0999 V2000
    1.1787   -8.0297    3.5154 N   0  0  0  0  0  0  0  0  0  0  0  0
    1.0818   -9.0751    3.2053 C   0  0  0  0  0  0  0  0  0  0  0  0
    0.7576   -9.3725    1.9159 C   0  0  0  0  0  0  0  0  0  0  0  0
    0.8823   -8.4917    1.0547 C   0  0  1  0  0  0  0  0  0  0  0  0
    1.5589   -7.2414    1.9015 C   0  0  0  0  0  0  0  0  0  0  0  0
    0.9727   -8.3150   -0.2115 C   0  0  0  0  0  0  0  0  0  0  0  0
    0.7030   -9.5083   -0.7746 O   0  0  0  0  0  0  0  0  0  0  0  0
    1.1468   -7.5032   -0.9618 O   0  0  0  0  0  0  0  0  0  0  0  0
    0.8159   -9.9456    4.3657 C   0  0  0  0  0  0  0  0  0  0  0  0
   -0.4337  -10.7314    4.4945 N   0  0  0  0  0  0  0  0  0  0  0  0
    1.8899  -10.4893    5.0213 N   0  0  0  0  0  0  0  0  0  0  0  0
    0.4159  -10.7230    1.4459 C   0  0  0  0  0  0  0  0  0  0  0  0
   -0.9132  -11.0894    1.2746 C   0  0  0  0  0  0  0  0  0  0  0  0
   -1.1548  -12.3855    0.8707 C   0  0  0  0  0  0  0  0  0  0  0  0
   -0.1217  -13.3137    0.8287 C   0  0  0  0  0  0  0  0  0  0  0  0
    1.2557  -12.6525    1.2899 C   0  0  0  0  0  0  0  0  0  0  0  0
    1.4356  -11.4523    1.5693 C   0  0  0  0  0  0  0  0  0  0  0  0
    2.3079  -13.7310    1.1984 Cl  0  0  0  0  0  0  0  0  0  0  0  0
   -1.2250  -10.5223    3.9027 H   0  0  0  0  0  0  0  0  0  0  0  0
  1  2  1  0
  2  3  2  0
  3  4  1  0
  1  5  2  0
  4  5  1  0
  4  6  1  6
  6  7  1  0
  6  8  2  0
  2  9  1  0
  9 10  2  0
  9 11  1  0
  3 12  1  0
 16 18  1  0
 12 13  2  0
 13 14  1  0
 14 15  2  0
 15 16  1  0
 16 17  2  0
 12 17  1  0
 10 19  1  0
M  END

$$$$
No_105-/export/home/yangzhenyu/potential_scad_32_flow//YTHDC2/2024-12-06-03-22-00/
     RDKit          3D

 15 15  0  0  1  0  0  0  0  0999 V2000
    1.1787   -8.0297    3.5154 C   0  0  0  0  0  0  0  0  0  0  0  0
    1.0491   -6.8434    2.9820 C   0  0  0  0  0  0  0  0  0  0  0  0
    1.9985   -8.9840    2.8958 C   0  0  2  0  0  0  0  0  0  0  0  0
    1.7297   -9.2108    1.6335 C   0  0  0  0  0  0  0  0  0  0  0  0
    1.7343   -8.0566    0.8408 C   0  0  2  0  0  0  0  0  0  0  0  0
    1.0269   -6.8892    1.4456 C   0  0  0  0  0  0  0  0  0  0  0  0
    2.0740   -7.9416   -0.3682 N   0  0  0  0  0  0  0  0  0  0  0  0
    1.9777  -10.3671    3.5678 C   0  0  0  0  0  0  0  0  0  0  0  0
    1.1899  -11.3431    3.3154 O   0  0  0  0  0  0  0  0  0  0  0  0
    2.8924  -10.5466    4.5890 O   0  0  0  0  0  0  0  0  0  0  0  0
    2.6865   -9.0302   -0.9560 C   0  0  0  0  0  0  0  0  0  0  0  0
    0.8616   -5.6521    3.5091 O   0  0  0  0  0  0  0  0  0  0  0  0
    3.6422   -8.8710   -1.8021 O   0  0  0  0  0  0  0  0  0  0  0  0
    0.8338   -5.7336    0.8863 O   0  0  0  0  0  0  0  0  0  0  0  0
    2.1317  -10.1591   -0.7899 O   0  0  0  0  0  0  0  0  0  0  0  0
  1  2  1  0
  1  3  1  0
  3  4  1  0
  4  5  1  0
  2  6  1  0
  5  6  1  0
  5  7  1  6
  3  8  1  1
  8  9  2  0
  8 10  1  0
  7 11  1  0
  2 12  2  0
 11 13  2  0
  6 14  2  0
 11 15  1  0
M  END

$$$$
No_106-/export/home/yangzhenyu/potential_scad_32_flow//YTHDC2/2024-12-06-03-22-00/
     RDKit          3D

 20 20  0  0  0  0  0  0  0  0999 V2000
    1.1787   -8.0297    3.5154 C   0  0  0  0  0  0  0  0  0  0  0  0
    1.1048   -9.2215    3.2892 C   0  0  0  0  0  0  0  0  0  0  0  0
    1.3627  -10.1721    4.3044 C   0  0  0  0  0  0  0  0  0  0  0  0
    1.7354  -11.4730    3.9023 C   0  0  0  0  0  0  0  0  0  0  0  0
    1.8080  -11.8127    2.7216 C   0  0  0  0  0  0  0  0  0  0  0  0
    1.5854  -11.0021    1.7249 C   0  0  0  0  0  0  0  0  0  0  0  0
    1.3573   -9.7389    1.9287 C   0  0  0  0  0  0  0  0  0  0  0  0
    1.1102   -8.8712    0.9017 C   0  0  0  0  0  0  0  0  0  0  0  0
    1.5724   -9.1697   -0.3048 C   0  0  0  0  0  0  0  0  0  0  0  0
    2.8854   -9.3955   -0.5183 O   0  0  0  0  0  0  0  0  0  0  0  0
    0.9279   -9.1810   -1.3560 O   0  0  0  0  0  0  0  0  0  0  0  0
    2.0676  -13.2414    2.4093 C   0  0  0  0  0  0  0  0  0  0  0  0
    2.4335  -13.6794    1.1771 O   0  0  0  0  0  0  0  0  0  0  0  0
    2.0660  -14.2103    3.3069 O   0  0  0  0  0  0  0  0  0  0  0  0
    0.1182   -7.2170    3.3813 O   0  0  0  0  0  0  0  0  0  0  0  0
    2.2319   -7.2229    3.8473 Br  0  0  0  0  0  0  0  0  0  0  0  0
    1.5855  -15.4355    2.9584 C   0  0  0  0  0  0  0  0  0  0  0  0
    0.2183  -15.5918    2.9776 C   0  0  0  0  0  0  0  0  0  0  0  0
   -0.5076  -14.6333    2.3154 C   0  0  0  0  0  0  0  0  0  0  0  0
   -1.8948  -14.8322    2.3754 C   0  0  0  0  0  0  0  0  0  0  0  0
  1  2  1  0
  7  8  1  0
  8  9  1  0
  9 10  1  0
  9 11  2  0
  5 12  1  0
 12 13  2  0
 12 14  1  0
  1 15  2  0
  1 16  1  0
 14 17  1  0
 17 18  1  0
 18 19  2  3
 19 20  1  0
  2  3  2  0
  3  4  1  0
  4  5  2  0
  5  6  1  0
  6  7  2  0
  2  7  1  0
M  END

$$$$
No_107-/export/home/yangzhenyu/potential_scad_32_flow//YTHDC2/2024-12-06-03-22-00/
     RDKit          3D

 20 21  0  0  1  0  0  0  0  0999 V2000
    1.1787   -8.0297    3.5154 C   0  0  0  0  0  0  0  0  0  0  0  0
    1.0491   -6.8434    2.9820 C   0  0  0  0  0  0  0  0  0  0  0  0
    0.2462   -8.9560    3.0873 C   0  0  1  0  0  0  0  0  0  0  0  0
    0.3295   -6.5187    1.9069 C   0  0  1  0  0  0  0  0  0  0  0  0
   -0.5260   -8.7862    2.1368 C   0  0  0  0  0  0  0  0  0  0  0  0
   -0.5458   -7.5614    1.5054 C   0  0  0  0  0  0  0  0  0  0  0  0
    0.3636   -5.3203    1.2895 C   0  0  0  0  0  0  0  0  0  0  0  0
    1.2843   -4.3993    1.8232 O   0  0  0  0  0  0  0  0  0  0  0  0
   -0.3191   -4.9268    0.2868 O   0  0  0  0  0  0  0  0  0  0  0  0
    0.3890  -10.3365    3.6422 C   0  0  0  0  0  0  0  0  0  0  0  0
   -0.7231  -11.1124    3.7576 C   0  0  0  0  0  0  0  0  0  0  0  0
    1.5882  -10.6236    4.5024 C   0  0  0  0  0  0  0  0  0  0  0  0
    1.8573  -11.8755    4.7909 C   0  0  0  0  0  0  0  0  0  0  0  0
   -0.5055  -12.4180    4.1866 C   0  0  0  0  0  0  0  0  0  0  0  0
    0.7880  -12.7756    4.6371 C   0  0  0  0  0  0  0  0  0  0  0  0
   -1.5154   -7.3287    0.6453 O   0  0  0  0  0  0  0  0  0  0  0  0
    2.7000   -9.7614    4.4499 N   0  0  0  0  0  0  0  0  0  0  0  0
   -0.9816   -3.6530    0.3418 C   0  0  0  0  0  0  0  0  0  0  0  0
   -0.6858   -2.7732   -0.4736 C   0  0  0  0  0  0  0  0  0  0  0  0
   -0.9250   -2.9939   -1.8217 O   0  0  0  0  0  0  0  0  0  0  0  0
  1  3  1  0
  2  4  1  0
  4  6  1  0
  5  6  1  0
  4  7  1  1
  7  8  2  0
  7  9  1  0
  3 10  1  6
  6 16  2  0
 12 17  1  0
  9 18  1  0
 18 19  1  0
 19 20  2  0
  1  2  1  0
  3  5  1  0
 10 11  2  0
 11 14  1  0
 14 15  2  0
 13 15  1  0
 12 13  2  0
 10 12  1  0
M  END

$$$$
No_108-/export/home/yangzhenyu/potential_scad_32_flow//YTHDC2/2024-12-06-03-22-00/
     RDKit          3D

 17 18  0  0  1  0  0  0  0  0999 V2000
    1.1787   -8.0297    3.5154 C   0  0  0  0  0  0  0  0  0  0  0  0
    1.0491   -6.8434    2.9820 C   0  0  0  0  0  0  0  0  0  0  0  0
    0.0950   -8.8404    3.2292 Cl  0  0  0  0  0  0  0  0  0  0  0  0
    1.1236   -5.6411    3.6997 C   0  0  0  0  0  0  0  0  0  0  0  0
    0.8935   -4.4192    3.0714 C   0  0  0  0  0  0  0  0  0  0  0  0
    0.9046   -4.4170    1.6447 C   0  0  0  0  0  0  0  0  0  0  0  0
    0.8745   -5.5220    0.9077 C   0  0  0  0  0  0  0  0  0  0  0  0
    1.0222   -6.7848    1.5427 C   0  0  0  0  0  0  0  0  0  0  0  0
    1.1996   -7.8078    0.8314 C   0  0  2  0  0  0  0  0  0  0  0  0
    2.6054   -8.3541    0.6294 C   0  0  0  0  0  0  0  0  0  0  0  0
    2.6660   -9.5494   -0.1492 C   0  0  0  0  0  0  0  0  0  0  0  0
    1.5877  -10.0503   -0.7001 C   0  0  0  0  0  0  0  0  0  0  0  0
    0.4070   -9.5614   -0.7118 C   0  0  0  0  0  0  0  0  0  0  0  0
    0.2202   -8.3523    0.0548 C   0  0  0  0  0  0  0  0  0  0  0  0
   -1.0266   -7.9390    0.1197 O   0  0  0  0  0  0  0  0  0  0  0  0
    0.7067   -3.0843    1.0593 O   0  0  0  0  0  0  0  0  0  0  0  0
   -0.4546   -2.8030    0.4003 C   0  0  0  0  0  0  0  0  0  0  0  0
  1  2  1  0
  1  3  1  0
  9  8  1  6
  9 10  1  0
 11 12  1  0
  9 14  1  0
 13 14  1  0
 14 15  2  0
  6 16  1  0
 16 17  1  0
 10 11  1  0
 12 13  1  0
  2  4  2  0
  4  5  1  0
  5  6  2  0
  6  7  1  0
  7  8  2  0
  2  8  1  0
M  END

$$$$
No_109-/export/home/yangzhenyu/potential_scad_32_flow//YTHDC2/2024-12-06-03-22-00/
     RDKit          3D

 20 21  0  0  0  0  0  0  0  0999 V2000
    1.1787   -8.0297    3.5154 C   0  0  0  0  0  0  0  0  0  0  0  0
    1.0491   -6.8434    2.9820 C   0  0  0  0  0  0  0  0  0  0  0  0
    0.0950   -8.8404    3.2292 C   0  0  0  0  0  0  0  0  0  0  0  0
   -0.9173   -8.4596    2.5152 C   0  0  0  0  0  0  0  0  0  0  0  0
   -1.0331   -7.2162    2.0653 C   0  0  0  0  0  0  0  0  0  0  0  0
   -2.2155   -6.7621    1.5011 C   0  0  0  0  0  0  0  0  0  0  0  0
    0.0919   -6.3006    2.2576 C   0  0  0  0  0  0  0  0  0  0  0  0
   -3.0717   -5.9641    2.1020 C   0  0  0  0  0  0  0  0  0  0  0  0
   -3.2792   -4.7065    1.9080 C   0  0  0  0  0  0  0  0  0  0  0  0
   -3.1754   -4.3840    0.5236 C   0  0  0  0  0  0  0  0  0  0  0  0
   -2.4425   -5.1450   -0.3388 C   0  0  0  0  0  0  0  0  0  0  0  0
   -1.9711   -6.3491    0.0705 C   0  0  0  0  0  0  0  0  0  0  0  0
   -1.2073   -7.1441   -0.7902 C   0  0  0  0  0  0  0  0  0  0  0  0
   -1.5908   -8.2372   -1.1607 O   0  0  0  0  0  0  0  0  0  0  0  0
    0.0409   -7.1731   -0.7839 O   0  0  0  0  0  0  0  0  0  0  0  0
    0.0961  -10.2476    3.6959 Br  0  0  0  0  0  0  0  0  0  0  0  0
   -2.3342   -4.7279   -1.8577 O   0  0  0  0  0  0  0  0  0  0  0  0
   -1.5826   -3.6647   -2.0412 C   0  0  0  0  0  0  0  0  0  0  0  0
   -0.8616   -3.1597   -1.1464 C   0  0  0  0  0  0  0  0  0  0  0  0
   -1.7886   -3.2689   -3.3116 C   0  0  0  0  0  0  0  0  0  0  0  0
  5  6  1  0
 12 13  1  0
 13 14  2  0
 13 15  1  0
  3 16  1  0
 11 17  1  0
 17 18  1  0
 18 19  1  0
 18 20  1  0
  1  2  2  0
  2  7  1  0
  5  7  2  0
  4  5  1  0
  3  4  2  0
  1  3  1  0
  6  8  2  0
  8  9  1  0
  9 10  2  0
 10 11  1  0
 11 12  2  0
  6 12  1  0
M  END

$$$$
No_110-/export/home/yangzhenyu/potential_scad_32_flow//YTHDC2/2024-12-06-03-22-00/
     RDKit          3D

 17 17  0  0  1  0  0  0  0  0999 V2000
    1.1787   -8.0297    3.5154 O   0  0  0  0  0  0  0  0  0  0  0  0
    0.9969   -8.9689    3.0048 C   0  0  1  0  0  0  0  0  0  0  0  0
    0.9976   -8.9567    1.6341 C   0  0  0  0  0  0  0  0  0  0  0  0
    0.7663   -7.7728    1.0082 C   0  0  1  0  0  0  0  0  0  0  0  0
    1.1468   -6.5619    1.6541 C   0  0  0  0  0  0  0  0  0  0  0  0
    1.3592   -6.6155    3.0007 C   0  0  0  0  0  0  0  0  0  0  0  0
    0.9781  -10.1276    3.6866 C   0  0  0  0  0  0  0  0  0  0  0  0
   -0.1772  -10.7865    4.0343 O   0  0  0  0  0  0  0  0  0  0  0  0
    2.1277  -10.7839    4.1595 N   0  0  0  0  0  0  0  0  0  0  0  0
    0.7506   -7.7890   -0.3808 C   0  0  0  0  0  0  0  0  0  0  0  0
    1.6422   -8.3628   -1.1126 C   0  0  0  0  0  0  0  0  0  0  0  0
    2.9843   -8.0870   -0.8964 O   0  0  0  0  0  0  0  0  0  0  0  0
    1.3911   -9.2522   -1.8541 O   0  0  0  0  0  0  0  0  0  0  0  0
    1.6492   -5.6005    3.7452 O   0  0  0  0  0  0  0  0  0  0  0  0
    0.7318  -10.1399    0.9984 O   0  0  0  0  0  0  0  0  0  0  0  0
    2.2521  -11.9614    4.8241 C   0  0  0  0  0  0  0  0  0  0  0  0
    2.3960  -12.8840    3.8163 C   0  0  0  0  0  0  0  0  0  0  0  0
  1  2  1  0
  2  3  1  0
  3  4  1  0
  4  5  1  0
  1  6  1  0
  5  6  1  0
  2  7  1  6
  7  8  2  0
  7  9  1  0
  4 10  1  6
 10 11  1  0
 11 12  1  0
 11 13  2  0
  6 14  2  0
  3 15  2  0
  9 16  1  0
 16 17  1  0
M  END

$$$$
No_111-/export/home/yangzhenyu/potential_scad_32_flow//YTHDC2/2024-12-06-03-22-00/
     RDKit          3D

 20 20  0  0  1  0  0  0  0  0999 V2000
    1.1787   -8.0297    3.5154 C   0  0  0  0  0  0  0  0  0  0  0  0
    1.1048   -9.2215    3.2892 C   0  0  0  0  0  0  0  0  0  0  0  0
    1.2339   -9.7611    2.0189 C   0  0  0  0  0  0  0  0  0  0  0  0
    1.4306   -8.9466    1.1170 C   0  0  0  0  0  0  0  0  0  0  0  0
    1.6532   -7.5949    1.1786 C   0  0  0  0  0  0  0  0  0  0  0  0
    1.4973   -7.0739    2.4258 C   0  0  0  0  0  0  0  0  0  0  0  0
    1.6687   -9.4437   -0.3021 C   0  0  0  0  0  0  0  0  0  0  0  0
    1.1891  -10.5277   -0.5331 O   0  0  0  0  0  0  0  0  0  0  0  0
    2.2562   -8.7531   -1.2161 O   0  0  0  0  0  0  0  0  0  0  0  0
    0.8920  -10.2083    4.3761 Cl  0  0  0  0  0  0  0  0  0  0  0  0
    1.5841   -5.3410    2.8316 Cl  0  0  0  0  0  0  0  0  0  0  0  0
    1.1863  -11.1361    1.8598 C   0  0  0  0  0  0  0  0  0  0  0  0
    2.3265  -11.6684    1.5964 S   0  0  0  0  0  0  0  0  0  0  0  0
    1.8244  -13.4952    1.4942 O   0  0  0  0  0  0  0  0  0  0  0  0
    3.0737  -12.1097    2.8687 C   0  0  2  0  0  0  0  0  0  0  0  0
    2.4694  -13.1257    3.8490 N   0  0  0  0  0  0  0  0  0  0  0  0
    3.7253  -11.1377    3.7043 C   0  0  0  0  0  0  0  0  0  0  0  0
    4.0476  -11.6057    5.1339 O   0  0  0  0  0  0  0  0  0  0  0  0
    1.1577  -13.3074    3.9412 C   0  0  0  0  0  0  0  0  0  0  0  0
    0.9050  -14.7712    3.7112 C   0  0  0  0  0  0  0  0  0  0  0  0
  4  7  1  0
  7  8  2  0
  7  9  1  0
  2 10  1  0
  6 11  1  0
  3 12  1  0
 13 12  1  1
 13 14  2  0
 13 15  1  0
 15 16  1  0
 15 17  1  1
 17 18  1  0
 16 19  1  0
 19 20  1  0
  1  2  2  0
  2  3  1  0
  3  4  2  0
  4  5  1  0
  5  6  2  0
  1  6  1  0
M  END

$$$$
No_112-/export/home/yangzhenyu/potential_scad_32_flow//YTHDC2/2024-12-06-03-22-00/
     RDKit          3D

 20 20  0  0  1  0  0  0  0  0999 V2000
    1.1787   -8.0297    3.5154 O   0  0  0  0  0  0  0  0  0  0  0  0
    0.6747   -7.4019    2.7838 C   0  0  0  0  0  0  0  0  0  0  0  0
    0.7594   -8.0032    1.4295 C   0  0  1  0  0  0  0  0  0  0  0  0
    0.3459   -9.1500    1.3581 C   0  0  0  0  0  0  0  0  0  0  0  0
    1.1876  -10.0065    2.0240 C   0  0  1  0  0  0  0  0  0  0  0  0
    1.2267   -9.5257    3.5507 C   0  0  1  0  0  0  0  0  0  0  0  0
    1.9919  -10.3918    4.3814 C   0  0  0  0  0  0  0  0  0  0  0  0
    1.3664  -11.6452    4.6708 O   0  0  0  0  0  0  0  0  0  0  0  0
    3.0872  -10.2070    4.9651 O   0  0  0  0  0  0  0  0  0  0  0  0
    0.1194   -6.9470    0.5011 C   0  0  0  0  0  0  0  0  0  0  0  0
    0.1049   -5.6241    0.8864 O   0  0  0  0  0  0  0  0  0  0  0  0
   -0.2541   -7.1844   -0.6306 O   0  0  0  0  0  0  0  0  0  0  0  0
    1.6877  -11.1898    1.8217 C   0  0  0  0  0  0  0  0  0  0  0  0
    0.9808  -11.9305    0.8472 O   0  0  0  0  0  0  0  0  0  0  0  0
    2.8926  -11.5921    1.9886 O   0  0  0  0  0  0  0  0  0  0  0  0
   -1.4624   -6.7873   -1.0992 C   0  0  0  0  0  0  0  0  0  0  0  0
   -1.6292   -6.9069   -2.5023 C   0  0  0  0  0  0  0  0  0  0  0  0
   -0.8845   -7.9509   -3.0315 C   0  0  0  0  0  0  0  0  0  0  0  0
   -1.0068   -7.9328   -4.4767 O   0  0  0  0  0  0  0  0  0  0  0  0
   -0.6298   -9.0525   -2.6237 O   0  0  0  0  0  0  0  0  0  0  0  0
  1  2  1  0
  2  3  1  0
  3  4  1  0
  4  5  1  0
  1  6  1  0
  5  6  1  0
  6  7  1  6
  7  8  1  0
  7  9  2  0
  3 10  1  6
 10 11  2  0
 10 12  1  0
  5 13  1  1
 13 14  2  0
 13 15  1  0
 12 16  1  0
 16 17  1  0
 17 18  1  0
 18 19  2  0
 18 20  1  0
M  END

$$$$
No_113-/export/home/yangzhenyu/potential_scad_32_flow//YTHDC2/2024-12-06-03-22-00/
     RDKit          3D

 18 18  0  0  0  0  0  0  0  0999 V2000
    1.1787   -8.0297    3.5154 C   0  0  0  0  0  0  0  0  0  0  0  0
    1.1048   -9.2215    3.2892 C   0  0  0  0  0  0  0  0  0  0  0  0
    1.3627  -10.1721    4.3044 C   0  0  0  0  0  0  0  0  0  0  0  0
    1.7354  -11.4730    3.9023 C   0  0  0  0  0  0  0  0  0  0  0  0
    1.8080  -11.8127    2.7216 C   0  0  0  0  0  0  0  0  0  0  0  0
    1.5854  -11.0021    1.7249 C   0  0  0  0  0  0  0  0  0  0  0  0
    1.3573   -9.7389    1.9287 C   0  0  0  0  0  0  0  0  0  0  0  0
    1.1102   -8.8712    0.9017 C   0  0  0  0  0  0  0  0  0  0  0  0
    0.5299   -7.6926    1.0325 O   0  0  0  0  0  0  0  0  0  0  0  0
    1.3970   -9.2634   -0.4035 O   0  0  0  0  0  0  0  0  0  0  0  0
    2.1059  -13.2053    2.3252 C   0  0  0  0  0  0  0  0  0  0  0  0
    2.4407  -13.5903    1.0757 N   0  0  0  0  0  0  0  0  0  0  0  0
    2.0151  -14.1813    3.2059 O   0  0  0  0  0  0  0  0  0  0  0  0
    2.5012   -7.3522    3.5352 O   0  0  0  0  0  0  0  0  0  0  0  0
    0.1842   -7.3134    3.7579 O   0  0  0  0  0  0  0  0  0  0  0  0
    2.7434  -14.8399    0.8788 C   0  0  0  0  0  0  0  0  0  0  0  0
    1.6519  -15.6609    0.5878 C   0  0  0  0  0  0  0  0  0  0  0  0
    1.5703  -16.9608    0.9842 N   0  0  0  0  0  0  0  0  0  0  0  0
  1  2  1  0
  7  8  1  0
  8  9  2  0
  8 10  1  0
  5 11  1  0
 11 12  1  0
 11 13  2  0
  1 14  1  0
  1 15  2  0
 12 16  1  0
 16 17  1  0
 17 18  1  0
  2  3  2  0
  3  4  1  0
  4  5  2  0
  5  6  1  0
  6  7  2  0
  2  7  1  0
M  END

$$$$
No_114-/export/home/yangzhenyu/potential_scad_32_flow//YTHDC2/2024-12-06-03-22-00/
     RDKit          3D

 19 19  0  0  1  0  0  0  0  0999 V2000
    1.1787   -8.0297    3.5154 C   0  0  0  0  0  0  0  0  0  0  0  0
    1.0491   -6.8434    2.9820 C   0  0  0  0  0  0  0  0  0  0  0  0
    1.9985   -8.9840    2.8958 C   0  0  1  0  0  0  0  0  0  0  0  0
    1.9135  -10.3404    3.6266 C   0  0  0  0  0  0  0  0  0  0  0  0
    1.3291  -11.3908    3.0222 C   0  0  1  0  0  0  0  0  0  0  0  0
    1.0344  -11.3281    1.7959 C   0  0  0  0  0  0  0  0  0  0  0  0
    1.7340   -5.8103    3.4001 O   0  0  0  0  0  0  0  0  0  0  0  0
    1.4683  -10.2862    0.9512 C   0  0  0  0  0  0  0  0  0  0  0  0
    1.6902   -9.0191    1.5406 C   0  0  0  0  0  0  0  0  0  0  0  0
    1.2865  -10.3049   -0.3660 O   0  0  0  0  0  0  0  0  0  0  0  0
    2.1223   -8.0567    0.8007 O   0  0  0  0  0  0  0  0  0  0  0  0
    1.4507  -12.5981    3.5875 C   0  0  0  0  0  0  0  0  0  0  0  0
    1.2245  -13.6627    2.7405 C   0  0  1  0  0  0  0  0  0  0  0  0
    2.3625  -14.2863    2.3385 C   0  0  0  0  0  0  0  0  0  0  0  0
    2.2509  -15.4886    1.6878 O   0  0  0  0  0  0  0  0  0  0  0  0
    0.5210   -6.6652    1.7603 O   0  0  0  0  0  0  0  0  0  0  0  0
    3.5640  -14.0177    2.6239 O   0  0  0  0  0  0  0  0  0  0  0  0
    2.5948  -10.3171    4.7589 O   0  0  0  0  0  0  0  0  0  0  0  0
    0.0050  -14.2173    2.6072 C   0  0  0  0  0  0  0  0  0  0  0  0
  1  2  1  0
  3  1  1  1
  3  4  1  0
  4  5  1  0
  5  6  1  0
  2  7  1  0
  6  8  1  0
  3  9  1  0
  8  9  1  0
  8 10  2  0
  9 11  2  0
  5 12  1  6
 12 13  1  0
 13 14  1  0
 14 15  2  0
  2 16  2  0
 14 17  1  0
  4 18  2  0
 13 19  1  1
M  END

$$$$
No_115-/export/home/yangzhenyu/potential_scad_32_flow//YTHDC2/2024-12-06-03-22-00/
     RDKit          3D

 19 20  0  0  0  0  0  0  0  0999 V2000
    1.1787   -8.0297    3.5154 C   0  0  0  0  0  0  0  0  0  0  0  0
    1.1048   -9.2215    3.2892 C   0  0  0  0  0  0  0  0  0  0  0  0
    1.4683  -10.2314    4.1915 C   0  0  0  0  0  0  0  0  0  0  0  0
    0.8445   -6.9865    2.5175 C   0  0  0  0  0  0  0  0  0  0  0  0
    0.3587   -7.3973    1.3953 C   0  0  0  0  0  0  0  0  0  0  0  0
    0.1901   -8.6971    1.0711 C   0  0  0  0  0  0  0  0  0  0  0  0
    0.5759   -9.6647    1.9442 C   0  0  0  0  0  0  0  0  0  0  0  0
    0.6465  -11.4192    4.2286 O   0  0  0  0  0  0  0  0  0  0  0  0
    2.6078  -10.2574    4.8427 O   0  0  0  0  0  0  0  0  0  0  0  0
   -0.0386   -6.5070    0.3689 C   0  0  0  0  0  0  0  0  0  0  0  0
   -0.9795   -6.8512   -0.4465 C   0  0  0  0  0  0  0  0  0  0  0  0
   -1.4507   -5.9992   -1.4956 C   0  0  0  0  0  0  0  0  0  0  0  0
   -2.0355   -6.4571   -2.6140 C   0  0  0  0  0  0  0  0  0  0  0  0
   -2.3737   -5.5468   -3.6550 C   0  0  0  0  0  0  0  0  0  0  0  0
   -2.7904   -4.2945   -3.4835 C   0  0  0  0  0  0  0  0  0  0  0  0
   -2.3669   -3.7683   -2.1993 C   0  0  0  0  0  0  0  0  0  0  0  0
   -1.8716   -4.4498   -1.2264 C   0  0  0  0  0  0  0  0  0  0  0  0
   -2.6103   -2.2704   -2.0733 C   0  0  0  0  0  0  0  0  0  0  0  0
   -3.3816   -1.7631   -2.8021 O   0  0  0  0  0  0  0  0  0  0  0  0
  2  3  1  0
  3  8  1  0
  3  9  2  0
  5 10  1  0
 10 11  2  3
 11 12  1  0
 16 18  1  0
 18 19  2  0
 12 13  2  0
 13 14  1  0
 14 15  2  0
 15 16  1  0
 16 17  2  0
 12 17  1  0
  1  2  2  0
  2  7  1  0
  6  7  2  0
  5  6  1  0
  4  5  2  0
  1  4  1  0
M  END

$$$$
No_116-/export/home/yangzhenyu/potential_scad_32_flow//YTHDC2/2024-12-06-03-22-00/
     RDKit          3D

 18 17  0  0  1  0  0  0  0  0999 V2000
    1.1787   -8.0297    3.5154 C   0  0  1  0  0  0  0  0  0  0  0  0
    1.0491   -6.8434    2.9820 C   0  0  2  0  0  0  0  0  0  0  0  0
    0.9905   -9.0774    2.6527 Cl  0  0  0  0  0  0  0  0  0  0  0  0
    0.7612   -6.7094    1.6108 C   0  0  0  0  0  0  0  0  0  0  0  0
   -0.1202   -5.6921    1.3113 O   0  0  0  0  0  0  0  0  0  0  0  0
    1.5947   -7.0136    0.6903 O   0  0  0  0  0  0  0  0  0  0  0  0
    1.4663   -5.6447    3.7006 Cl  0  0  0  0  0  0  0  0  0  0  0  0
    2.5174   -8.1979    4.0245 C   0  0  0  0  0  0  0  0  0  0  0  0
    2.9152   -9.7235    4.0928 N   0  0  0  0  0  0  0  0  0  0  0  0
    2.8388  -10.5913    5.0324 C   0  0  0  0  0  0  0  0  0  0  0  0
    3.3338  -11.8343    4.7318 N   0  0  0  0  0  0  0  0  0  0  0  0
    2.5134  -10.3883    6.1462 O   0  0  0  0  0  0  0  0  0  0  0  0
   -0.4492   -5.1631    0.2813 C   0  0  0  0  0  0  0  0  0  0  0  0
   -0.6887   -3.8279    0.3312 C   0  0  0  0  0  0  0  0  0  0  0  0
    0.3202   -3.0836    0.7680 C   0  0  0  0  0  0  0  0  0  0  0  0
    0.2476   -2.0471    1.6220 C   0  0  0  0  0  0  0  0  0  0  0  0
   -1.0319   -1.6326    1.6729 C   0  0  0  0  0  0  0  0  0  0  0  0
   -2.1053   -2.2052    1.1843 C   0  0  0  0  0  0  0  0  0  0  0  0
  1  2  1  0
  1  3  1  6
  2  4  1  0
  4  5  1  0
  4  6  2  0
  2  7  1  6
  1  8  1  0
  8  9  1  0
  9 10  1  0
 10 11  1  0
 10 12  2  0
  5 13  1  0
 13 14  1  0
 14 15  1  0
 15 16  2  3
 16 17  1  0
 17 18  2  0
M  END

$$$$
No_117-/export/home/yangzhenyu/potential_scad_32_flow//YTHDC2/2024-12-06-03-22-00/
     RDKit          3D

 18 18  0  0  0  0  0  0  0  0999 V2000
    1.1787   -8.0297    3.5154 C   0  0  0  0  0  0  0  0  0  0  0  0
    1.1048   -9.2215    3.2892 C   0  0  0  0  0  0  0  0  0  0  0  0
    1.4683  -10.2314    4.1915 C   0  0  0  0  0  0  0  0  0  0  0  0
    0.8445   -6.9865    2.5175 C   0  0  0  0  0  0  0  0  0  0  0  0
    0.3587   -7.3973    1.3953 C   0  0  0  0  0  0  0  0  0  0  0  0
    0.1901   -8.6971    1.0711 C   0  0  0  0  0  0  0  0  0  0  0  0
    0.5759   -9.6647    1.9442 C   0  0  0  0  0  0  0  0  0  0  0  0
    0.6934  -11.4709    4.1321 O   0  0  0  0  0  0  0  0  0  0  0  0
   -1.2127   -8.9863    0.7880 C   0  0  0  0  0  0  0  0  0  0  0  0
   -2.0203   -9.4191    1.6309 O   0  0  0  0  0  0  0  0  0  0  0  0
    2.7669  -10.4587    4.6184 O   0  0  0  0  0  0  0  0  0  0  0  0
   -1.6376   -8.7619   -0.4668 C   0  0  0  0  0  0  0  0  0  0  0  0
   -0.7570   -8.4590   -1.4738 O   0  0  0  0  0  0  0  0  0  0  0  0
   -2.9175   -8.9218   -0.7662 N   0  0  0  0  0  0  0  0  0  0  0  0
    1.1711   -5.3420    2.8892 Cl  0  0  0  0  0  0  0  0  0  0  0  0
   -3.7452   -9.3300    0.1896 C   0  0  0  0  0  0  0  0  0  0  0  0
   -4.9883   -9.3186   -0.1384 C   0  0  0  0  0  0  0  0  0  0  0  0
   -5.8548   -9.6702    0.8641 C   0  0  0  0  0  0  0  0  0  0  0  0
  2  3  1  0
  3  8  1  0
  6  9  1  0
  9 10  1  0
  3 11  2  0
  9 12  1  0
 12 13  2  0
 12 14  1  0
  4 15  1  0
 14 16  1  0
 16 17  1  0
 17 18  2  0
  1  2  2  0
  2  7  1  0
  6  7  2  0
  5  6  1  0
  4  5  2  0
  1  4  1  0
M  END

$$$$
No_118-/export/home/yangzhenyu/potential_scad_32_flow//YTHDC2/2024-12-06-03-22-00/
     RDKit          3D

 18 17  0  0  1  0  0  0  0  0999 V2000
    1.1787   -8.0297    3.5154 O   0  0  0  0  0  0  0  0  0  0  0  0
    0.6747   -7.4019    2.7838 C   0  0  0  0  0  0  0  0  0  0  0  0
    0.5570   -6.0797    2.8560 C   0  0  1  0  0  0  0  0  0  0  0  0
    1.6734   -5.4651    3.4094 C   0  0  0  0  0  0  0  0  0  0  0  0
    1.4143   -9.4928    3.3921 C   0  0  0  0  0  0  0  0  0  0  0  0
    1.2094  -10.0943    2.2496 C   0  0  0  0  0  0  0  0  0  0  0  0
    1.4019  -11.5266    2.0437 C   0  0  0  0  0  0  0  0  0  0  0  0
    1.7942  -12.2909    3.1585 C   0  0  0  0  0  0  0  0  0  0  0  0
    1.8641  -13.7664    2.9806 C   0  0  0  0  0  0  0  0  0  0  0  0
    0.7876  -14.5065    3.1839 O   0  0  0  0  0  0  0  0  0  0  0  0
    2.9105  -14.2486    2.4082 O   0  0  0  0  0  0  0  0  0  0  0  0
    0.1415   -5.3896    1.5339 C   0  0  0  0  0  0  0  0  0  0  0  0
   -0.6004   -6.1190    0.9248 C   0  0  0  0  0  0  0  0  0  0  0  0
   -1.8405   -5.6214    0.4741 O   0  0  0  0  0  0  0  0  0  0  0  0
   -0.3496   -7.2088    0.1855 O   0  0  0  0  0  0  0  0  0  0  0  0
    1.5513   -3.9837    3.5433 O   0  0  0  0  0  0  0  0  0  0  0  0
    1.3694  -12.0061    0.7303 C   0  0  0  0  0  0  0  0  0  0  0  0
    1.1835  -13.0071    0.4658 O   0  0  0  0  0  0  0  0  0  0  0  0
  1  2  1  0
  3  2  1  6
  3  4  1  0
  1  5  1  0
  5  6  2  3
  6  7  1  0
  7  8  2  3
  8  9  1  0
  9 10  1  0
  9 11  2  0
  3 12  1  0
 12 13  1  0
 13 14  2  0
 13 15  1  0
  4 16  1  0
  7 17  1  0
 17 18  2  0
M  END

$$$$
No_119-/export/home/yangzhenyu/potential_scad_32_flow//YTHDC2/2024-12-06-03-22-00/
     RDKit          3D

 18 18  0  0  1  0  0  0  0  0999 V2000
    1.1787   -8.0297    3.5154 C   0  0  2  0  0  0  0  0  0  0  0  0
    1.0491   -6.8434    2.9820 O   0  0  0  0  0  0  0  0  0  0  0  0
    1.9898   -8.9833    2.9120 C   0  0  0  0  0  0  0  0  0  0  0  0
    1.9301  -10.2956    3.6452 C   0  0  1  0  0  0  0  0  0  0  0  0
    0.9981  -10.5826    4.4205 C   0  0  1  0  0  0  0  0  0  0  0  0
   -0.0865   -9.7283    4.6110 C   0  0  0  0  0  0  0  0  0  0  0  0
   -0.0325   -8.4684    4.0656 C   0  0  0  0  0  0  0  0  0  0  0  0
    0.9076   -6.6570    1.6049 C   0  0  0  0  0  0  0  0  0  0  0  0
    0.8441   -5.2310    1.4278 O   0  0  0  0  0  0  0  0  0  0  0  0
    1.0846   -7.4198    0.7850 O   0  0  0  0  0  0  0  0  0  0  0  0
    0.9094  -11.9619    4.7296 C   0  0  0  0  0  0  0  0  0  0  0  0
    0.1755  -12.8098    3.9254 O   0  0  0  0  0  0  0  0  0  0  0  0
   -1.0924   -7.8708    3.8688 O   0  0  0  0  0  0  0  0  0  0  0  0
    2.9628  -11.1042    3.1999 N   0  0  0  0  0  0  0  0  0  0  0  0
    3.2062  -11.4713    2.0578 C   0  0  0  0  0  0  0  0  0  0  0  0
    2.2417  -10.9848    1.0717 O   0  0  0  0  0  0  0  0  0  0  0  0
    1.1983  -11.7591    0.6275 C   0  0  0  0  0  0  0  0  0  0  0  0
    0.0544  -11.0485    0.3304 C   0  0  0  0  0  0  0  0  0  0  0  0
  1  2  1  6
  1  3  1  0
  4  5  1  0
  1  7  1  0
  6  7  1  0
  2  8  1  0
  8  9  2  0
  8 10  1  0
  5 11  1  6
 11 12  2  0
  7 13  2  0
  4 14  1  0
 14 15  2  3
 15 16  1  0
 16 17  1  0
 17 18  1  0
  4  3  1  6
  5  6  1  0
M  END

$$$$
No_120-/export/home/yangzhenyu/potential_scad_32_flow//YTHDC2/2024-12-06-03-22-00/
     RDKit          3D

 19 19  0  0  1  0  0  0  0  0999 V2000
    1.1787   -8.0297    3.5154 O   0  0  0  0  0  0  0  0  0  0  0  0
    0.9969   -8.9689    3.0048 C   0  0  1  0  0  0  0  0  0  0  0  0
    0.9976   -8.9567    1.6341 C   0  0  0  0  0  0  0  0  0  0  0  0
    0.7663   -7.7728    1.0082 C   0  0  1  0  0  0  0  0  0  0  0  0
    1.1468   -6.5619    1.6541 C   0  0  0  0  0  0  0  0  0  0  0  0
    1.3592   -6.6155    3.0007 C   0  0  0  0  0  0  0  0  0  0  0  0
    0.9781  -10.1276    3.6866 C   0  0  0  0  0  0  0  0  0  0  0  0
    1.9856  -10.9664    3.7361 C   0  0  0  0  0  0  0  0  0  0  0  0
    0.8263   -7.8148   -0.3756 C   0  0  0  0  0  0  0  0  0  0  0  0
   -0.4539   -7.7594   -0.9613 O   0  0  0  0  0  0  0  0  0  0  0  0
    1.7753   -8.0341   -1.1468 O   0  0  0  0  0  0  0  0  0  0  0  0
    0.8730  -10.1579    0.8684 O   0  0  0  0  0  0  0  0  0  0  0  0
    3.1456  -10.6487    4.1953 C   0  0  0  0  0  0  0  0  0  0  0  0
    3.4504  -10.9691    5.7297 O   0  0  0  0  0  0  0  0  0  0  0  0
    1.5139   -5.5764    3.7632 O   0  0  0  0  0  0  0  0  0  0  0  0
   -0.2479  -10.4364    4.4258 C   0  0  0  0  0  0  0  0  0  0  0  0
   -0.5735  -11.6601    4.6584 O   0  0  0  0  0  0  0  0  0  0  0  0
   -1.3294   -9.5331    4.5293 F   0  0  0  0  0  0  0  0  0  0  0  0
    1.2377   -5.2875    1.0911 O   0  0  0  0  0  0  0  0  0  0  0  0
  1  2  1  0
  2  3  1  0
  3  4  1  0
  4  5  1  0
  1  6  1  0
  5  6  1  0
  2  7  1  6
  7  8  1  0
  4  9  1  6
  9 10  2  0
  9 11  1  0
  3 12  2  0
  8 13  1  0
 13 14  1  0
  6 15  2  0
  7 16  1  0
 16 17  2  0
 16 18  1  0
  5 19  2  0
M  END

$$$$
No_121-/export/home/yangzhenyu/potential_scad_32_flow//YTHDC2/2024-12-06-03-22-00/
     RDKit          3D

 19 19  0  0  1  0  0  0  0  0999 V2000
    1.1787   -8.0297    3.5154 C   0  0  0  0  0  0  0  0  0  0  0  0
    1.0491   -6.8434    2.9820 C   0  0  1  0  0  0  0  0  0  0  0  0
    1.9985   -8.9840    2.8958 C   0  0  2  0  0  0  0  0  0  0  0  0
    1.7297   -9.2108    1.6335 C   0  0  0  0  0  0  0  0  0  0  0  0
    1.7343   -8.0566    0.8408 C   0  0  2  0  0  0  0  0  0  0  0  0
    1.0269   -6.8892    1.4456 C   0  0  0  0  0  0  0  0  0  0  0  0
    1.7596   -8.0979   -0.4723 C   0  0  0  0  0  0  0  0  0  0  0  0
    1.8128   -9.1679   -1.0978 O   0  0  0  0  0  0  0  0  0  0  0  0
    1.9529  -10.3729    3.5548 C   0  0  0  0  0  0  0  0  0  0  0  0
    0.9674  -10.9386    3.8162 O   0  0  0  0  0  0  0  0  0  0  0  0
    3.1450  -10.8231    3.9690 O   0  0  0  0  0  0  0  0  0  0  0  0
    0.8536   -5.6821    3.5245 C   0  0  0  0  0  0  0  0  0  0  0  0
    1.9404   -5.0645    4.1645 O   0  0  0  0  0  0  0  0  0  0  0  0
   -0.0718   -4.7725    2.9607 O   0  0  0  0  0  0  0  0  0  0  0  0
    1.0377   -5.8101    0.7569 O   0  0  0  0  0  0  0  0  0  0  0  0
    2.2066   -7.2003   -1.2228 O   0  0  0  0  0  0  0  0  0  0  0  0
   -0.2146   -3.5702    3.1724 C   0  0  0  0  0  0  0  0  0  0  0  0
    0.6756   -2.7404    2.3884 C   0  0  0  0  0  0  0  0  0  0  0  0
    0.3308   -2.4732    1.1596 C   0  0  0  0  0  0  0  0  0  0  0  0
  1  2  1  0
  1  3  1  0
  3  4  1  0
  4  5  1  0
  2  6  1  0
  5  6  1  0
  5  7  1  6
  7  8  2  0
  3  9  1  1
  9 10  2  0
  9 11  1  0
  2 12  1  1
 12 13  2  0
 12 14  1  0
  6 15  2  0
  7 16  1  0
 14 17  1  0
 17 18  1  0
 18 19  1  0
M  END

$$$$
No_122-/export/home/yangzhenyu/potential_scad_32_flow//YTHDC2/2024-12-06-03-22-00/
     RDKit          3D

 15 15  0  0  1  0  0  0  0  0999 V2000
    1.1787   -8.0297    3.5154 C   0  0  0  0  0  0  0  0  0  0  0  0
    1.0491   -6.8434    2.9820 C   0  0  0  0  0  0  0  0  0  0  0  0
    1.9985   -8.9840    2.8958 C   0  0  2  0  0  0  0  0  0  0  0  0
    1.7297   -9.2108    1.6335 C   0  0  0  0  0  0  0  0  0  0  0  0
    1.7343   -8.0566    0.8408 C   0  0  2  0  0  0  0  0  0  0  0  0
    1.0269   -6.8892    1.4456 C   0  0  0  0  0  0  0  0  0  0  0  0
    2.0740   -7.9416   -0.3682 C   0  0  0  0  0  0  0  0  0  0  0  0
    1.3156   -7.8710   -1.3006 O   0  0  0  0  0  0  0  0  0  0  0  0
    3.3909   -8.2003   -0.7964 O   0  0  0  0  0  0  0  0  0  0  0  0
    1.9615  -10.3672    3.5903 C   0  0  0  0  0  0  0  0  0  0  0  0
    2.9616  -10.5597    4.4343 O   0  0  0  0  0  0  0  0  0  0  0  0
    1.5619  -11.4724    3.0033 O   0  0  0  0  0  0  0  0  0  0  0  0
    0.9122   -5.6644    3.5236 O   0  0  0  0  0  0  0  0  0  0  0  0
    0.7259   -5.7246    0.8935 O   0  0  0  0  0  0  0  0  0  0  0  0
    2.4454  -10.2150    0.9096 O   0  0  0  0  0  0  0  0  0  0  0  0
  1  2  1  0
  1  3  1  0
  3  4  1  0
  4  5  1  0
  2  6  1  0
  5  6  1  0
  5  7  1  6
  7  8  2  0
  7  9  1  0
  3 10  1  1
 10 11  1  0
 10 12  2  0
  2 13  2  0
  6 14  2  0
  4 15  2  0
M  END

$$$$
No_123-/export/home/yangzhenyu/potential_scad_32_flow//YTHDC2/2024-12-06-03-22-00/
     RDKit          3D

 18 19  0  0  0  0  0  0  0  0999 V2000
    1.1787   -8.0297    3.5154 C   0  0  0  0  0  0  0  0  0  0  0  0
    1.0491   -6.8434    2.9820 C   0  0  0  0  0  0  0  0  0  0  0  0
    0.9905   -9.0774    2.6527 C   0  0  0  0  0  0  0  0  0  0  0  0
    1.1655  -10.4663    3.1286 C   0  0  0  0  0  0  0  0  0  0  0  0
    1.2197  -11.4898    2.5831 C   0  0  0  0  0  0  0  0  0  0  0  0
    1.0589  -11.4458    1.1293 C   0  0  0  0  0  0  0  0  0  0  0  0
    0.9638  -10.3069    0.4651 C   0  0  0  0  0  0  0  0  0  0  0  0
    0.9035  -10.1820   -0.9514 C   0  0  0  0  0  0  0  0  0  0  0  0
    1.0330   -9.0021    1.2488 C   0  0  0  0  0  0  0  0  0  0  0  0
    1.1063   -6.6735    1.4854 C   0  0  0  0  0  0  0  0  0  0  0  0
    1.0776   -7.7288    0.7178 C   0  0  0  0  0  0  0  0  0  0  0  0
   -0.4353  -10.3852   -1.3585 O   0  0  0  0  0  0  0  0  0  0  0  0
    1.4884   -9.2854   -1.6054 O   0  0  0  0  0  0  0  0  0  0  0  0
    1.3029  -13.0195    3.2502 C   0  0  0  0  0  0  0  0  0  0  0  0
    0.2191  -13.8315    3.0923 C   0  0  0  0  0  0  0  0  0  0  0  0
    0.6351  -15.2091    3.2986 N   0  0  0  0  0  0  0  0  0  0  0  0
   -0.2003  -16.1593    3.2289 C   0  0  0  0  0  0  0  0  0  0  0  0
   -1.4878  -15.7452    2.9772 O   0  0  0  0  0  0  0  0  0  0  0  0
  7  8  1  0
  8 12  2  0
  8 13  1  0
  5 14  1  0
 14 15  1  0
 15 16  1  0
 16 17  2  3
 17 18  1  0
  1  2  2  0
  2 10  1  0
 10 11  2  0
  9 11  1  0
  1  3  1  0
  3  4  2  0
  4  5  1  0
  5  6  2  0
  6  7  1  0
  7  9  2  0
  3  9  1  0
M  END

$$$$
No_124-/export/home/yangzhenyu/potential_scad_32_flow//YTHDC2/2024-12-06-03-22-00/
     RDKit          3D

 18 20  0  0  1  0  0  0  0  0999 V2000
    1.1787   -8.0297    3.5154 C   0  0  0  0  0  0  0  0  0  0  0  0
    1.1048   -9.2215    3.2892 C   0  0  0  0  0  0  0  0  0  0  0  0
    1.2339   -9.7611    2.0189 C   0  0  0  0  0  0  0  0  0  0  0  0
    1.1954  -11.2312    1.8661 C   0  0  2  0  0  0  0  0  0  0  0  0
    1.2996  -11.5815    0.5387 C   0  0  0  0  0  0  0  0  0  0  0  0
    1.3263   -7.1208    2.3229 C   0  0  0  0  0  0  0  0  0  0  0  0
    1.3693   -7.6408    1.0625 C   0  0  0  0  0  0  0  0  0  0  0  0
    1.4358   -8.9950    0.8622 C   0  0  0  0  0  0  0  0  0  0  0  0
    1.6034  -10.8414   -0.4738 S   0  0  0  0  0  0  0  0  0  0  0  0
    1.7055   -9.3279   -0.3548 N   0  0  0  0  0  0  0  0  0  0  0  0
    0.8853  -12.0003    2.9172 C   0  0  0  0  0  0  0  0  0  0  0  0
    1.2519  -13.4643    2.8549 C   0  0  0  0  0  0  0  0  0  0  0  0
    0.8657  -14.1701    2.1227 C   0  0  0  0  0  0  0  0  0  0  0  0
    0.8272  -15.5070    2.5241 C   0  0  0  0  0  0  0  0  0  0  0  0
    1.3896  -15.8994    3.8243 C   0  0  0  0  0  0  0  0  0  0  0  0
    1.2998   -5.5180    2.5907 O   0  0  0  0  0  0  0  0  0  0  0  0
    1.6907  -14.9322    4.6942 N   0  0  0  0  0  0  0  0  0  0  0  0
    1.6341  -13.7515    4.3067 N   0  0  0  0  0  0  0  0  0  0  0  0
  3  4  1  0
  4  5  1  0
  5  9  2  0
  8 10  1  0
  9 10  1  0
  4 11  1  6
 11 12  1  0
  6 16  1  0
 12 13  2  0
 13 14  1  0
 14 15  2  0
 15 17  1  0
 17 18  2  0
 12 18  1  0
  1  2  2  0
  2  3  1  0
  3  8  2  0
  7  8  1  0
  6  7  2  0
  1  6  1  0
M  END

$$$$
No_125-/export/home/yangzhenyu/potential_scad_32_flow//YTHDC2/2024-12-06-03-22-00/
     RDKit          3D

 18 18  0  0  1  0  0  0  0  0999 V2000
    1.1787   -8.0297    3.5154 C   0  0  0  0  0  0  0  0  0  0  0  0
    1.1048   -9.2215    3.2892 C   0  0  0  0  0  0  0  0  0  0  0  0
    1.3627  -10.1721    4.3044 C   0  0  0  0  0  0  0  0  0  0  0  0
    1.7354  -11.4730    3.9023 C   0  0  0  0  0  0  0  0  0  0  0  0
    1.8080  -11.8127    2.7216 C   0  0  0  0  0  0  0  0  0  0  0  0
    1.5854  -11.0021    1.7249 C   0  0  0  0  0  0  0  0  0  0  0  0
    1.7689  -11.5851    0.3632 C   0  0  0  0  0  0  0  0  0  0  0  0
    1.3152   -9.6753    1.9048 C   0  0  0  0  0  0  0  0  0  0  0  0
    1.2315   -8.7938    0.9755 C   0  0  1  0  0  0  0  0  0  0  0  0
    2.3521   -8.5595    0.2093 C   0  0  0  0  0  0  0  0  0  0  0  0
    2.1469   -8.1104   -1.1269 O   0  0  0  0  0  0  0  0  0  0  0  0
    1.9608  -13.1879    2.4267 I   0  0  0  0  0  0  0  0  0  0  0  0
    2.3720   -7.2780    3.6607 O   0  0  0  0  0  0  0  0  0  0  0  0
    0.1120   -7.2771    3.5194 N   0  0  0  0  0  0  0  0  0  0  0  0
    0.1193   -8.9201    0.0608 O   0  0  0  0  0  0  0  0  0  0  0  0
   -1.1323   -8.7181    0.5509 C   0  0  0  0  0  0  0  0  0  0  0  0
    3.5014   -8.5541    0.6449 O   0  0  0  0  0  0  0  0  0  0  0  0
   -1.9055   -9.8498    0.7644 C   0  0  0  0  0  0  0  0  0  0  0  0
  1  2  1  0
  6  7  1  0
  8  9  1  0
  9 10  1  0
 10 11  1  0
  5 12  1  0
  1 13  2  0
  1 14  1  0
  9 15  1  6
 15 16  1  0
 10 17  2  0
 16 18  1  0
  2  3  2  0
  3  4  1  0
  4  5  2  0
  5  6  1  0
  6  8  2  0
  2  8  1  0
M  END

$$$$
No_126-/export/home/yangzhenyu/potential_scad_32_flow//YTHDC2/2024-12-06-03-22-00/
     RDKit          3D

 19 19  0  0  1  0  0  0  0  0999 V2000
    1.1787   -8.0297    3.5154 C   0  0  0  0  0  0  0  0  0  0  0  0
    1.0491   -6.8434    2.9820 C   0  0  0  0  0  0  0  0  0  0  0  0
    1.9985   -8.9840    2.8958 C   0  0  0  0  0  0  0  0  0  0  0  0
    1.9135  -10.3404    3.6266 C   0  0  2  0  0  0  0  0  0  0  0  0
    2.2847  -10.5440    4.7936 C   0  0  0  0  0  0  0  0  0  0  0  0
    1.4242   -6.5584    1.8146 I   0  0  0  0  0  0  0  0  0  0  0  0
    2.5156  -11.3996    2.6340 C   0  0  0  0  0  0  0  0  0  0  0  0
    1.9023  -12.6312    2.7950 C   0  0  0  0  0  0  0  0  0  0  0  0
    1.0440  -12.9212    3.4353 C   0  0  0  0  0  0  0  0  0  0  0  0
    2.3959  -13.5712    1.6684 C   0  0  0  0  0  0  0  0  0  0  0  0
    1.9420  -14.8330    1.6168 C   0  0  0  0  0  0  0  0  0  0  0  0
    1.1672  -15.3155    2.5926 C   0  0  0  0  0  0  0  0  0  0  0  0
    0.6714  -14.3658    3.5359 C   0  0  0  0  0  0  0  0  0  0  0  0
    0.8119  -16.6529    2.5241 Cl  0  0  0  0  0  0  0  0  0  0  0  0
    3.6727  -10.3177    5.1373 C   0  0  0  0  0  0  0  0  0  0  0  0
    4.0167  -10.6484    6.4325 O   0  0  0  0  0  0  0  0  0  0  0  0
    4.6186  -10.6141    4.4133 O   0  0  0  0  0  0  0  0  0  0  0  0
    0.7906   -5.8555    3.9817 O   0  0  0  0  0  0  0  0  0  0  0  0
    3.1585  -13.1315    0.5837 O   0  0  0  0  0  0  0  0  0  0  0  0
  1  2  1  0
  1  3  1  0
  4  3  1  6
  4  5  1  0
  2  6  1  0
  4  7  1  0
  7  8  1  0
 12 14  1  0
  5 15  1  0
 15 16  1  0
 15 17  2  0
  2 18  2  0
 10 19  1  0
  8  9  2  0
  9 13  1  0
 12 13  2  0
 11 12  1  0
 10 11  2  0
  8 10  1  0
M  END

$$$$
No_127-/export/home/yangzhenyu/potential_scad_32_flow//YTHDC2/2024-12-06-03-22-00/
     RDKit          3D

 21 20  0  0  1  0  0  0  0  0999 V2000
    1.1787   -8.0297    3.5154 C   0  0  0  0  0  0  0  0  0  0  0  0
    1.0491   -6.8434    2.9820 C   0  0  0  0  0  0  0  0  0  0  0  0
    1.9985   -8.9840    2.8958 C   0  0  1  0  0  0  0  0  0  0  0  0
    1.9135  -10.3404    3.6266 C   0  0  0  0  0  0  0  0  0  0  0  0
    0.7479  -10.9191    3.7202 C   0  0  0  0  0  0  0  0  0  0  0  0
    0.2782   -6.7158    1.8352 O   0  0  0  0  0  0  0  0  0  0  0  0
    0.6700  -12.2876    3.5382 C   0  0  0  0  0  0  0  0  0  0  0  0
    0.9613  -12.5864    2.1138 C   0  0  0  0  0  0  0  0  0  0  0  0
    1.8046  -13.6471    1.9334 O   0  0  0  0  0  0  0  0  0  0  0  0
    1.7030   -5.7150    3.2772 O   0  0  0  0  0  0  0  0  0  0  0  0
    0.4609  -11.9080    1.1831 O   0  0  0  0  0  0  0  0  0  0  0  0
    2.2998   -9.0447    1.6440 C   0  0  0  0  0  0  0  0  0  0  0  0
    1.4864   -8.3997    0.6377 C   0  0  0  0  0  0  0  0  0  0  0  0
    2.1041   -8.3468   -0.6599 C   0  0  0  0  0  0  0  0  0  0  0  0
    2.1780   -9.3385   -1.4117 O   0  0  0  0  0  0  0  0  0  0  0  0
    2.5482   -7.3411   -1.1840 O   0  0  0  0  0  0  0  0  0  0  0  0
    1.7209  -14.7791    2.7676 C   0  0  0  0  0  0  0  0  0  0  0  0
    0.4518  -15.5245    2.5282 C   0  0  0  0  0  0  0  0  0  0  0  0
    0.5843  -16.8208    2.6894 C   0  0  0  0  0  0  0  0  0  0  0  0
    1.5148  -17.3631    2.0691 C   0  0  0  0  0  0  0  0  0  0  0  0
    2.2857  -18.5447    2.4140 C   0  0  0  0  0  0  0  0  0  0  0  0
  1  2  1  0
  3  1  1  6
  3  4  1  0
  4  5  1  0
  2  6  2  0
  5  7  1  0
  7  8  1  0
  8  9  1  0
  2 10  1  0
  8 11  2  0
  3 12  1  0
 12 13  1  0
 13 14  1  0
 14 15  2  0
 14 16  1  0
  9 17  1  0
 17 18  1  0
 18 19  1  0
 19 20  1  0
 20 21  2  0
M  END

$$$$
No_128-/export/home/yangzhenyu/potential_scad_32_flow//YTHDC2/2024-12-06-03-22-00/
     RDKit          3D

 19 19  0  0  0  0  0  0  0  0999 V2000
    1.1787   -8.0297    3.5154 C   0  0  0  0  0  0  0  0  0  0  0  0
    1.1048   -9.2215    3.2892 C   0  0  0  0  0  0  0  0  0  0  0  0
    1.3627  -10.1721    4.3044 C   0  0  0  0  0  0  0  0  0  0  0  0
    1.7354  -11.4730    3.9023 C   0  0  0  0  0  0  0  0  0  0  0  0
    1.8080  -11.8127    2.7216 C   0  0  0  0  0  0  0  0  0  0  0  0
    1.5854  -11.0021    1.7249 C   0  0  0  0  0  0  0  0  0  0  0  0
    1.3573   -9.7389    1.9287 C   0  0  0  0  0  0  0  0  0  0  0  0
    1.2865   -8.8078    0.9161 C   0  0  0  0  0  0  0  0  0  0  0  0
    1.6845   -9.1638   -0.2896 C   0  0  0  0  0  0  0  0  0  0  0  0
    2.0771  -13.2284    2.3629 C   0  0  0  0  0  0  0  0  0  0  0  0
    1.8625  -14.2425    3.1385 O   0  0  0  0  0  0  0  0  0  0  0  0
    2.9265  -13.4375    1.3576 O   0  0  0  0  0  0  0  0  0  0  0  0
    1.6260   -8.1305   -1.3736 O   0  0  0  0  0  0  0  0  0  0  0  0
    0.1117   -7.2203    3.3466 O   0  0  0  0  0  0  0  0  0  0  0  0
    2.1931   -7.2226    3.9308 O   0  0  0  0  0  0  0  0  0  0  0  0
    2.4054  -10.1477   -0.6482 O   0  0  0  0  0  0  0  0  0  0  0  0
    1.9540  -15.5236    2.6120 C   0  0  0  0  0  0  0  0  0  0  0  0
    0.8462  -16.3099    2.7742 C   0  0  0  0  0  0  0  0  0  0  0  0
    0.9699  -17.5384    2.8741 O   0  0  0  0  0  0  0  0  0  0  0  0
  1  2  1  0
  7  8  1  0
  8  9  2  3
  5 10  1  0
 10 11  1  0
 10 12  2  0
  9 13  1  0
  1 14  2  0
  1 15  1  0
  9 16  1  0
 11 17  1  0
 17 18  1  0
 18 19  1  0
  2  3  2  0
  3  4  1  0
  4  5  2  0
  5  6  1  0
  6  7  2  0
  2  7  1  0
M  END

$$$$
No_129-/export/home/yangzhenyu/potential_scad_32_flow//YTHDC2/2024-12-06-03-22-00/
     RDKit          3D

 20 20  0  0  1  0  0  0  0  0999 V2000
    1.1787   -8.0297    3.5154 C   0  0  0  0  0  0  0  0  0  0  0  0
    1.0491   -6.8434    2.9820 C   0  0  0  0  0  0  0  0  0  0  0  0
    1.0690   -9.1150    2.7206 C   0  0  0  0  0  0  0  0  0  0  0  0
    0.9689   -6.6391    1.6260 C   0  0  0  0  0  0  0  0  0  0  0  0
    0.9670   -9.0334    1.3824 C   0  0  0  0  0  0  0  0  0  0  0  0
    0.8189   -7.7113    0.8022 C   0  0  0  0  0  0  0  0  0  0  0  0
    1.2356  -10.6383    3.3202 Cl  0  0  0  0  0  0  0  0  0  0  0  0
    0.8353  -10.2290    0.4193 C   0  0  0  0  0  0  0  0  0  0  0  0
   -0.1483  -10.7436    0.4240 O   0  0  0  0  0  0  0  0  0  0  0  0
    1.8602  -10.4300   -0.2111 O   0  0  0  0  0  0  0  0  0  0  0  0
    0.9268   -5.3183    1.0803 Cl  0  0  0  0  0  0  0  0  0  0  0  0
    1.2915   -5.6130    3.9879 P   0  0  1  0  0  0  0  0  0  0  0  0
    2.5052   -5.5601    4.5633 O   0  0  0  0  0  0  0  0  0  0  0  0
    1.1100   -4.1931    3.1471 O   0  0  0  0  0  0  0  0  0  0  0  0
   -1.4490  -10.2479    0.2430 C   0  0  0  0  0  0  0  0  0  0  0  0
   -1.8032  -10.0981   -1.1159 C   0  0  0  0  0  0  0  0  0  0  0  0
   -1.2641   -8.8902   -1.6986 O   0  0  0  0  0  0  0  0  0  0  0  0
   -1.2178   -8.6501   -2.9273 C   0  0  0  0  0  0  0  0  0  0  0  0
   -1.1521   -7.3507   -3.3818 O   0  0  0  0  0  0  0  0  0  0  0  0
   -1.2754   -9.7024   -3.7663 O   0  0  0  0  0  0  0  0  0  0  0  0
  3  7  1  0
  5  8  1  0
  8  9  1  0
  8 10  2  0
  4 11  1  0
  2 12  1  0
 12 13  1  6
 12 14  2  0
  9 15  1  0
 15 16  1  0
 16 17  1  0
 17 18  1  0
 18 19  2  0
 18 20  1  0
  1  2  2  0
  2  4  1  0
  4  6  2  0
  5  6  1  0
  3  5  2  0
  1  3  1  0
M  END

$$$$
No_130-/export/home/yangzhenyu/potential_scad_32_flow//YTHDC2/2024-12-06-03-22-00/
     RDKit          3D

 17 17  0  0  0  0  0  0  0  0999 V2000
    1.1787   -8.0297    3.5154 C   0  0  0  0  0  0  0  0  0  0  0  0
    1.1048   -9.2215    3.2892 C   0  0  0  0  0  0  0  0  0  0  0  0
    1.4683  -10.2314    4.1915 C   0  0  0  0  0  0  0  0  0  0  0  0
    0.8445   -6.9865    2.5175 C   0  0  0  0  0  0  0  0  0  0  0  0
    0.3587   -7.3973    1.3953 C   0  0  0  0  0  0  0  0  0  0  0  0
    0.1901   -8.6971    1.0711 C   0  0  0  0  0  0  0  0  0  0  0  0
    0.5759   -9.6648    1.9442 C   0  0  0  0  0  0  0  0  0  0  0  0
    2.7321  -10.4989    4.4285 O   0  0  0  0  0  0  0  0  0  0  0  0
    0.5516  -10.9367    4.7490 O   0  0  0  0  0  0  0  0  0  0  0  0
   -0.0412   -6.5159    0.3615 O   0  0  0  0  0  0  0  0  0  0  0  0
    1.0198   -5.5717    2.8645 O   0  0  0  0  0  0  0  0  0  0  0  0
   -0.3305   -9.1928   -0.1363 C   0  0  0  0  0  0  0  0  0  0  0  0
    0.2399   -9.0049   -1.2773 C   0  0  0  0  0  0  0  0  0  0  0  0
    1.5837   -8.9201   -1.3610 O   0  0  0  0  0  0  0  0  0  0  0  0
   -0.2384   -9.3869   -2.4610 O   0  0  0  0  0  0  0  0  0  0  0  0
    0.4241  -11.0371    1.6525 C   0  0  0  0  0  0  0  0  0  0  0  0
   -0.7472  -11.7217    1.6654 C   0  0  0  0  0  0  0  0  0  0  0  0
  2  3  1  0
  3  8  1  0
  3  9  2  0
  5 10  1  0
  4 11  1  0
  6 12  1  0
 12 13  1  0
 13 14  1  0
 13 15  2  0
  7 16  1  0
 16 17  2  0
  1  2  2  0
  2  7  1  0
  6  7  2  0
  5  6  1  0
  4  5  2  0
  1  4  1  0
M  END

$$$$
No_131-/export/home/yangzhenyu/potential_scad_32_flow//YTHDC2/2024-12-06-03-22-00/
     RDKit          3D

 18 18  0  0  0  0  0  0  0  0999 V2000
    1.1787   -8.0297    3.5154 C   0  0  0  0  0  0  0  0  0  0  0  0
    1.1048   -9.2215    3.2892 C   0  0  0  0  0  0  0  0  0  0  0  0
    1.3627  -10.1721    4.3044 C   0  0  0  0  0  0  0  0  0  0  0  0
    1.7354  -11.4730    3.9023 C   0  0  0  0  0  0  0  0  0  0  0  0
    1.8080  -11.8127    2.7216 C   0  0  0  0  0  0  0  0  0  0  0  0
    1.5854  -11.0021    1.7249 C   0  0  0  0  0  0  0  0  0  0  0  0
    1.3573   -9.7389    1.9287 C   0  0  0  0  0  0  0  0  0  0  0  0
    1.1102   -8.8712    0.9017 C   0  0  0  0  0  0  0  0  0  0  0  0
    1.5724   -9.1697   -0.3048 C   0  0  0  0  0  0  0  0  0  0  0  0
    1.2378   -8.2159   -1.4226 O   0  0  0  0  0  0  0  0  0  0  0  0
    2.1031  -13.4009    2.2918 C   0  0  0  0  0  0  0  0  0  0  0  0
    1.9809  -14.3023    3.1814 O   0  0  0  0  0  0  0  0  0  0  0  0
    2.7576  -13.4935    1.1770 O   0  0  0  0  0  0  0  0  0  0  0  0
    2.2823   -7.1582    3.5687 O   0  0  0  0  0  0  0  0  0  0  0  0
   -0.0078   -7.4358    3.5959 O   0  0  0  0  0  0  0  0  0  0  0  0
    2.3886  -10.0570   -0.6331 O   0  0  0  0  0  0  0  0  0  0  0  0
    1.9278  -15.6092    2.6731 C   0  0  0  0  0  0  0  0  0  0  0  0
    0.8936  -16.1806    2.7751 C   0  0  0  0  0  0  0  0  0  0  0  0
  1  2  1  0
  7  8  1  0
  8  9  2  3
  9 10  1  0
  5 11  1  0
 11 12  1  0
 11 13  2  0
  1 14  1  0
  1 15  2  0
  9 16  1  0
 12 17  1  0
 17 18  1  0
  2  3  2  0
  3  4  1  0
  4  5  2  0
  5  6  1  0
  6  7  2  0
  2  7  1  0
M  END

$$$$
No_132-/export/home/yangzhenyu/potential_scad_32_flow//YTHDC2/2024-12-06-03-22-00/
     RDKit          3D

 18 18  0  0  1  0  0  0  0  0999 V2000
    1.1787   -8.0297    3.5154 O   0  0  0  0  0  0  0  0  0  0  0  0
    0.9969   -8.9689    3.0048 C   0  0  1  0  0  0  0  0  0  0  0  0
    0.9976   -8.9567    1.6341 C   0  0  0  0  0  0  0  0  0  0  0  0
    0.7663   -7.7728    1.0082 C   0  0  0  0  0  0  0  0  0  0  0  0
    1.1468   -6.5619    1.6541 C   0  0  0  0  0  0  0  0  0  0  0  0
    1.3592   -6.6155    3.0007 C   0  0  0  0  0  0  0  0  0  0  0  0
    0.9781  -10.1276    3.6866 C   0  0  1  0  0  0  0  0  0  0  0  0
   -0.1772  -10.7865    4.0343 C   0  0  0  0  0  0  0  0  0  0  0  0
    2.0101  -11.1674    3.2617 C   0  0  0  0  0  0  0  0  0  0  0  0
    1.7926  -12.3790    3.9534 C   0  0  0  0  0  0  0  0  0  0  0  0
    2.2657  -13.4510    3.0358 C   0  0  0  0  0  0  0  0  0  0  0  0
    0.7394   -7.8079   -0.3556 O   0  0  0  0  0  0  0  0  0  0  0  0
    1.6027   -5.6012    3.7196 O   0  0  0  0  0  0  0  0  0  0  0  0
    1.3107  -14.0172    2.1211 O   0  0  0  0  0  0  0  0  0  0  0  0
    1.0234  -10.0913    0.8744 O   0  0  0  0  0  0  0  0  0  0  0  0
    3.0936  -14.3481    3.2988 O   0  0  0  0  0  0  0  0  0  0  0  0
   -0.9490  -11.5442    3.3762 C   0  0  0  0  0  0  0  0  0  0  0  0
   -2.3478  -11.5969    3.4028 O   0  0  0  0  0  0  0  0  0  0  0  0
  2  1  1  1
  2  3  1  0
  3  4  1  0
  4  5  1  0
  1  6  1  0
  5  6  1  0
  2  7  1  0
  7  8  1  6
  7  9  1  0
  9 10  1  0
 10 11  1  0
  4 12  2  0
  6 13  2  0
 11 14  2  0
  3 15  2  0
 11 16  1  0
  8 17  1  0
 17 18  2  0
M  END

$$$$
No_133-/export/home/yangzhenyu/potential_scad_32_flow//YTHDC2/2024-12-06-03-22-00/
     RDKit          3D

 18 18  0  0  1  0  0  0  0  0999 V2000
    1.1787   -8.0297    3.5154 C   0  0  0  0  0  0  0  0  0  0  0  0
    1.1048   -9.2215    3.2892 C   0  0  1  0  0  0  0  0  0  0  0  0
    1.2339   -9.7611    2.0189 C   0  0  1  0  0  0  0  0  0  0  0  0
    1.3583   -9.0036    0.9764 C   0  0  2  0  0  0  0  0  0  0  0  0
    1.7077   -9.6100   -0.3010 C   0  0  0  0  0  0  0  0  0  0  0  0
    1.3637   -7.1087    2.3226 C   0  0  1  0  0  0  0  0  0  0  0  0
    1.4257   -7.6645    1.0231 C   0  0  0  0  0  0  0  0  0  0  0  0
    1.9364   -8.8976   -1.3212 O   0  0  0  0  0  0  0  0  0  0  0  0
    0.9971  -10.7190   -0.5095 O   0  0  0  0  0  0  0  0  0  0  0  0
    1.1322  -10.2978    4.5844 Cl  0  0  0  0  0  0  0  0  0  0  0  0
    1.3324   -5.6002    2.5555 Cl  0  0  0  0  0  0  0  0  0  0  0  0
    1.3279  -11.1752    1.9145 C   0  0  0  0  0  0  0  0  0  0  0  0
    0.3411  -11.9864    1.5853 O   0  0  0  0  0  0  0  0  0  0  0  0
    2.4882  -11.8771    2.1767 O   0  0  0  0  0  0  0  0  0  0  0  0
    1.6010   -6.8893    0.1154 O   0  0  0  0  0  0  0  0  0  0  0  0
    2.4001  -13.2472    1.9006 C   0  0  0  0  0  0  0  0  0  0  0  0
    1.5263  -13.9455    2.4516 C   0  0  0  0  0  0  0  0  0  0  0  0
    1.3871  -15.3844    2.0668 C   0  0  0  0  0  0  0  0  0  0  0  0
  1  2  1  0
  3  4  1  0
  4  5  1  1
  4  7  1  0
  6  7  1  0
  5  8  2  0
  5  9  1  0
  2 10  1  1
  6 11  1  6
  3 12  1  1
 12 13  2  0
 12 14  1  0
  7 15  2  0
 14 16  1  0
 16 17  1  0
 17 18  1  0
  2  3  1  0
  1  6  1  0
M  END

$$$$
No_134-/export/home/yangzhenyu/potential_scad_32_flow//YTHDC2/2024-12-06-03-22-00/
     RDKit          3D

 19 20  0  0  0  0  0  0  0  0999 V2000
    1.1787   -8.0297    3.5154 C   0  0  0  0  0  0  0  0  0  0  0  0
    1.0491   -6.8434    2.9820 C   0  0  0  0  0  0  0  0  0  0  0  0
    0.0950   -8.8404    3.2292 C   0  0  0  0  0  0  0  0  0  0  0  0
    0.0602  -10.1764    3.8231 C   0  0  0  0  0  0  0  0  0  0  0  0
    0.2248   -6.3830    2.0648 C   0  0  0  0  0  0  0  0  0  0  0  0
   -0.6745   -7.2322    1.6857 C   0  0  0  0  0  0  0  0  0  0  0  0
   -0.7374   -8.4992    2.1291 C   0  0  0  0  0  0  0  0  0  0  0  0
   -1.2516  -10.6630    3.9829 C   0  0  0  0  0  0  0  0  0  0  0  0
   -2.1886  -10.3242    3.0488 C   0  0  0  0  0  0  0  0  0  0  0  0
   -1.9899   -9.1601    2.2931 C   0  0  0  0  0  0  0  0  0  0  0  0
    0.3225   -5.1548    1.3574 C   0  0  0  0  0  0  0  0  0  0  0  0
   -1.6060   -6.8303    0.6939 C   0  0  0  0  0  0  0  0  0  0  0  0
   -3.3677  -10.9884    3.0557 C   0  0  0  0  0  0  0  0  0  0  0  0
   -3.3830  -12.3399    3.0421 O   0  0  0  0  0  0  0  0  0  0  0  0
   -4.4959  -10.3077    2.9967 P   0  0  0  0  0  0  0  0  0  0  0  0
   -5.1116  -10.3518    3.9609 O   0  0  0  0  0  0  0  0  0  0  0  0
   -5.5339  -11.1579    1.8599 O   0  0  0  0  0  0  0  0  0  0  0  0
   -4.4945   -8.8771    2.3303 O   0  0  0  0  0  0  0  0  0  0  0  0
   -1.4556   -5.5130    0.0967 C   0  0  0  0  0  0  0  0  0  0  0  0
  5 11  1  0
  6 12  1  0
  9 13  1  0
 13 14  2  0
 13 15  1  0
 15 16  1  0
 15 17  2  0
 15 18  1  0
 12 19  2  0
  1  2  2  0
  2  5  1  0
  5  6  2  0
  6  7  1  0
  1  3  1  0
  3  4  2  0
  4  8  1  0
  8  9  2  0
  9 10  1  0
  7 10  2  0
  3  7  1  0
M  END

$$$$
No_135-/export/home/yangzhenyu/potential_scad_32_flow//YTHDC2/2024-12-06-03-22-00/
     RDKit          3D

 18 18  0  0  0  0  0  0  0  0999 V2000
    1.1787   -8.0297    3.5154 N   0  0  0  0  0  0  0  0  0  0  0  0
    1.0818   -9.0751    3.2053 C   0  0  0  0  0  0  0  0  0  0  0  0
    0.7576   -9.3725    1.9159 C   0  0  0  0  0  0  0  0  0  0  0  0
    0.8823   -8.4917    1.0547 C   0  0  0  0  0  0  0  0  0  0  0  0
    0.9679   -8.9061   -0.3794 C   0  0  0  0  0  0  0  0  0  0  0  0
    1.4872   -7.0697    2.4366 C   0  0  0  0  0  0  0  0  0  0  0  0
    1.2533   -7.2172    1.2831 N   0  0  0  0  0  0  0  0  0  0  0  0
    1.9717   -8.7970   -1.1547 O   0  0  0  0  0  0  0  0  0  0  0  0
   -0.2881   -9.0251   -0.9819 N   0  0  0  0  0  0  0  0  0  0  0  0
    0.9234  -10.1144    4.2056 C   0  0  0  0  0  0  0  0  0  0  0  0
    1.8251  -11.2279    4.1229 C   0  0  0  0  0  0  0  0  0  0  0  0
    1.1930  -12.3749    3.5951 C   0  0  0  0  0  0  0  0  0  0  0  0
    1.9967  -13.3681    3.0060 C   0  0  0  0  0  0  0  0  0  0  0  0
    1.3519  -14.6021    2.8349 C   0  0  0  0  0  0  0  0  0  0  0  0
    1.2922  -15.1554    1.6510 C   0  0  0  0  0  0  0  0  0  0  0  0
    1.1419  -16.5352    1.5934 O   0  0  0  0  0  0  0  0  0  0  0  0
    1.3106  -14.5143    0.6120 O   0  0  0  0  0  0  0  0  0  0  0  0
   -0.5264   -9.2840   -2.2385 C   0  0  0  0  0  0  0  0  0  0  0  0
  4  5  1  0
  5  8  2  0
  5  9  1  0
  2 10  1  0
 10 11  1  0
 11 12  1  0
 12 13  1  0
 13 14  1  0
 14 15  1  0
 15 16  1  0
 15 17  2  0
  9 18  1  0
  1  2  2  0
  2  3  1  0
  3  4  2  0
  4  7  1  0
  6  7  2  0
  1  6  1  0
M  END

$$$$
No_136-/export/home/yangzhenyu/potential_scad_32_flow//YTHDC2/2024-12-06-03-22-00/
     RDKit          3D

 19 19  0  0  1  0  0  0  0  0999 V2000
    1.1787   -8.0297    3.5154 C   0  0  0  0  0  0  0  0  0  0  0  0
    1.1048   -9.2215    3.2892 O   0  0  0  0  0  0  0  0  0  0  0  0
    1.0717   -9.7272    2.0537 C   0  0  0  0  0  0  0  0  0  0  0  0
    1.1174   -8.7649    1.1692 C   0  0  1  0  0  0  0  0  0  0  0  0
    1.3300   -7.4687    1.9612 C   0  0  0  0  0  0  0  0  0  0  0  0
    1.1889   -8.6919   -0.1136 C   0  0  1  0  0  0  0  0  0  0  0  0
    2.2296   -8.9714   -0.7985 C   0  0  0  0  0  0  0  0  0  0  0  0
    0.9985  -10.9937    1.8971 C   0  0  0  0  0  0  0  0  0  0  0  0
    2.1160  -11.8048    1.7518 O   0  0  0  0  0  0  0  0  0  0  0  0
   -0.0113   -8.6943   -0.7765 C   0  0  0  0  0  0  0  0  0  0  0  0
    0.0935  -11.8293    2.4336 O   0  0  0  0  0  0  0  0  0  0  0  0
   -0.1808   -8.7191   -2.1465 O   0  0  0  0  0  0  0  0  0  0  0  0
   -1.3357   -8.5793   -0.2831 C   0  0  0  0  0  0  0  0  0  0  0  0
    2.9099   -9.9586   -0.9281 O   0  0  0  0  0  0  0  0  0  0  0  0
    2.8755   -7.9419   -1.5726 O   0  0  0  0  0  0  0  0  0  0  0  0
   -1.8460   -7.7436    0.1510 C   0  0  0  0  0  0  0  0  0  0  0  0
   -3.0931   -7.6051    0.8676 C   0  0  0  0  0  0  0  0  0  0  0  0
   -3.3428   -6.7376    1.8701 C   0  0  0  0  0  0  0  0  0  0  0  0
   -4.3899   -6.7908    2.5817 C   0  0  0  0  0  0  0  0  0  0  0  0
  1  2  1  0
  2  3  1  0
  3  4  1  0
  1  5  1  0
  4  5  1  1
  4  6  1  0
  6  7  1  6
  3  8  1  0
  8  9  1  0
  6 10  1  0
  8 11  2  0
 10 12  2  0
 10 13  1  0
  7 14  2  0
  7 15  1  0
 13 16  2  3
 16 17  1  0
 17 18  2  3
 18 19  1  0
M  END

$$$$
No_137-/export/home/yangzhenyu/potential_scad_32_flow//YTHDC2/2024-12-06-03-22-00/
     RDKit          3D

 19 19  0  0  1  0  0  0  0  0999 V2000
    1.1787   -8.0297    3.5154 C   0  0  0  0  0  0  0  0  0  0  0  0
    1.1048   -9.2215    3.2892 C   0  0  0  0  0  0  0  0  0  0  0  0
    1.2339   -9.7611    2.0189 C   0  0  0  0  0  0  0  0  0  0  0  0
    1.1954  -11.2312    1.8661 C   0  0  2  0  0  0  0  0  0  0  0  0
    1.2996  -11.5815    0.5387 C   0  0  0  0  0  0  0  0  0  0  0  0
    1.3263   -7.1208    2.3229 C   0  0  0  0  0  0  0  0  0  0  0  0
    1.3693   -7.6408    1.0625 C   0  0  0  0  0  0  0  0  0  0  0  0
    1.5228   -8.9954    0.8505 C   0  0  0  0  0  0  0  0  0  0  0  0
    0.8848  -11.9503    2.8725 C   0  0  0  0  0  0  0  0  0  0  0  0
    1.6782  -12.5529    3.4909 C   0  0  0  0  0  0  0  0  0  0  0  0
    1.3609   -5.6345    2.5569 C   0  0  0  0  0  0  0  0  0  0  0  0
    0.8063  -11.1021   -0.3545 O   0  0  0  0  0  0  0  0  0  0  0  0
    1.5541  -13.0012    0.3940 O   0  0  0  0  0  0  0  0  0  0  0  0
    1.7562   -5.1429    3.6341 N   0  0  0  0  0  0  0  0  0  0  0  0
    1.0527   -4.8689    1.5456 O   0  0  0  0  0  0  0  0  0  0  0  0
    1.7404  -13.9965    2.8626 O   0  0  0  0  0  0  0  0  0  0  0  0
    2.8449  -14.5881    2.2967 C   0  0  0  0  0  0  0  0  0  0  0  0
    2.6360  -15.9190    1.9547 C   0  0  0  0  0  0  0  0  0  0  0  0
    3.4750  -16.8048    2.6028 O   0  0  0  0  0  0  0  0  0  0  0  0
  3  4  1  0
  4  5  1  0
  4  9  1  6
  9 10  1  0
  6 11  1  0
  5 12  2  0
  5 13  1  0
 11 14  1  0
 11 15  2  0
 10 16  1  0
 16 17  1  0
 17 18  1  0
 18 19  1  0
  1  2  2  0
  2  3  1  0
  3  8  2  0
  7  8  1  0
  6  7  2  0
  1  6  1  0
M  END

$$$$
No_138-/export/home/yangzhenyu/potential_scad_32_flow//YTHDC2/2024-12-06-03-22-00/
     RDKit          3D

 18 20  0  0  1  0  0  0  0  0999 V2000
    1.1787   -8.0297    3.5154 C   0  0  0  0  0  0  0  0  0  0  0  0
    1.1048   -9.2215    3.2892 C   0  0  0  0  0  0  0  0  0  0  0  0
    1.2339   -9.7611    2.0189 C   0  0  0  0  0  0  0  0  0  0  0  0
    1.3583   -9.0036    0.9764 C   0  0  0  0  0  0  0  0  0  0  0  0
    1.5996   -7.6362    1.1311 C   0  0  0  0  0  0  0  0  0  0  0  0
    1.2231   -7.3837    4.5094 C   0  0  0  0  0  0  0  0  0  0  0  0
    1.4788   -7.0893    2.3422 C   0  0  0  0  0  0  0  0  0  0  0  0
    1.4518   -5.7430    2.5901 N   0  0  0  0  0  0  0  0  0  0  0  0
    1.1414  -11.2186    1.8327 C   0  0  2  0  0  0  0  0  0  0  0  0
    1.9741  -12.0596    2.3635 C   0  0  0  0  0  0  0  0  0  0  0  0
    1.7728  -13.4066    1.9868 C   0  0  0  0  0  0  0  0  0  0  0  0
    0.8857  -13.7864    1.1314 C   0  0  0  0  0  0  0  0  0  0  0  0
    0.4989  -14.9621    0.5848 C   0  0  0  0  0  0  0  0  0  0  0  0
   -0.4554  -14.9151   -0.4392 C   0  0  0  0  0  0  0  0  0  0  0  0
   -1.0294  -13.8109   -0.7144 C   0  0  0  0  0  0  0  0  0  0  0  0
   -0.7756  -12.5896   -0.2893 C   0  0  0  0  0  0  0  0  0  0  0  0
    0.3066  -12.4624    0.7172 C   0  0  0  0  0  0  0  0  0  0  0  0
    1.0626   -6.0023    4.5936 C   0  0  0  0  0  0  0  0  0  0  0  0
  1  6  1  0
  9  3  1  6
  9 10  1  0
 10 11  2  0
 11 12  1  0
  9 17  1  0
  6 18  2  0
  7  8  1  0
 12 13  2  0
 13 14  1  0
 14 15  2  0
 15 16  1  0
 16 17  2  0
 12 17  1  0
  1  2  2  0
  2  3  1  0
  3  4  2  0
  4  5  1  0
  5  7  2  0
  1  7  1  0
M  END

$$$$
No_139-/export/home/yangzhenyu/potential_scad_32_flow//YTHDC2/2024-12-06-03-22-00/
     RDKit          3D

 19 18  0  0  1  0  0  0  0  0999 V2000
    1.1787   -8.0297    3.5154 O   0  0  0  0  0  0  0  0  0  0  0  0
    0.9969   -8.9689    3.0048 C   0  0  0  0  0  0  0  0  0  0  0  0
    0.9976   -8.9567    1.6341 C   0  0  0  0  0  0  0  0  0  0  0  0
    0.7663   -7.7728    1.0082 Cl  0  0  0  0  0  0  0  0  0  0  0  0
    1.2937  -10.1691    0.9957 C   0  0  2  0  0  0  0  0  0  0  0  0
    2.3243  -10.9744    1.5523 C   0  0  0  0  0  0  0  0  0  0  0  0
    2.0107  -12.3591    1.6236 C   0  0  0  0  0  0  0  0  0  0  0  0
    1.5571  -12.8529    2.8890 C   0  0  0  0  0  0  0  0  0  0  0  0
    1.2599  -14.3420    2.8890 N   0  0  0  0  0  0  0  0  0  0  0  0
    1.3826  -14.9964    1.8794 N   0  0  0  0  0  0  0  0  0  0  0  0
    1.1296  -16.3691    2.1818 C   0  0  0  0  0  0  0  0  0  0  0  0
    0.4533   -9.9220    3.8434 O   0  0  0  0  0  0  0  0  0  0  0  0
    2.1364  -17.2051    2.4612 C   0  0  1  0  0  0  0  0  0  0  0  0
    3.5000  -16.6653    2.4746 Cl  0  0  0  0  0  0  0  0  0  0  0  0
    1.9192  -18.5559    2.8118 C   0  0  0  0  0  0  0  0  0  0  0  0
    1.1318  -10.1036   -0.4450 C   0  0  0  0  0  0  0  0  0  0  0  0
    0.2534   -9.3963   -0.7681 C   0  0  0  0  0  0  0  0  0  0  0  0
    0.3055   -8.4478   -1.8490 O   0  0  0  0  0  0  0  0  0  0  0  0
   -1.1418   -9.5172   -0.6363 P   0  0  0  0  0  0  0  0  0  0  0  0
  1  2  1  0
  2  3  1  0
  3  4  1  0
  3  5  1  0
  5  6  1  6
  6  7  1  0
  7  8  1  0
  8  9  2  3
  9 10  1  0
 10 11  1  0
  2 12  2  0
 11 13  1  0
 13 14  1  0
 13 15  1  1
  5 16  1  0
 16 17  1  0
 17 18  2  0
 17 19  1  0
M  END

$$$$
No_140-/export/home/yangzhenyu/potential_scad_32_flow//YTHDC2/2024-12-06-03-22-00/
     RDKit          3D

 18 19  0  0  1  0  0  0  0  0999 V2000
    1.1787   -8.0297    3.5154 O   0  0  0  0  0  0  0  0  0  0  0  0
    0.6747   -7.4019    2.7838 P   0  0  1  0  0  0  0  0  0  0  0  0
   -0.1428   -7.5920    2.1455 O   0  0  0  0  0  0  0  0  0  0  0  0
    0.4275   -5.9538    3.4931 O   0  0  0  0  0  0  0  0  0  0  0  0
    1.9297   -6.8678    1.5903 C   0  0  0  0  0  0  0  0  0  0  0  0
    1.3161   -9.6098    3.2670 C   0  0  2  0  0  0  0  0  0  0  0  0
    1.5277  -10.5993    4.3475 C   0  0  0  0  0  0  0  0  0  0  0  0
    1.2236  -11.8624    4.0095 O   0  0  0  0  0  0  0  0  0  0  0  0
    1.3659  -12.1618    2.6998 C   0  0  2  0  0  0  0  0  0  0  0  0
    1.2290  -11.3642    1.7314 C   0  0  0  0  0  0  0  0  0  0  0  0
    1.4023   -9.9870    1.9991 C   0  0  0  0  0  0  0  0  0  0  0  0
    1.4393  -13.5629    2.5724 C   0  0  0  0  0  0  0  0  0  0  0  0
    0.9888  -14.2717    1.7549 N   0  0  0  0  0  0  0  0  0  0  0  0
    2.6952  -14.1636    3.0916 N   0  0  0  0  0  0  0  0  0  0  0  0
    0.8848  -11.6021    0.5007 O   0  0  0  0  0  0  0  0  0  0  0  0
    1.3565  -15.5849    1.7731 C   0  0  0  0  0  0  0  0  0  0  0  0
    2.5958  -15.4406    2.7298 C   0  0  0  0  0  0  0  0  0  0  0  0
    3.3979  -16.5408    2.9171 O   0  0  0  0  0  0  0  0  0  0  0  0
  1  2  1  0
  2  3  2  0
  2  4  1  0
  2  5  1  6
  6  1  1  1
  6  7  1  0
  7  8  1  0
  8  9  1  0
  9 10  1  0
  6 11  1  0
 10 11  1  0
  9 12  1  6
 12 13  2  0
 12 14  1  0
 10 15  2  0
 13 16  1  0
 14 17  1  0
 16 17  1  0
 17 18  2  0
M  END

$$$$
No_141-/export/home/yangzhenyu/potential_scad_32_flow//YTHDC2/2024-12-06-03-22-00/
     RDKit          3D

 20 20  0  0  1  0  0  0  0  0999 V2000
    1.1787   -8.0297    3.5154 C   0  0  0  0  0  0  0  0  0  0  0  0
    1.0491   -6.8434    2.9820 C   0  0  1  0  0  0  0  0  0  0  0  0
    1.9985   -8.9840    2.8958 C   0  0  2  0  0  0  0  0  0  0  0  0
    1.7297   -9.2108    1.6335 C   0  0  0  0  0  0  0  0  0  0  0  0
    1.7343   -8.0566    0.8408 C   0  0  2  0  0  0  0  0  0  0  0  0
    1.0269   -6.8892    1.4456 C   0  0  0  0  0  0  0  0  0  0  0  0
    2.0740   -7.9416   -0.3682 C   0  0  0  0  0  0  0  0  0  0  0  0
    3.0713   -8.7358   -0.8759 N   0  0  0  0  0  0  0  0  0  0  0  0
    1.9442  -10.3850    3.5576 C   0  0  0  0  0  0  0  0  0  0  0  0
    0.9810  -10.9026    3.8409 O   0  0  0  0  0  0  0  0  0  0  0  0
    2.9504  -10.3855    4.6053 O   0  0  0  0  0  0  0  0  0  0  0  0
    2.2443  -10.3072    0.8393 O   0  0  0  0  0  0  0  0  0  0  0  0
    0.2302   -5.8538    3.3507 C   0  0  0  0  0  0  0  0  0  0  0  0
    0.6548   -4.5041    3.4078 C   0  0  0  0  0  0  0  0  0  0  0  0
    1.9458   -4.1471    3.5476 C   0  0  0  0  0  0  0  0  0  0  0  0
   -0.2873   -3.4803    3.2657 C   0  0  0  0  0  0  0  0  0  0  0  0
    2.1788   -2.7618    3.4525 O   0  0  0  0  0  0  0  0  0  0  0  0
   -1.6194   -3.9110    3.3217 C   0  0  0  0  0  0  0  0  0  0  0  0
   -1.0144   -6.0981    3.4957 O   0  0  0  0  0  0  0  0  0  0  0  0
    3.5314   -9.4105   -0.2816 H   0  0  0  0  0  0  0  0  0  0  0  0
  1  2  1  0
  1  3  1  0
  3  4  1  0
  4  5  1  0
  2  6  1  0
  5  6  1  0
  5  7  1  6
  7  8  2  0
  3  9  1  1
  9 10  1  0
  9 11  2  0
  4 12  2  0
  2 13  1  1
 13 14  1  0
 14 15  1  0
 14 16  1  0
 15 17  1  0
 16 18  1  0
 13 19  2  0
  8 20  1  0
M  END

$$$$
No_142-/export/home/yangzhenyu/potential_scad_32_flow//YTHDC2/2024-12-06-03-22-00/
     RDKit          3D

 18 18  0  0  1  0  0  0  0  0999 V2000
    1.1787   -8.0297    3.5154 P   0  0  2  0  0  0  0  0  0  0  0  0
    1.2030   -9.2736    3.3536 O   0  0  0  0  0  0  0  0  0  0  0  0
   -0.0768   -7.4876    3.7816 O   0  0  0  0  0  0  0  0  0  0  0  0
    1.6943   -7.3089    2.0219 O   0  0  0  0  0  0  0  0  0  0  0  0
    0.1236  -10.2741    3.1434 C   0  0  0  0  0  0  0  0  0  0  0  0
    0.3003  -11.4923    3.9696 C   0  0  0  0  0  0  0  0  0  0  0  0
    1.7327  -11.9747    3.8645 O   0  0  0  0  0  0  0  0  0  0  0  0
    1.7228  -13.0799    2.9428 C   0  0  0  0  0  0  0  0  0  0  0  0
    0.5076  -13.5527    2.6879 C   0  0  0  0  0  0  0  0  0  0  0  0
    0.6920  -14.9609    2.1263 C   0  0  1  0  0  0  0  0  0  0  0  0
    1.7953  -15.3773    1.5800 C   0  0  0  0  0  0  0  0  0  0  0  0
    1.7467  -16.8043    1.3242 C   0  0  0  0  0  0  0  0  0  0  0  0
    0.7144  -17.6016    1.4434 C   0  0  2  0  0  0  0  0  0  0  0  0
   -0.4379  -17.1371    1.9220 C   0  0  0  0  0  0  0  0  0  0  0  0
   -0.4815  -15.8024    2.3879 C   0  0  0  0  0  0  0  0  0  0  0  0
   -1.6224  -15.2570    2.7576 O   0  0  0  0  0  0  0  0  0  0  0  0
    0.7768  -18.9904    1.3015 C   0  0  0  0  0  0  0  0  0  0  0  0
    0.4658  -19.4712    0.1916 C   0  0  0  0  0  0  0  0  0  0  0  0
  1  2  1  0
  1  3  1  6
  1  4  2  0
  2  5  1  0
  5  6  1  0
  6  7  1  0
  7  8  1  0
  8  9  1  0
 10  9  1  1
 10 11  1  0
 12 13  1  0
 10 15  1  0
 14 15  1  0
 15 16  2  0
 13 17  1  1
 17 18  1  0
 11 12  1  0
 13 14  1  0
M  END

$$$$
No_143-/export/home/yangzhenyu/potential_scad_32_flow//YTHDC2/2024-12-06-03-22-00/
     RDKit          3D

 19 20  0  0  1  0  0  0  0  0999 V2000
    1.1787   -8.0297    3.5154 C   0  0  2  0  0  0  0  0  0  0  0  0
    1.0491   -6.8434    2.9820 C   0  0  0  0  0  0  0  0  0  0  0  0
    1.9985   -8.9840    2.8958 C   0  0  0  0  0  0  0  0  0  0  0  0
    1.9135  -10.3404    3.6266 C   0  0  0  0  0  0  0  0  0  0  0  0
    0.9460  -10.6347    4.5748 C   0  0  0  0  0  0  0  0  0  0  0  0
   -0.0977   -9.6850    4.6652 C   0  0  0  0  0  0  0  0  0  0  0  0
   -0.0465   -8.4791    4.1040 C   0  0  0  0  0  0  0  0  0  0  0  0
    0.9518   -6.8330    1.6013 C   0  0  0  0  0  0  0  0  0  0  0  0
    0.7641   -5.4931    1.0800 N   0  0  0  0  0  0  0  0  0  0  0  0
    1.3650   -7.6267    0.7207 C   0  0  2  0  0  0  0  0  0  0  0  0
    2.5075   -7.6269    0.0320 C   0  0  0  0  0  0  0  0  0  0  0  0
    2.7484   -8.7761   -0.7316 C   0  0  0  0  0  0  0  0  0  0  0  0
    1.6108   -9.0700   -1.5400 C   0  0  0  0  0  0  0  0  0  0  0  0
    0.4003   -9.0427   -1.0309 C   0  0  0  0  0  0  0  0  0  0  0  0
    0.2020   -8.2231    0.0779 C   0  0  0  0  0  0  0  0  0  0  0  0
   -0.6491   -9.7141   -1.6047 O   0  0  0  0  0  0  0  0  0  0  0  0
   -0.9853   -7.6668    4.4835 O   0  0  0  0  0  0  0  0  0  0  0  0
   -1.0846   -8.0125    0.5424 O   0  0  0  0  0  0  0  0  0  0  0  0
    0.5749   -4.7276    1.7111 H   0  0  0  0  0  0  0  0  0  0  0  0
  1  2  1  6
  1  3  1  0
  4  5  1  0
  1  7  1  0
  6  7  1  0
  2  8  1  0
  8  9  2  0
 10  8  1  6
 10 11  1  0
 11 12  1  0
 13 14  1  0
 10 15  1  0
 14 15  1  0
 14 16  2  0
  7 17  2  0
 15 18  2  0
 12 13  1  0
  3  4  1  0
  5  6  1  0
  9 19  1  0
M  END

$$$$
No_144-/export/home/yangzhenyu/potential_scad_32_flow//YTHDC2/2024-12-06-03-22-00/
     RDKit          3D

 17 17  0  0  1  0  0  0  0  0999 V2000
    1.1787   -8.0297    3.5154 C   0  0  0  0  0  0  0  0  0  0  0  0
    1.0491   -6.8434    2.9820 C   0  0  0  0  0  0  0  0  0  0  0  0
    1.9985   -8.9840    2.8958 C   0  0  2  0  0  0  0  0  0  0  0  0
    1.7297   -9.2108    1.6335 C   0  0  0  0  0  0  0  0  0  0  0  0
    1.7343   -8.0566    0.8408 C   0  0  2  0  0  0  0  0  0  0  0  0
    1.0269   -6.8892    1.4456 C   0  0  0  0  0  0  0  0  0  0  0  0
    2.0740   -7.9416   -0.3682 C   0  0  0  0  0  0  0  0  0  0  0  0
    3.0714   -8.7358   -0.8759 C   0  0  0  0  0  0  0  0  0  0  0  0
    3.8752   -8.5504   -1.7029 O   0  0  0  0  0  0  0  0  0  0  0  0
    2.8366  -10.0711   -0.8179 O   0  0  0  0  0  0  0  0  0  0  0  0
    2.4751  -10.0944    3.6353 C   0  0  0  0  0  0  0  0  0  0  0  0
    2.0159  -11.2935    3.7898 O   0  0  0  0  0  0  0  0  0  0  0  0
    3.6350  -10.0525    4.4118 O   0  0  0  0  0  0  0  0  0  0  0  0
    0.1396   -6.2074    0.9291 O   0  0  0  0  0  0  0  0  0  0  0  0
    1.1368   -5.5988    3.4482 O   0  0  0  0  0  0  0  0  0  0  0  0
    3.9217  -11.1587    5.2248 C   0  0  0  0  0  0  0  0  0  0  0  0
    5.2248  -11.3915    4.9921 O   0  0  0  0  0  0  0  0  0  0  0  0
  1  2  1  0
  1  3  1  0
  3  4  1  0
  4  5  1  0
  2  6  1  0
  5  6  1  0
  5  7  1  6
  7  8  1  0
  8  9  1  0
  8 10  2  0
  3 11  1  1
 11 12  2  0
 11 13  1  0
  6 14  2  0
  2 15  2  0
 13 16  1  0
 16 17  2  0
M  END

$$$$
No_145-/export/home/yangzhenyu/potential_scad_32_flow//YTHDC2/2024-12-06-03-22-00/
     RDKit          3D

 20 19  0  0  1  0  0  0  0  0999 V2000
    1.1787   -8.0297    3.5154 Cl  0  0  0  0  0  0  0  0  0  0  0  0
    0.6122   -7.9650    2.5747 C   0  0  1  0  0  0  0  0  0  0  0  0
    0.3325   -6.8044    1.9102 C   0  0  0  0  0  0  0  0  0  0  0  0
    1.3506   -5.8218    1.8899 O   0  0  0  0  0  0  0  0  0  0  0  0
    0.6868   -9.2054    1.6694 C   0  0  0  0  0  0  0  0  0  0  0  0
    0.8436   -8.9990    0.3385 O   0  0  0  0  0  0  0  0  0  0  0  0
    0.6097  -10.4225    2.1259 C   0  0  2  0  0  0  0  0  0  0  0  0
    1.7399  -11.1898    2.2971 C   0  0  0  0  0  0  0  0  0  0  0  0
    1.7721  -12.4158    2.9209 C   0  0  1  0  0  0  0  0  0  0  0  0
    1.5393  -12.5823    4.0981 C   0  0  0  0  0  0  0  0  0  0  0  0
    1.8338  -13.5401    1.9606 C   0  0  2  0  0  0  0  0  0  0  0  0
    1.7730  -14.8551    2.6315 C   0  0  0  0  0  0  0  0  0  0  0  0
    0.7158  -15.3816    3.0801 O   0  0  0  0  0  0  0  0  0  0  0  0
    2.8714  -15.5015    2.8598 O   0  0  0  0  0  0  0  0  0  0  0  0
   -0.8408   -6.5669    1.5310 O   0  0  0  0  0  0  0  0  0  0  0  0
   -0.5046  -11.2237    1.7033 C   0  0  0  0  0  0  0  0  0  0  0  0
   -0.7681  -11.6606    0.4070 O   0  0  0  0  0  0  0  0  0  0  0  0
   -1.7045  -11.0939    2.4295 O   0  0  0  0  0  0  0  0  0  0  0  0
    2.1965  -13.6104    0.7640 C   0  0  0  0  0  0  0  0  0  0  0  0
    0.9375  -11.4627    4.8130 O   0  0  0  0  0  0  0  0  0  0  0  0
  2  1  1  6
  2  3  1  0
  3  4  1  0
  2  5  1  0
  5  6  2  0
  5  7  1  0
  7  8  1  6
  9  8  1  6
  9 10  1  0
  9 11  1  0
 11 12  1  0
 12 13  2  0
 12 14  1  0
  3 15  2  0
  7 16  1  0
 16 17  2  0
 16 18  1  0
 11 19  1  1
 10 20  1  0
M  END

$$$$
No_146-/export/home/yangzhenyu/potential_scad_32_flow//YTHDC2/2024-12-06-03-22-00/
     RDKit          3D

 18 18  0  0  1  0  0  0  0  0999 V2000
    1.1787   -8.0297    3.5154 C   0  0  0  0  0  0  0  0  0  0  0  0
    1.0491   -6.8434    2.9820 C   0  0  0  0  0  0  0  0  0  0  0  0
    0.9905   -9.0774    2.6527 C   0  0  0  0  0  0  0  0  0  0  0  0
    0.7897   -8.9519    1.3691 C   0  0  0  0  0  0  0  0  0  0  0  0
    0.7018   -7.7198    0.7892 C   0  0  0  0  0  0  0  0  0  0  0  0
    0.8918   -6.5957    1.6117 C   0  0  0  0  0  0  0  0  0  0  0  0
    1.0998  -10.4710    3.2437 C   0  0  1  0  0  0  0  0  0  0  0  0
    2.1917  -10.8879    3.7399 C   0  0  0  0  0  0  0  0  0  0  0  0
    0.8624   -5.2493    1.2482 C   0  0  0  0  0  0  0  0  0  0  0  0
   -0.0161  -11.2304    3.3728 C   0  0  0  0  0  0  0  0  0  0  0  0
   -0.0818  -12.5026    3.1756 C   0  0  2  0  0  0  0  0  0  0  0  0
    1.0684  -13.2751    3.4092 N   0  0  0  0  0  0  0  0  0  0  0  0
   -1.0433  -13.1398    2.4896 C   0  0  0  0  0  0  0  0  0  0  0  0
   -0.9742  -14.5364    2.3547 O   0  0  0  0  0  0  0  0  0  0  0  0
   -2.1991  -12.5753    2.1640 N   0  0  0  0  0  0  0  0  0  0  0  0
    1.5949   -4.3431    1.8818 O   0  0  0  0  0  0  0  0  0  0  0  0
    0.1983   -4.8756    0.3218 O   0  0  0  0  0  0  0  0  0  0  0  0
    3.3084  -11.3182    3.3954 O   0  0  0  0  0  0  0  0  0  0  0  0
  3  7  1  0
  7  8  1  0
  6  9  1  0
  7 10  1  1
 10 11  1  0
 11 12  1  6
 11 13  1  0
 13 14  2  0
 13 15  1  0
  9 16  1  0
  9 17  2  0
  8 18  2  0
  1  2  2  0
  2  6  1  0
  5  6  2  0
  4  5  1  0
  3  4  2  0
  1  3  1  0
M  END

$$$$
No_147-/export/home/yangzhenyu/potential_scad_32_flow//YTHDC2/2024-12-06-03-22-00/
     RDKit          3D

 18 18  0  0  1  0  0  0  0  0999 V2000
    1.1787   -8.0297    3.5154 C   0  0  0  0  0  0  0  0  0  0  0  0
    1.0491   -6.8434    2.9820 C   0  0  1  0  0  0  0  0  0  0  0  0
    1.9985   -8.9840    2.8958 C   0  0  2  0  0  0  0  0  0  0  0  0
    1.7297   -9.2108    1.6335 I   0  0  0  0  0  0  0  0  0  0  0  0
    1.9622   -5.7359    3.2244 C   0  0  0  0  0  0  0  0  0  0  0  0
    2.1082   -5.2715    4.1223 O   0  0  0  0  0  0  0  0  0  0  0  0
    2.0646   -4.9412    2.0977 N   0  0  0  0  0  0  0  0  0  0  0  0
    1.3167   -5.2458    0.9122 C   0  0  0  0  0  0  0  0  0  0  0  0
    0.1515   -5.5251    0.8004 C   0  0  2  0  0  0  0  0  0  0  0  0
   -0.0187   -6.7225    1.9374 C   0  0  0  0  0  0  0  0  0  0  0  0
    2.3998  -10.1174    3.8247 C   0  0  0  0  0  0  0  0  0  0  0  0
    1.5285  -11.2361    3.9714 O   0  0  0  0  0  0  0  0  0  0  0  0
    3.5198  -10.2867    4.4389 O   0  0  0  0  0  0  0  0  0  0  0  0
   -0.8421   -7.7548    1.6323 O   0  0  0  0  0  0  0  0  0  0  0  0
   -0.7068   -5.5494   -0.1618 O   0  0  0  0  0  0  0  0  0  0  0  0
   -1.3787   -4.3296   -0.1153 C   0  0  0  0  0  0  0  0  0  0  0  0
   -2.5753   -4.4162   -0.9085 C   0  0  0  0  0  0  0  0  0  0  0  0
   -3.4617   -3.7589   -0.6849 O   0  0  0  0  0  0  0  0  0  0  0  0
  2  1  1  6
  1  3  1  0
  3  4  1  6
  2  5  1  0
  5  6  2  0
  5  7  1  0
  7  8  1  0
  2 10  1  0
  9 10  1  0
  3 11  1  0
 11 12  2  0
 11 13  1  0
 10 14  2  0
  9 15  1  6
 15 16  1  0
 16 17  1  0
 17 18  2  0
  8  9  1  0
M  END

$$$$
No_148-/export/home/yangzhenyu/potential_scad_32_flow//YTHDC2/2024-12-06-03-22-00/
     RDKit          3D

 19 20  0  0  1  0  0  0  0  0999 V2000
    1.1787   -8.0297    3.5154 C   0  0  0  0  0  0  0  0  0  0  0  0
    1.0491   -6.8434    2.9820 C   0  0  0  0  0  0  0  0  0  0  0  0
    1.9985   -8.9840    2.8958 C   0  0  2  0  0  0  0  0  0  0  0  0
    1.7297   -9.2108    1.6335 C   0  0  1  0  0  0  0  0  0  0  0  0
    1.7343   -8.0566    0.8408 C   0  0  0  0  0  0  0  0  0  0  0  0
    1.0269   -6.8892    1.4456 C   0  0  0  0  0  0  0  0  0  0  0  0
    2.0740   -7.9416   -0.3682 O   0  0  0  0  0  0  0  0  0  0  0  0
    1.9646  -10.3580    3.5767 C   0  0  0  0  0  0  0  0  0  0  0  0
    1.1665  -11.3332    3.3170 C   0  0  0  0  0  0  0  0  0  0  0  0
    1.4579  -12.6468    3.4877 C   0  0  0  0  0  0  0  0  0  0  0  0
    0.4791  -13.5451    2.9665 C   0  0  0  0  0  0  0  0  0  0  0  0
   -0.6277  -13.1988    2.4710 C   0  0  0  0  0  0  0  0  0  0  0  0
   -1.0100  -11.9687    2.4006 C   0  0  0  0  0  0  0  0  0  0  0  0
   -0.1323  -10.9699    2.8024 C   0  0  0  0  0  0  0  0  0  0  0  0
    2.2143  -10.2259    0.9144 C   0  0  0  0  0  0  0  0  0  0  0  0
    3.4410  -10.7088    1.0700 O   0  0  0  0  0  0  0  0  0  0  0  0
    1.4673  -10.9509    0.1145 O   0  0  0  0  0  0  0  0  0  0  0  0
    1.0791  -15.1536    2.9313 Cl  0  0  0  0  0  0  0  0  0  0  0  0
    2.8848  -10.4623    4.5817 O   0  0  0  0  0  0  0  0  0  0  0  0
  1  2  1  0
  1  3  1  0
  3  4  1  0
  4  5  1  0
  2  6  1  0
  5  6  1  0
  5  7  2  0
  3  8  1  1
  8  9  1  0
  4 15  1  6
 15 16  1  0
 15 17  2  0
 11 18  1  0
  8 19  2  0
  9 10  2  0
 10 11  1  0
 11 12  2  0
 12 13  1  0
 13 14  2  0
  9 14  1  0
M  END

$$$$
No_149-/export/home/yangzhenyu/potential_scad_32_flow//YTHDC2/2024-12-06-03-22-00/
     RDKit          3D

 19 19  0  0  1  0  0  0  0  0999 V2000
    1.1787   -8.0297    3.5154 C   0  0  0  0  0  0  0  0  0  0  0  0
    1.0491   -6.8434    2.9820 C   0  0  0  0  0  0  0  0  0  0  0  0
    0.0950   -8.8404    3.2292 C   0  0  1  0  0  0  0  0  0  0  0  0
   -0.9173   -8.4596    2.5152 C   0  0  2  0  0  0  0  0  0  0  0  0
   -1.0331   -7.2162    2.0653 C   0  0  1  0  0  0  0  0  0  0  0  0
   -0.0105   -6.3168    2.3081 C   0  0  2  0  0  0  0  0  0  0  0  0
    0.1150   -4.9910    1.8495 C   0  0  0  0  0  0  0  0  0  0  0  0
   -0.5774   -4.1593    2.0596 Cl  0  0  0  0  0  0  0  0  0  0  0  0
    0.1578  -10.2795    3.6945 Cl  0  0  0  0  0  0  0  0  0  0  0  0
    1.1567   -4.7555    0.8772 O   0  0  0  0  0  0  0  0  0  0  0  0
   -2.1080   -9.2360    2.4345 Cl  0  0  0  0  0  0  0  0  0  0  0  0
    2.2105   -5.9627    3.0975 O   0  0  0  0  0  0  0  0  0  0  0  0
   -2.0964   -6.7913    1.2253 C   0  0  0  0  0  0  0  0  0  0  0  0
   -2.1041   -6.9013   -0.1130 C   0  0  0  0  0  0  0  0  0  0  0  0
   -2.7929   -6.1865   -0.9997 O   0  0  0  0  0  0  0  0  0  0  0  0
   -1.3067   -7.8070   -0.8398 N   0  0  0  0  0  0  0  0  0  0  0  0
   -1.2853   -8.0655   -2.2166 C   0  0  0  0  0  0  0  0  0  0  0  0
   -0.4456   -7.5747   -2.8118 C   0  0  0  0  0  0  0  0  0  0  0  0
   -0.6864   -7.7530   -4.3003 C   0  0  0  0  0  0  0  0  0  0  0  0
  1  2  1  0
  3  4  1  0
  2  6  1  0
  5  6  1  0
  6  7  1  6
  7  8  1  0
  3  9  1  6
  7 10  2  0
  4 11  1  1
  2 12  2  0
  5 13  1  6
 13 14  1  0
 14 15  2  0
 14 16  1  0
 16 17  1  0
 17 18  1  0
 18 19  2  0
  1  3  1  0
  4  5  1  0
M  END

$$$$
No_150-/export/home/yangzhenyu/potential_scad_32_flow//YTHDC2/2024-12-06-03-22-00/
     RDKit          3D

 19 19  0  0  1  0  0  0  0  0999 V2000
    1.1787   -8.0297    3.5154 C   0  0  0  0  0  0  0  0  0  0  0  0
    1.0491   -6.8434    2.9820 Cl  0  0  0  0  0  0  0  0  0  0  0  0
    0.0905   -8.9512    3.3831 C   0  0  1  0  0  0  0  0  0  0  0  0
    0.2318  -10.2544    3.9736 C   0  0  0  0  0  0  0  0  0  0  0  0
    1.4465  -10.8072    4.2705 N   0  0  0  0  0  0  0  0  0  0  0  0
   -0.8313  -11.0294    4.2076 O   0  0  0  0  0  0  0  0  0  0  0  0
    2.0107  -11.8636    3.7692 C   0  0  0  0  0  0  0  0  0  0  0  0
    1.7365  -11.9471    2.2874 C   0  0  0  0  0  0  0  0  0  0  0  0
    1.5355  -13.2343    1.7195 O   0  0  0  0  0  0  0  0  0  0  0  0
    2.1425  -11.0374    1.4294 O   0  0  0  0  0  0  0  0  0  0  0  0
   -1.0943   -8.5110    3.1810 C   0  0  1  0  0  0  0  0  0  0  0  0
   -1.7225   -8.6338    2.0703 C   0  0  1  0  0  0  0  0  0  0  0  0
   -2.9811   -8.0584    1.7449 C   0  0  0  0  0  0  0  0  0  0  0  0
   -3.6480   -7.5045    2.7292 C   0  0  0  0  0  0  0  0  0  0  0  0
   -3.1172   -7.4244    3.9970 C   0  0  0  0  0  0  0  0  0  0  0  0
   -1.8638   -7.9208    4.3186 C   0  0  0  0  0  0  0  0  0  0  0  0
   -5.0441   -6.8599    2.5750 Br  0  0  0  0  0  0  0  0  0  0  0  0
   -3.7646   -6.7948    5.1300 O   0  0  0  0  0  0  0  0  0  0  0  0
   -1.0469   -9.2029    0.8535 C   0  0  0  0  0  0  0  0  0  0  0  0
  1  2  1  0
  3  1  1  1
  3  4  1  0
  4  5  1  0
  4  6  2  0
  5  7  1  0
  7  8  1  0
  8  9  2  0
  8 10  1  0
  3 11  1  0
 12 13  1  0
 14 15  1  0
 11 16  1  1
 15 16  1  0
 14 17  1  0
 15 18  2  0
 12 19  1  6
 13 14  1  0
 11 12  1  0
M  END

$$$$
No_151-/export/home/yangzhenyu/potential_scad_32_flow//YTHDC2/2024-12-06-03-22-00/
     RDKit          3D

 19 19  0  0  1  0  0  0  0  0999 V2000
    1.1787   -8.0297    3.5154 O   0  0  0  0  0  0  0  0  0  0  0  0
    0.9969   -8.9689    3.0048 C   0  0  2  0  0  0  0  0  0  0  0  0
    1.3055  -10.1056    3.6616 C   0  0  2  0  0  0  0  0  0  0  0  0
    2.1315  -10.4529    4.2438 C   0  0  0  0  0  0  0  0  0  0  0  0
    0.9847   -8.8392    1.5568 C   0  0  0  0  0  0  0  0  0  0  0  0
    0.7837   -7.5631    1.1237 C   0  0  0  0  0  0  0  0  0  0  0  0
    1.6252   -6.6369    1.4768 O   0  0  0  0  0  0  0  0  0  0  0  0
   -0.1136   -7.3717    0.1896 O   0  0  0  0  0  0  0  0  0  0  0  0
    2.5356  -11.7767    4.8328 C   0  0  0  0  0  0  0  0  0  0  0  0
    0.2956  -11.3013    3.4919 C   0  0  0  0  0  0  0  0  0  0  0  0
    0.5907  -12.5387    3.8043 C   0  0  0  0  0  0  0  0  0  0  0  0
    1.6964  -12.7972    4.4435 C   0  0  0  0  0  0  0  0  0  0  0  0
    1.1731   -9.8942    0.7642 C   0  0  0  0  0  0  0  0  0  0  0  0
    0.0163  -10.5765    0.3106 O   0  0  0  0  0  0  0  0  0  0  0  0
    2.2870  -10.3762    0.2799 N   0  0  0  0  0  0  0  0  0  0  0  0
    1.9779  -14.0286    4.5966 O   0  0  0  0  0  0  0  0  0  0  0  0
   -0.3882  -13.4122    3.3349 C   0  0  0  0  0  0  0  0  0  0  0  0
   -1.6673  -13.2168    3.0629 O   0  0  0  0  0  0  0  0  0  0  0  0
   -0.0148  -14.7125    2.9221 O   0  0  0  0  0  0  0  0  0  0  0  0
  2  1  1  1
  2  3  1  0
  2  5  1  0
  5  6  1  0
  6  7  1  0
  6  8  2  0
  4  9  1  0
  3 10  1  6
  9 12  1  0
 11 12  1  0
  5 13  1  0
 13 14  2  0
 13 15  1  0
 12 16  2  0
 11 17  1  0
 17 18  2  0
 17 19  1  0
  3  4  1  0
 10 11  1  0
M  END

$$$$
No_152-/export/home/yangzhenyu/potential_scad_32_flow//YTHDC2/2024-12-06-03-22-00/
     RDKit          3D

 20 20  0  0  0  0  0  0  0  0999 V2000
    1.1787   -8.0297    3.5154 C   0  0  0  0  0  0  0  0  0  0  0  0
    1.1048   -9.2215    3.2892 C   0  0  0  0  0  0  0  0  0  0  0  0
    1.3627  -10.1721    4.3044 C   0  0  0  0  0  0  0  0  0  0  0  0
    1.7354  -11.4730    3.9023 C   0  0  0  0  0  0  0  0  0  0  0  0
    1.8080  -11.8127    2.7216 C   0  0  0  0  0  0  0  0  0  0  0  0
    1.5854  -11.0021    1.7249 C   0  0  0  0  0  0  0  0  0  0  0  0
    1.3573   -9.7389    1.9287 C   0  0  0  0  0  0  0  0  0  0  0  0
    1.2865   -8.8078    0.9161 C   0  0  0  0  0  0  0  0  0  0  0  0
    0.9210   -7.5140    1.1674 O   0  0  0  0  0  0  0  0  0  0  0  0
    1.4288   -9.1781   -0.4279 C   0  0  0  0  0  0  0  0  0  0  0  0
    0.3692   -9.5478   -1.1210 O   0  0  0  0  0  0  0  0  0  0  0  0
    2.6408   -9.1806   -0.9400 O   0  0  0  0  0  0  0  0  0  0  0  0
    2.1314  -13.4383    2.3285 C   0  0  0  0  0  0  0  0  0  0  0  0
    2.0156  -13.6726    1.0723 O   0  0  0  0  0  0  0  0  0  0  0  0
    2.1847  -14.3466    3.1379 O   0  0  0  0  0  0  0  0  0  0  0  0
    2.4754   -7.3174    3.6711 O   0  0  0  0  0  0  0  0  0  0  0  0
    0.1687   -7.2792    3.7914 O   0  0  0  0  0  0  0  0  0  0  0  0
    2.3360  -15.6866    2.6007 C   0  0  0  0  0  0  0  0  0  0  0  0
    1.2229  -16.4953    2.7095 C   0  0  0  0  0  0  0  0  0  0  0  0
    1.3604  -17.7405    2.2615 O   0  0  0  0  0  0  0  0  0  0  0  0
  1  2  1  0
  7  8  1  0
  8  9  2  0
  8 10  1  0
 10 11  1  0
 10 12  2  0
  5 13  1  0
 13 14  2  0
 13 15  1  0
  1 16  1  0
  1 17  2  0
 15 18  1  0
 18 19  1  0
 19 20  2  0
  2  3  2  0
  3  4  1  0
  4  5  2  0
  5  6  1  0
  6  7  2  0
  2  7  1  0
M  END

$$$$
No_153-/export/home/yangzhenyu/potential_scad_32_flow//YTHDC2/2024-12-06-03-22-00/
     RDKit          3D

 20 20  0  0  1  0  0  0  0  0999 V2000
    1.1787   -8.0297    3.5154 C   0  0  0  0  0  0  0  0  0  0  0  0
    1.0491   -6.8434    2.9820 C   0  0  0  0  0  0  0  0  0  0  0  0
    2.0004   -8.9805    3.0498 C   0  0  0  0  0  0  0  0  0  0  0  0
    2.3555   -9.0813    1.8033 C   0  0  0  0  0  0  0  0  0  0  0  0
    1.5516   -6.8448    1.5633 C   0  0  0  0  0  0  0  0  0  0  0  0
    2.2171   -7.9366    1.0002 C   0  0  0  0  0  0  0  0  0  0  0  0
    2.0828  -10.3102    3.8067 C   0  0  0  0  0  0  0  0  0  0  0  0
    2.3606  -10.3568    4.9288 N   0  0  0  0  0  0  0  0  0  0  0  0
    1.8469  -11.4621    3.1703 O   0  0  0  0  0  0  0  0  0  0  0  0
    2.6592   -7.8505   -0.2628 S   0  0  0  0  0  0  0  0  0  0  0  0
    2.3629   -9.2018   -0.9403 O   0  0  0  0  0  0  0  0  0  0  0  0
    3.6592   -7.3363   -0.6729 O   0  0  0  0  0  0  0  0  0  0  0  0
    2.9601  -11.5384    5.5941 O   0  0  0  0  0  0  0  0  0  0  0  0
    0.5145   -5.6947    3.3991 P   0  0  2  0  0  0  0  0  0  0  0  0
    0.3367   -4.5415    2.2159 O   0  0  0  0  0  0  0  0  0  0  0  0
    1.4944   -4.9807    4.4466 O   0  0  0  0  0  0  0  0  0  0  0  0
   -0.8696   -5.8406    3.8732 O   0  0  0  0  0  0  0  0  0  0  0  0
   -1.7535   -6.8468    3.2940 C   0  0  0  0  0  0  0  0  0  0  0  0
   -2.3585   -7.7038    4.0921 C   0  0  0  0  0  0  0  0  0  0  0  0
   -3.3254   -7.4760    4.6491 C   0  0  0  0  0  0  0  0  0  0  0  0
  3  7  1  0
  7  8  1  0
  7  9  2  0
  6 10  1  0
 10 11  2  0
 10 12  2  0
  8 13  2  0
  2 14  1  0
 14 15  2  0
 14 16  1  1
 14 17  1  0
 17 18  1  0
 18 19  1  0
 19 20  1  0
  1  2  2  0
  2  5  1  0
  5  6  2  0
  4  6  1  0
  3  4  2  0
  1  3  1  0
M  END

$$$$
No_154-/export/home/yangzhenyu/potential_scad_32_flow//YTHDC2/2024-12-06-03-22-00/
     RDKit          3D

 17 17  0  0  1  0  0  0  0  0999 V2000
    1.1787   -8.0297    3.5154 C   0  0  0  0  0  0  0  0  0  0  0  0
    1.0491   -6.8434    2.9820 C   0  0  0  0  0  0  0  0  0  0  0  0
    0.9905   -9.0774    2.6527 C   0  0  1  0  0  0  0  0  0  0  0  0
    0.7897   -8.9519    1.3691 C   0  0  0  0  0  0  0  0  0  0  0  0
    0.7018   -7.7198    0.7892 C   0  0  1  0  0  0  0  0  0  0  0  0
    0.8918   -6.5957    1.6117 C   0  0  0  0  0  0  0  0  0  0  0  0
    1.0998  -10.4710    3.2437 C   0  0  0  0  0  0  0  0  0  0  0  0
    0.0472  -11.2546    3.3963 C   0  0  0  0  0  0  0  0  0  0  0  0
    0.1622  -12.5732    3.4140 Br  0  0  0  0  0  0  0  0  0  0  0  0
    0.8606   -5.2677    1.2300 O   0  0  0  0  0  0  0  0  0  0  0  0
   -1.1894  -10.5160    3.7808 O   0  0  0  0  0  0  0  0  0  0  0  0
    0.6430  -10.1108    0.2125 Br  0  0  0  0  0  0  0  0  0  0  0  0
    2.3902  -10.8457    3.6179 C   0  0  0  0  0  0  0  0  0  0  0  0
    2.6049  -10.9806    5.0107 O   0  0  0  0  0  0  0  0  0  0  0  0
    3.5154  -10.4966    3.0321 Cl  0  0  0  0  0  0  0  0  0  0  0  0
    1.4119   -5.7546    3.8198 O   0  0  0  0  0  0  0  0  0  0  0  0
    0.6340   -7.4508   -0.4759 I   0  0  0  0  0  0  0  0  0  0  0  0
  1  2  1  0
  3  4  1  0
  2  6  1  0
  5  6  1  0
  3  7  1  6
  7  8  1  0
  8  9  1  0
  6 10  2  0
  8 11  2  0
  4 12  1  0
  7 13  1  0
 13 14  2  0
 13 15  1  0
  2 16  2  0
  5 17  1  6
  1  3  1  0
  4  5  1  0
M  END

$$$$
No_155-/export/home/yangzhenyu/potential_scad_32_flow//YTHDC2/2024-12-06-03-22-00/
     RDKit          3D

 16 15  0  0  1  0  0  0  0  0999 V2000
    1.1787   -8.0297    3.5154 O   0  0  0  0  0  0  0  0  0  0  0  0
    0.6747   -7.4019    2.7838 C   0  0  0  0  0  0  0  0  0  0  0  0
    0.7594   -8.0032    1.4295 C   0  0  0  0  0  0  0  0  0  0  0  0
    0.3459   -9.1500    1.3581 C   0  0  2  0  0  0  0  0  0  0  0  0
    0.9462   -9.9230    0.3351 C   0  0  0  0  0  0  0  0  0  0  0  0
    1.6884   -9.1549   -0.6693 O   0  0  0  0  0  0  0  0  0  0  0  0
    0.9152  -11.1257    0.1085 O   0  0  0  0  0  0  0  0  0  0  0  0
    1.1335   -5.9551    2.8539 O   0  0  0  0  0  0  0  0  0  0  0  0
   -1.1551   -9.2486    1.0700 C   0  0  0  0  0  0  0  0  0  0  0  0
   -1.8132   -8.6373    0.0483 O   0  0  0  0  0  0  0  0  0  0  0  0
   -2.3461   -7.4250    0.0660 C   0  0  0  0  0  0  0  0  0  0  0  0
   -1.9239   -6.5611   -0.9444 C   0  0  0  0  0  0  0  0  0  0  0  0
   -1.4738   -7.1571   -2.1155 C   0  0  0  0  0  0  0  0  0  0  0  0
   -1.1127   -6.4164   -3.1811 C   0  0  0  0  0  0  0  0  0  0  0  0
   -1.2853   -5.1291   -3.2419 C   0  0  0  0  0  0  0  0  0  0  0  0
   -1.8144   -4.5105   -2.1009 C   0  0  0  0  0  0  0  0  0  0  0  0
  1  2  1  0
  2  3  1  0
  4  3  1  6
  4  5  1  0
  5  6  1  0
  5  7  2  0
  2  8  2  0
  4  9  1  0
  9 10  1  0
 10 11  1  0
 11 12  1  0
 12 13  1  0
 13 14  2  3
 14 15  1  0
 15 16  2  0
M  END

$$$$
No_156-/export/home/yangzhenyu/potential_scad_32_flow//YTHDC2/2024-12-06-03-22-00/
     RDKit          3D

 18 18  0  0  0  0  0  0  0  0999 V2000
    1.1787   -8.0297    3.5154 C   0  0  0  0  0  0  0  0  0  0  0  0
    1.1048   -9.2215    3.2892 C   0  0  0  0  0  0  0  0  0  0  0  0
    1.3627  -10.1721    4.3044 C   0  0  0  0  0  0  0  0  0  0  0  0
    1.7354  -11.4730    3.9023 C   0  0  0  0  0  0  0  0  0  0  0  0
    1.8080  -11.8127    2.7216 C   0  0  0  0  0  0  0  0  0  0  0  0
    1.5854  -11.0021    1.7249 C   0  0  0  0  0  0  0  0  0  0  0  0
    1.7690  -11.5851    0.3632 C   0  0  0  0  0  0  0  0  0  0  0  0
    1.3152   -9.6753    1.9048 C   0  0  0  0  0  0  0  0  0  0  0  0
    1.2315   -8.7938    0.9755 C   0  0  0  0  0  0  0  0  0  0  0  0
    2.3521   -8.5595    0.2093 Cl  0  0  0  0  0  0  0  0  0  0  0  0
    1.9930  -13.1914    2.4297 O   0  0  0  0  0  0  0  0  0  0  0  0
    0.0518   -8.6189    0.4346 O   0  0  0  0  0  0  0  0  0  0  0  0
    0.1619   -7.1501    3.1991 O   0  0  0  0  0  0  0  0  0  0  0  0
    2.2778   -7.1940    3.8437 O   0  0  0  0  0  0  0  0  0  0  0  0
    1.1904  -14.0635    2.0771 C   0  0  0  0  0  0  0  0  0  0  0  0
   -0.1156  -13.9094    2.1048 C   0  0  0  0  0  0  0  0  0  0  0  0
   -0.9183  -13.7803    1.5160 F   0  0  0  0  0  0  0  0  0  0  0  0
   -0.5561  -14.3648    3.4671 O   0  0  0  0  0  0  0  0  0  0  0  0
  1  2  1  0
  6  7  1  0
  8  9  1  0
  9 10  1  0
  5 11  1  0
  9 12  2  0
  1 13  2  0
  1 14  1  0
 11 15  1  0
 15 16  1  0
 16 17  1  0
 16 18  2  0
  2  3  2  0
  3  4  1  0
  4  5  2  0
  5  6  1  0
  6  8  2  0
  2  8  1  0
M  END

$$$$
No_157-/export/home/yangzhenyu/potential_scad_32_flow//YTHDC2/2024-12-06-03-22-00/
     RDKit          3D

 18 18  0  0  0  0  0  0  0  0999 V2000
    1.1787   -8.0297    3.5154 C   0  0  0  0  0  0  0  0  0  0  0  0
    1.0491   -6.8434    2.9820 C   0  0  0  0  0  0  0  0  0  0  0  0
    0.9905   -9.0774    2.6527 C   0  0  0  0  0  0  0  0  0  0  0  0
    0.7897   -8.9519    1.3691 C   0  0  0  0  0  0  0  0  0  0  0  0
    0.6550  -10.0985    0.4848 C   0  0  0  0  0  0  0  0  0  0  0  0
    0.7849   -6.5836    1.6043 C   0  0  0  0  0  0  0  0  0  0  0  0
    0.6652   -7.6671    0.8008 C   0  0  0  0  0  0  0  0  0  0  0  0
    0.0083   -9.7878   -0.7706 C   0  0  0  0  0  0  0  0  0  0  0  0
    0.3923   -8.7026   -1.6050 O   0  0  0  0  0  0  0  0  0  0  0  0
   -1.2983  -10.0891   -0.9619 O   0  0  0  0  0  0  0  0  0  0  0  0
    1.2200  -10.4772    3.1831 C   0  0  0  0  0  0  0  0  0  0  0  0
    0.2665  -11.2741    3.6652 O   0  0  0  0  0  0  0  0  0  0  0  0
    2.4829  -10.9348    3.4889 N   0  0  0  0  0  0  0  0  0  0  0  0
    0.6872   -5.3018    1.1129 Cl  0  0  0  0  0  0  0  0  0  0  0  0
    2.6884  -12.0388    4.2525 C   0  0  0  0  0  0  0  0  0  0  0  0
    2.3791  -13.1114    3.4377 C   0  0  0  0  0  0  0  0  0  0  0  0
    2.6214  -13.2820    2.1577 O   0  0  0  0  0  0  0  0  0  0  0  0
    1.7180  -14.2291    3.9327 O   0  0  0  0  0  0  0  0  0  0  0  0
  4  5  1  0
  5  8  1  0
  8  9  1  0
  8 10  2  0
  3 11  1  0
 11 12  2  0
 11 13  1  0
  6 14  1  0
 13 15  1  0
 15 16  1  0
 16 17  2  0
 16 18  1  0
  1  2  2  0
  2  6  1  0
  6  7  2  0
  4  7  1  0
  3  4  2  0
  1  3  1  0
M  END

$$$$
No_158-/export/home/yangzhenyu/potential_scad_32_flow//YTHDC2/2024-12-06-03-22-00/
     RDKit          3D

 19 20  0  0  1  0  0  0  0  0999 V2000
    1.1787   -8.0297    3.5154 C   0  0  0  0  0  0  0  0  0  0  0  0
    1.0491   -6.8434    2.9820 C   0  0  0  0  0  0  0  0  0  0  0  0
    0.9905   -9.0774    2.6527 C   0  0  0  0  0  0  0  0  0  0  0  0
    0.7897   -8.9519    1.3691 C   0  0  0  0  0  0  0  0  0  0  0  0
    0.7018   -7.7198    0.7892 C   0  0  0  0  0  0  0  0  0  0  0  0
    0.8918   -6.5957    1.6117 C   0  0  0  0  0  0  0  0  0  0  0  0
    1.0711  -10.4814    3.2282 C   0  0  1  0  0  0  0  0  0  0  0  0
   -0.1055  -11.1328    3.5223 N   0  0  0  0  0  0  0  0  0  0  0  0
   -0.1685  -12.3999    3.4672 C   0  0  0  0  0  0  0  0  0  0  0  0
    1.0723  -13.1692    3.5840 C   0  0  0  0  0  0  0  0  0  0  0  0
    1.6715  -13.0308    2.7412 C   0  0  1  0  0  0  0  0  0  0  0  0
    2.1138  -11.5036    2.4941 C   0  0  0  0  0  0  0  0  0  0  0  0
    0.8688   -5.2849    1.1296 Cl  0  0  0  0  0  0  0  0  0  0  0  0
    2.5860  -13.8141    1.9809 C   0  0  0  0  0  0  0  0  0  0  0  0
    2.6743  -13.7853    0.6449 O   0  0  0  0  0  0  0  0  0  0  0  0
    3.1379  -14.9428    2.3835 O   0  0  0  0  0  0  0  0  0  0  0  0
   -1.1350  -10.3448    4.0139 C   0  0  0  0  0  0  0  0  0  0  0  0
   -2.2796  -10.3173    3.3707 O   0  0  0  0  0  0  0  0  0  0  0  0
   -1.3777  -10.1846    5.4601 C   0  0  0  0  0  0  0  0  0  0  0  0
  7  3  1  6
  7  8  1  0
  8  9  1  0
  9 10  1  0
 10 11  1  0
  7 12  1  0
 11 12  1  0
  6 13  1  0
 11 14  1  1
 14 15  2  0
 14 16  1  0
  8 17  1  0
 17 18  2  0
 17 19  1  0
  1  2  2  0
  2  6  1  0
  5  6  2  0
  4  5  1  0
  3  4  2  0
  1  3  1  0
M  END

$$$$
No_159-/export/home/yangzhenyu/potential_scad_32_flow//YTHDC2/2024-12-06-03-22-00/
     RDKit          3D

 16 16  0  0  1  0  0  0  0  0999 V2000
    1.1787   -8.0297    3.5154 C   0  0  0  0  0  0  0  0  0  0  0  0
    1.0491   -6.8434    2.9820 C   0  0  0  0  0  0  0  0  0  0  0  0
    0.9905   -9.0774    2.6527 C   0  0  0  0  0  0  0  0  0  0  0  0
    0.7897   -8.9519    1.3691 C   0  0  0  0  0  0  0  0  0  0  0  0
    0.7018   -7.7198    0.7892 C   0  0  0  0  0  0  0  0  0  0  0  0
    0.8918   -6.5957    1.6117 C   0  0  0  0  0  0  0  0  0  0  0  0
    1.0774  -10.6059    3.3145 C   0  0  1  0  0  0  0  0  0  0  0  0
   -0.1032  -11.1934    3.4585 I   0  0  0  0  0  0  0  0  0  0  0  0
    2.1835  -11.4478    2.5974 C   0  0  0  0  0  0  0  0  0  0  0  0
    2.0052  -12.7141    2.8847 C   0  0  0  0  0  0  0  0  0  0  0  0
    1.7585  -13.5863    1.7606 O   0  0  0  0  0  0  0  0  0  0  0  0
    2.3129  -13.3776    3.9230 O   0  0  0  0  0  0  0  0  0  0  0  0
    0.8009   -5.2919    1.0712 Br  0  0  0  0  0  0  0  0  0  0  0  0
    0.6428  -10.1936    0.2237 O   0  0  0  0  0  0  0  0  0  0  0  0
    1.9881  -10.2535    4.6454 O   0  0  0  0  0  0  0  0  0  0  0  0
   -0.2005   -9.9275   -0.6042 C   0  0  0  0  0  0  0  0  0  0  0  0
  3  7  1  0
  7  8  1  0
  7  9  1  0
  9 10  1  0
 10 11  2  0
 10 12  1  0
  6 13  1  0
  4 14  1  0
  7 15  1  1
 14 16  1  0
  1  2  2  0
  2  6  1  0
  5  6  2  0
  4  5  1  0
  3  4  2  0
  1  3  1  0
M  END

$$$$
No_160-/export/home/yangzhenyu/potential_scad_32_flow//YTHDC2/2024-12-06-03-22-00/
     RDKit          3D

 19 19  0  0  1  0  0  0  0  0999 V2000
    1.1787   -8.0297    3.5154 C   0  0  0  0  0  0  0  0  0  0  0  0
    1.1048   -9.2215    3.2892 C   0  0  0  0  0  0  0  0  0  0  0  0
    1.3627  -10.1721    4.3044 C   0  0  0  0  0  0  0  0  0  0  0  0
    1.7354  -11.4730    3.9023 C   0  0  0  0  0  0  0  0  0  0  0  0
    1.8080  -11.8127    2.7216 C   0  0  0  0  0  0  0  0  0  0  0  0
    1.5854  -11.0021    1.7249 C   0  0  0  0  0  0  0  0  0  0  0  0
    1.3573   -9.7389    1.9287 C   0  0  0  0  0  0  0  0  0  0  0  0
    1.1102   -8.8712    0.9017 C   0  0  0  0  0  0  0  0  0  0  0  0
    1.5724   -9.1697   -0.3048 C   0  0  0  0  0  0  0  0  0  0  0  0
    2.8854   -9.3955   -0.5183 O   0  0  0  0  0  0  0  0  0  0  0  0
    0.9709   -8.8651   -1.4536 O   0  0  0  0  0  0  0  0  0  0  0  0
    2.0626  -13.2395    2.4037 S   0  0  0  0  0  0  0  0  0  0  0  0
    2.9716  -13.4829    1.3584 O   0  0  0  0  0  0  0  0  0  0  0  0
    2.6392  -14.1514    3.5660 O   0  0  0  0  0  0  0  0  0  0  0  0
    0.1028   -7.2419    3.3606 N   0  0  0  0  0  0  0  0  0  0  0  0
    0.1488   -5.9647    2.8138 C   0  0  2  0  0  0  0  0  0  0  0  0
    1.3072   -5.2793    2.7237 C   0  0  0  0  0  0  0  0  0  0  0  0
   -1.0371   -5.0931    2.9438 C   0  0  0  0  0  0  0  0  0  0  0  0
   -0.8684   -3.7507    2.6131 C   0  0  0  0  0  0  0  0  0  0  0  0
  1  2  1  0
  7  8  1  0
  8  9  1  0
  9 10  1  0
  9 11  2  0
  5 12  1  0
 12 13  2  0
 12 14  2  0
  1 15  1  0
 15 16  1  0
 16 17  1  1
 16 18  1  0
 18 19  2  0
  2  3  2  0
  3  4  1  0
  4  5  2  0
  5  6  1  0
  6  7  2  0
  2  7  1  0
M  END

$$$$
No_161-/export/home/yangzhenyu/potential_scad_32_flow//YTHDC2/2024-12-06-03-22-00/
     RDKit          3D

 17 17  0  0  1  0  0  0  0  0999 V2000
    1.1787   -8.0297    3.5154 C   0  0  0  0  0  0  0  0  0  0  0  0
    1.1048   -9.2215    3.2892 C   0  0  0  0  0  0  0  0  0  0  0  0
    1.3627  -10.1721    4.3044 C   0  0  0  0  0  0  0  0  0  0  0  0
    1.7354  -11.4730    3.9023 C   0  0  0  0  0  0  0  0  0  0  0  0
    1.8080  -11.8127    2.7216 N   0  0  0  0  0  0  0  0  0  0  0  0
    1.6163  -11.0258    1.7554 C   0  0  0  0  0  0  0  0  0  0  0  0
    1.3973   -9.7755    1.9269 C   0  0  0  0  0  0  0  0  0  0  0  0
    1.3839   -8.9010    0.8794 C   0  0  0  0  0  0  0  0  0  0  0  0
    1.9218   -9.2238   -0.2442 O   0  0  0  0  0  0  0  0  0  0  0  0
    1.2010   -7.5489    0.9997 O   0  0  0  0  0  0  0  0  0  0  0  0
    2.4087   -7.3132    3.6213 O   0  0  0  0  0  0  0  0  0  0  0  0
    0.1203   -7.2905    3.6391 O   0  0  0  0  0  0  0  0  0  0  0  0
    1.8629  -11.6263    0.4842 N   0  0  0  0  0  0  0  0  0  0  0  0
    1.8602  -13.0529    0.5068 C   0  0  2  0  0  0  0  0  0  0  0  0
    2.7063  -13.8271    0.9048 C   0  0  0  0  0  0  0  0  0  0  0  0
    0.8058  -13.6967   -0.0979 C   0  0  0  0  0  0  0  0  0  0  0  0
    2.5022  -15.0787    1.2988 C   0  0  0  0  0  0  0  0  0  0  0  0
  1  2  1  0
  7  8  1  0
  8  9  2  0
  8 10  1  0
  1 11  1  0
  1 12  2  0
  6 13  1  0
 13 14  1  0
 14 15  1  0
 14 16  1  6
 15 17  2  0
  2  3  2  0
  3  4  1  0
  4  5  2  0
  5  6  1  0
  6  7  2  0
  2  7  1  0
M  END

$$$$
No_162-/export/home/yangzhenyu/potential_scad_32_flow//YTHDC2/2024-12-06-03-22-00/
     RDKit          3D

 20 20  0  0  1  0  0  0  0  0999 V2000
    1.1787   -8.0297    3.5154 I   0  0  0  0  0  0  0  0  0  0  0  0
    0.4528   -9.3028    2.7351 C   0  0  0  0  0  0  0  0  0  0  0  0
   -0.3808   -9.4304    1.9900 C   0  0  0  0  0  0  0  0  0  0  0  0
   -0.8557  -10.6785    1.5058 C   0  0  0  0  0  0  0  0  0  0  0  0
   -0.2964  -11.8444    1.9810 C   0  0  0  0  0  0  0  0  0  0  0  0
    0.8145  -11.7970    2.8220 C   0  0  0  0  0  0  0  0  0  0  0  0
    1.1739  -10.5510    3.3221 C   0  0  0  0  0  0  0  0  0  0  0  0
    2.1417  -10.5663    4.3482 C   0  0  0  0  0  0  0  0  0  0  0  0
   -0.6305  -13.1220    1.4526 Br  0  0  0  0  0  0  0  0  0  0  0  0
    2.8741  -11.7170    4.8798 O   0  0  0  0  0  0  0  0  0  0  0  0
    2.7758   -9.6002    5.0497 O   0  0  0  0  0  0  0  0  0  0  0  0
   -2.0243  -10.7593    0.3488 Cl  0  0  0  0  0  0  0  0  0  0  0  0
   -1.1037   -8.0599    1.4281 Br  0  0  0  0  0  0  0  0  0  0  0  0
    1.3668  -13.0050    3.2793 C   0  0  0  0  0  0  0  0  0  0  0  0
    1.6918  -14.0094    2.7401 C   0  0  1  0  0  0  0  0  0  0  0  0
    2.7309  -14.0231    1.7503 C   0  0  0  0  0  0  0  0  0  0  0  0
    1.4200  -15.3749    3.1437 C   0  0  0  0  0  0  0  0  0  0  0  0
    1.8182  -16.5382    2.4353 O   0  0  0  0  0  0  0  0  0  0  0  0
    0.4761  -15.8831    4.0773 C   0  0  0  0  0  0  0  0  0  0  0  0
    2.5216  -13.1407    0.6822 C   0  0  0  0  0  0  0  0  0  0  0  0
  1  2  1  0
  7  8  1  0
  5  9  1  0
  8 10  1  0
  8 11  2  0
  4 12  1  0
  3 13  1  0
  6 14  1  0
 15 14  1  1
 15 16  1  0
 15 17  1  0
 17 18  2  0
 17 19  1  0
 16 20  1  0
  2  3  2  0
  3  4  1  0
  4  5  2  0
  5  6  1  0
  6  7  2  0
  2  7  1  0
M  END

$$$$
No_163-/export/home/yangzhenyu/potential_scad_32_flow//YTHDC2/2024-12-06-03-22-00/
     RDKit          3D

 18 18  0  0  1  0  0  0  0  0999 V2000
    1.1787   -8.0297    3.5154 C   0  0  0  0  0  0  0  0  0  0  0  0
    1.1048   -9.2215    3.2892 C   0  0  0  0  0  0  0  0  0  0  0  0
    1.3627  -10.1721    4.3044 C   0  0  0  0  0  0  0  0  0  0  0  0
    2.3720  -10.8948    4.2468 C   0  0  0  0  0  0  0  0  0  0  0  0
    1.0579   -7.0441    2.4219 C   0  0  0  0  0  0  0  0  0  0  0  0
    0.8578   -7.4970    1.1686 C   0  0  0  0  0  0  0  0  0  0  0  0
    0.7382   -8.7683    0.8754 C   0  0  0  0  0  0  0  0  0  0  0  0
    0.8882   -9.7347    1.9238 C   0  0  0  0  0  0  0  0  0  0  0  0
    0.9437  -11.0299    1.7005 C   0  0  2  0  0  0  0  0  0  0  0  0
    1.9466  -11.5929    1.1835 C   0  0  0  0  0  0  0  0  0  0  0  0
    1.9182  -13.0781    1.0564 O   0  0  0  0  0  0  0  0  0  0  0  0
    0.5282   -9.2124   -0.4340 C   0  0  0  0  0  0  0  0  0  0  0  0
   -0.3444   -8.6764   -1.1288 O   0  0  0  0  0  0  0  0  0  0  0  0
    3.6115  -10.3999    4.8624 C   0  0  0  0  0  0  0  0  0  0  0  0
    3.4132  -10.1215    6.1626 O   0  0  0  0  0  0  0  0  0  0  0  0
    4.7156  -10.6445    4.5415 O   0  0  0  0  0  0  0  0  0  0  0  0
   -0.1616  -11.8465    1.9609 C   0  0  0  0  0  0  0  0  0  0  0  0
   -1.4504  -11.2993    2.1959 O   0  0  0  0  0  0  0  0  0  0  0  0
  2  3  1  0
  3  4  1  0
  8  9  1  0
  9 10  1  6
 10 11  1  0
  7 12  1  0
 12 13  2  0
  4 14  1  0
 14 15  1  0
 14 16  2  0
  9 17  1  0
 17 18  2  0
  1  2  2  0
  2  8  1  0
  7  8  2  0
  6  7  1  0
  5  6  2  0
  1  5  1  0
M  END

$$$$
No_164-/export/home/yangzhenyu/potential_scad_32_flow//YTHDC2/2024-12-06-03-22-00/
     RDKit          3D

 17 17  0  0  1  0  0  0  0  0999 V2000
    1.1787   -8.0297    3.5154 C   0  0  0  0  0  0  0  0  0  0  0  0
    1.0491   -6.8434    2.9820 C   0  0  0  0  0  0  0  0  0  0  0  0
    1.9985   -8.9840    2.8958 C   0  0  2  0  0  0  0  0  0  0  0  0
    1.7297   -9.2108    1.6335 C   0  0  0  0  0  0  0  0  0  0  0  0
    1.7343   -8.0566    0.8408 C   0  0  2  0  0  0  0  0  0  0  0  0
    1.0269   -6.8892    1.4456 C   0  0  0  0  0  0  0  0  0  0  0  0
    2.0740   -7.9416   -0.3682 C   0  0  0  0  0  0  0  0  0  0  0  0
    3.0713   -8.7358   -0.8759 O   0  0  0  0  0  0  0  0  0  0  0  0
    1.5652   -7.4484   -1.3109 O   0  0  0  0  0  0  0  0  0  0  0  0
    2.3817  -10.1685    3.6626 C   0  0  0  0  0  0  0  0  0  0  0  0
    1.5369  -10.7923    4.4388 O   0  0  0  0  0  0  0  0  0  0  0  0
    3.6265  -10.5590    3.8320 O   0  0  0  0  0  0  0  0  0  0  0  0
    0.9352   -5.6485    3.5121 O   0  0  0  0  0  0  0  0  0  0  0  0
    0.7610   -5.7154    0.8880 O   0  0  0  0  0  0  0  0  0  0  0  0
    1.7476  -10.3779    1.1014 O   0  0  0  0  0  0  0  0  0  0  0  0
    4.0469  -11.1729    4.9512 C   0  0  0  0  0  0  0  0  0  0  0  0
    5.5419  -10.9939    5.0702 C   0  0  0  0  0  0  0  0  0  0  0  0
  1  2  1  0
  1  3  1  0
  3  4  1  0
  4  5  1  0
  2  6  1  0
  5  6  1  0
  5  7  1  6
  7  8  1  0
  7  9  2  0
  3 10  1  1
 10 11  2  0
 10 12  1  0
  2 13  2  0
  6 14  2  0
  4 15  2  0
 12 16  1  0
 16 17  1  0
M  END

$$$$
No_165-/export/home/yangzhenyu/potential_scad_32_flow//YTHDC2/2024-12-06-03-22-00/
     RDKit          3D

 17 17  0  0  0  0  0  0  0  0999 V2000
    1.1787   -8.0297    3.5154 C   0  0  0  0  0  0  0  0  0  0  0  0
    1.1048   -9.2215    3.2892 C   0  0  0  0  0  0  0  0  0  0  0  0
    1.3627  -10.1721    4.3044 C   0  0  0  0  0  0  0  0  0  0  0  0
    2.3720  -10.8948    4.2468 C   0  0  0  0  0  0  0  0  0  0  0  0
    1.0579   -7.0441    2.4219 C   0  0  0  0  0  0  0  0  0  0  0  0
    0.8578   -7.4970    1.1686 C   0  0  0  0  0  0  0  0  0  0  0  0
    0.7382   -8.7683    0.8754 C   0  0  0  0  0  0  0  0  0  0  0  0
    0.8882   -9.7347    1.9238 C   0  0  0  0  0  0  0  0  0  0  0  0
    0.5634  -10.9884    1.7836 C   0  0  0  0  0  0  0  0  0  0  0  0
    1.5466  -11.8078    1.1926 O   0  0  0  0  0  0  0  0  0  0  0  0
   -0.5343  -11.5912    1.9341 O   0  0  0  0  0  0  0  0  0  0  0  0
    1.2866   -5.3561    2.7442 Cl  0  0  0  0  0  0  0  0  0  0  0  0
    3.5324  -10.4259    5.0344 C   0  0  0  0  0  0  0  0  0  0  0  0
    4.6540  -11.0759    4.9309 O   0  0  0  0  0  0  0  0  0  0  0  0
    3.3338   -9.8513    6.1395 O   0  0  0  0  0  0  0  0  0  0  0  0
    0.5043   -9.2667   -0.5772 C   0  0  0  0  0  0  0  0  0  0  0  0
   -0.8229   -9.5006   -0.8777 O   0  0  0  0  0  0  0  0  0  0  0  0
  2  3  1  0
  3  4  1  0
  8  9  1  0
  9 10  1  0
  9 11  2  0
  5 12  1  0
  4 13  1  0
 13 14  2  0
 13 15  1  0
  7 16  1  0
 16 17  1  0
  1  2  2  0
  2  8  1  0
  7  8  2  0
  6  7  1  0
  5  6  2  0
  1  5  1  0
M  END

$$$$
No_166-/export/home/yangzhenyu/potential_scad_32_flow//YTHDC2/2024-12-06-03-22-00/
     RDKit          3D

 18 18  0  0  1  0  0  0  0  0999 V2000
    1.1787   -8.0297    3.5154 C   0  0  0  0  0  0  0  0  0  0  0  0
    1.0491   -6.8434    2.9820 C   0  0  0  0  0  0  0  0  0  0  0  0
    0.2462   -8.9560    3.0873 C   0  0  0  0  0  0  0  0  0  0  0  0
    0.3295   -6.5187    1.9069 C   0  0  0  0  0  0  0  0  0  0  0  0
   -0.5260   -8.7862    2.1368 C   0  0  0  0  0  0  0  0  0  0  0  0
   -0.5458   -7.5614    1.5054 C   0  0  0  0  0  0  0  0  0  0  0  0
    0.3636   -5.3203    1.2895 C   0  0  0  0  0  0  0  0  0  0  0  0
   -0.5231   -4.8795    0.5041 O   0  0  0  0  0  0  0  0  0  0  0  0
    1.1968   -4.2932    1.8426 O   0  0  0  0  0  0  0  0  0  0  0  0
    0.3828  -10.3427    3.6182 Cl  0  0  0  0  0  0  0  0  0  0  0  0
    0.8932   -2.9297    2.1064 C   0  0  0  0  0  0  0  0  0  0  0  0
   -1.6531   -7.2063    0.7112 C   0  0  0  0  0  0  0  0  0  0  0  0
   -2.5339   -7.9967    0.3350 C   0  0  0  0  0  0  0  0  0  0  0  0
   -3.4936   -7.7850   -0.7829 C   0  0  1  0  0  0  0  0  0  0  0  0
   -4.6597   -7.9259   -0.6658 C   0  0  0  0  0  0  0  0  0  0  0  0
   -5.2060   -8.3433    0.3776 O   0  0  0  0  0  0  0  0  0  0  0  0
   -5.5051   -7.6545   -1.4908 O   0  0  0  0  0  0  0  0  0  0  0  0
   -2.7824   -7.0469   -1.8807 C   0  0  0  0  0  0  0  0  0  0  0  0
  4  7  1  0
  7  8  2  0
  7  9  1  0
  3 10  1  0
  9 11  1  0
  6 12  1  0
 12 13  2  3
 13 14  1  0
 14 15  1  0
 15 16  1  0
 15 17  2  0
 14 18  1  1
  1  2  2  0
  2  4  1  0
  4  6  2  0
  5  6  1  0
  3  5  2  0
  1  3  1  0
M  END

$$$$
No_167-/export/home/yangzhenyu/potential_scad_32_flow//YTHDC2/2024-12-06-03-22-00/
     RDKit          3D

 19 19  0  0  1  0  0  0  0  0999 V2000
    1.1787   -8.0297    3.5154 O   0  0  0  0  0  0  0  0  0  0  0  0
    0.6747   -7.4019    2.7838 C   0  0  0  0  0  0  0  0  0  0  0  0
    0.7594   -8.0032    1.4295 C   0  0  1  0  0  0  0  0  0  0  0  0
    0.3459   -9.1500    1.3581 C   0  0  2  0  0  0  0  0  0  0  0  0
    1.1876  -10.0065    2.0239 C   0  0  2  0  0  0  0  0  0  0  0  0
    1.2267   -9.5257    3.5507 C   0  0  1  0  0  0  0  0  0  0  0  0
    1.9919  -10.3918    4.3814 C   0  0  0  0  0  0  0  0  0  0  0  0
    1.3664  -11.6452    4.6708 O   0  0  0  0  0  0  0  0  0  0  0  0
    3.0837  -10.2191    5.0107 O   0  0  0  0  0  0  0  0  0  0  0  0
    0.9241   -7.0235    0.4881 C   0  0  0  0  0  0  0  0  0  0  0  0
    1.2148   -5.7243    1.0224 O   0  0  0  0  0  0  0  0  0  0  0  0
    1.2545   -7.4205   -0.5710 O   0  0  0  0  0  0  0  0  0  0  0  0
   -0.2300   -9.7889    0.2612 Cl  0  0  0  0  0  0  0  0  0  0  0  0
    2.3851  -10.5688    1.7111 O   0  0  0  0  0  0  0  0  0  0  0  0
    0.9045   -6.0355    3.0996 O   0  0  0  0  0  0  0  0  0  0  0  0
    0.4351  -11.3258    2.1234 O   0  0  0  0  0  0  0  0  0  0  0  0
    1.1577  -12.4521    1.6248 C   0  0  0  0  0  0  0  0  0  0  0  0
    0.2142  -13.6451    1.6863 C   0  0  0  0  0  0  0  0  0  0  0  0
   -0.9019  -13.6031    1.6066 I   0  0  0  0  0  0  0  0  0  0  0  0
  1  2  1  0
  2  3  1  0
  3  4  1  0
  4  5  1  0
  1  6  1  0
  5  6  1  0
  6  7  1  6
  7  8  2  0
  7  9  1  0
  3 10  1  6
 10 11  1  0
 10 12  2  0
  4 13  1  6
  5 14  1  6
  2 15  2  0
  5 16  1  0
 16 17  1  0
 17 18  1  0
 18 19  1  0
M  END

$$$$
No_168-/export/home/yangzhenyu/potential_scad_32_flow//YTHDC2/2024-12-06-03-22-00/
     RDKit          3D

 21 21  0  0  1  0  0  0  0  0999 V2000
    1.1787   -8.0297    3.5154 C   0  0  0  0  0  0  0  0  0  0  0  0
    1.1048   -9.2215    3.2892 C   0  0  0  0  0  0  0  0  0  0  0  0
    1.3627  -10.1721    4.3044 C   0  0  0  0  0  0  0  0  0  0  0  0
    1.7354  -11.4730    3.9023 C   0  0  0  0  0  0  0  0  0  0  0  0
    1.8080  -11.8127    2.7216 C   0  0  0  0  0  0  0  0  0  0  0  0
    1.5854  -11.0021    1.7249 C   0  0  0  0  0  0  0  0  0  0  0  0
    1.3573   -9.7389    1.9287 C   0  0  0  0  0  0  0  0  0  0  0  0
    1.2865   -8.8078    0.9161 C   0  0  0  0  0  0  0  0  0  0  0  0
    1.6845   -9.1638   -0.2896 C   0  0  0  0  0  0  0  0  0  0  0  0
    2.8611   -9.7120   -0.5522 Br  0  0  0  0  0  0  0  0  0  0  0  0
    2.0722  -13.4451    2.3816 C   0  0  0  0  0  0  0  0  0  0  0  0
    0.7285   -8.8559   -1.2358 O   0  0  0  0  0  0  0  0  0  0  0  0
    2.3592  -13.8081    1.2458 O   0  0  0  0  0  0  0  0  0  0  0  0
    1.5871  -14.3521    3.1889 O   0  0  0  0  0  0  0  0  0  0  0  0
    0.0901   -7.2413    3.4099 N   0  0  0  0  0  0  0  0  0  0  0  0
    2.2511   -7.0570    3.7278 O   0  0  0  0  0  0  0  0  0  0  0  0
    1.0924  -15.5262    2.8211 C   0  0  2  0  0  0  0  0  0  0  0  0
    1.6429  -16.5938    3.4786 C   0  0  0  0  0  0  0  0  0  0  0  0
    1.3194  -17.8950    3.0199 O   0  0  0  0  0  0  0  0  0  0  0  0
    0.9336  -15.6584    1.3893 C   0  0  0  0  0  0  0  0  0  0  0  0
   -0.8113   -7.6494    3.2074 H   0  0  0  0  0  0  0  0  0  0  0  0
  1  2  1  0
  7  8  1  0
  8  9  1  0
  9 10  1  0
  5 11  1  0
  9 12  2  0
 11 13  2  0
 11 14  1  0
  1 15  2  0
  1 16  1  0
 14 17  1  0
 17 18  1  0
 18 19  1  0
 17 20  1  6
  2  3  2  0
  3  4  1  0
  4  5  2  0
  5  6  1  0
  6  7  2  0
  2  7  1  0
 15 21  1  0
M  END

$$$$
No_169-/export/home/yangzhenyu/potential_scad_32_flow//YTHDC2/2024-12-06-03-22-00/
     RDKit          3D

 18 18  0  0  0  0  0  0  0  0999 V2000
    1.1787   -8.0297    3.5154 C   0  0  0  0  0  0  0  0  0  0  0  0
    1.1048   -9.2215    3.2892 C   0  0  0  0  0  0  0  0  0  0  0  0
    1.3627  -10.1721    4.3044 C   0  0  0  0  0  0  0  0  0  0  0  0
    1.7354  -11.4730    3.9023 C   0  0  0  0  0  0  0  0  0  0  0  0
    1.8080  -11.8127    2.7216 C   0  0  0  0  0  0  0  0  0  0  0  0
    1.5854  -11.0021    1.7249 C   0  0  0  0  0  0  0  0  0  0  0  0
    1.3573   -9.7389    1.9287 C   0  0  0  0  0  0  0  0  0  0  0  0
    1.2865   -8.8078    0.9161 C   0  0  0  0  0  0  0  0  0  0  0  0
    1.6845   -9.1638   -0.2896 O   0  0  0  0  0  0  0  0  0  0  0  0
    1.1989   -7.4617    1.0956 Cl  0  0  0  0  0  0  0  0  0  0  0  0
    2.0532  -13.2187    2.3189 O   0  0  0  0  0  0  0  0  0  0  0  0
    1.7329  -14.2811    3.0307 C   0  0  0  0  0  0  0  0  0  0  0  0
    2.1546  -15.4845    2.3920 C   0  0  0  0  0  0  0  0  0  0  0  0
    3.1985  -15.5006    1.6393 O   0  0  0  0  0  0  0  0  0  0  0  0
    1.6087  -16.6068    2.8995 O   0  0  0  0  0  0  0  0  0  0  0  0
    2.4594   -7.4186    3.8623 O   0  0  0  0  0  0  0  0  0  0  0  0
    0.2405   -7.2258    3.2117 O   0  0  0  0  0  0  0  0  0  0  0  0
    2.0298  -17.8720    2.5296 C   0  0  0  0  0  0  0  0  0  0  0  0
  1  2  1  0
  7  8  1  0
  8  9  2  0
  8 10  1  0
  5 11  1  0
 11 12  1  0
 12 13  1  0
 13 14  2  0
 13 15  1  0
  1 16  1  0
  1 17  2  0
 15 18  1  0
  2  3  2  0
  3  4  1  0
  4  5  2  0
  5  6  1  0
  6  7  2  0
  2  7  1  0
M  END

$$$$
No_170-/export/home/yangzhenyu/potential_scad_32_flow//YTHDC2/2024-12-06-03-22-00/
     RDKit          3D

 19 20  0  0  0  0  0  0  0  0999 V2000
    1.1787   -8.0297    3.5154 C   0  0  0  0  0  0  0  0  0  0  0  0
    1.0491   -6.8434    2.9820 C   0  0  0  0  0  0  0  0  0  0  0  0
    0.0950   -8.8404    3.2292 C   0  0  0  0  0  0  0  0  0  0  0  0
   -0.9173   -8.4596    2.5152 C   0  0  0  0  0  0  0  0  0  0  0  0
   -1.0331   -7.2162    2.0653 C   0  0  0  0  0  0  0  0  0  0  0  0
   -0.0105   -6.3168    2.3081 C   0  0  0  0  0  0  0  0  0  0  0  0
    0.1150   -4.9910    1.8495 C   0  0  0  0  0  0  0  0  0  0  0  0
   -0.1376   -4.7952    0.5550 N   0  0  0  0  0  0  0  0  0  0  0  0
    0.8335   -4.0110    2.5280 O   0  0  0  0  0  0  0  0  0  0  0  0
    0.1683  -10.2835    3.6443 S   0  0  0  0  0  0  0  0  0  0  0  0
   -1.0646  -10.7828    4.1554 N   0  0  0  0  0  0  0  0  0  0  0  0
    1.1280  -10.4318    5.0356 O   0  0  0  0  0  0  0  0  0  0  0  0
    0.6757  -11.1824    2.6734 O   0  0  0  0  0  0  0  0  0  0  0  0
   -0.2280   -3.5010    0.0853 C   0  0  0  0  0  0  0  0  0  0  0  0
   -1.3539   -3.1390   -0.7379 C   0  0  0  0  0  0  0  0  0  0  0  0
   -1.9731   -4.1954   -1.2669 C   0  0  0  0  0  0  0  0  0  0  0  0
   -2.8964   -3.7778   -2.2770 C   0  0  0  0  0  0  0  0  0  0  0  0
   -2.9243   -2.2654   -2.3931 C   0  0  0  0  0  0  0  0  0  0  0  0
   -1.7996   -1.9680   -1.4276 C   0  0  0  0  0  0  0  0  0  0  0  0
  6  7  1  0
  7  8  1  0
  7  9  2  0
  3 10  1  0
 10 11  1  0
 10 12  2  0
 10 13  2  0
  8 14  1  0
 14 15  1  0
 15 16  1  0
 16 17  2  0
 17 18  1  0
 15 19  1  0
 18 19  2  0
  1  2  2  0
  2  6  1  0
  5  6  2  0
  4  5  1  0
  3  4  2  0
  1  3  1  0
M  END

$$$$
No_171-/export/home/yangzhenyu/potential_scad_32_flow//YTHDC2/2024-12-06-03-22-00/
     RDKit          3D

 14 14  0  0  1  0  0  0  0  0999 V2000
    1.1787   -8.0297    3.5154 C   0  0  0  0  0  0  0  0  0  0  0  0
    1.0491   -6.8434    2.9820 C   0  0  0  0  0  0  0  0  0  0  0  0
    1.9985   -8.9840    2.8958 C   0  0  2  0  0  0  0  0  0  0  0  0
    1.7297   -9.2108    1.6335 C   0  0  0  0  0  0  0  0  0  0  0  0
    1.7343   -8.0566    0.8408 C   0  0  2  0  0  0  0  0  0  0  0  0
    1.0269   -6.8892    1.4456 C   0  0  0  0  0  0  0  0  0  0  0  0
    2.0740   -7.9416   -0.3682 C   0  0  0  0  0  0  0  0  0  0  0  0
    2.2588   -9.0634   -1.1089 C   0  0  0  0  0  0  0  0  0  0  0  0
    3.4999   -9.2524   -1.6422 O   0  0  0  0  0  0  0  0  0  0  0  0
    1.9133  -10.3653    3.5973 C   0  0  0  0  0  0  0  0  0  0  0  0
    1.1855  -11.3180    3.2617 O   0  0  0  0  0  0  0  0  0  0  0  0
    2.9567  -10.6112    4.4691 N   0  0  0  0  0  0  0  0  0  0  0  0
    1.4206   -9.7924   -1.3865 O   0  0  0  0  0  0  0  0  0  0  0  0
    0.6433   -5.8275    0.8578 O   0  0  0  0  0  0  0  0  0  0  0  0
  1  2  1  0
  1  3  1  0
  3  4  1  0
  4  5  1  0
  2  6  1  0
  5  6  1  0
  5  7  1  6
  7  8  1  0
  8  9  2  0
  3 10  1  1
 10 11  2  0
 10 12  1  0
  8 13  1  0
  6 14  2  0
M  END

$$$$
No_172-/export/home/yangzhenyu/potential_scad_32_flow//YTHDC2/2024-12-06-03-22-00/
     RDKit          3D

 20 21  0  0  1  0  0  0  0  0999 V2000
    1.1787   -8.0297    3.5154 C   0  0  0  0  0  0  0  0  0  0  0  0
    1.0491   -6.8434    2.9820 C   0  0  0  0  0  0  0  0  0  0  0  0
    1.9985   -8.9840    2.8958 C   0  0  2  0  0  0  0  0  0  0  0  0
    1.7297   -9.2108    1.6335 C   0  0  0  0  0  0  0  0  0  0  0  0
    1.7343   -8.0566    0.8408 C   0  0  2  0  0  0  0  0  0  0  0  0
    1.0269   -6.8892    1.4456 C   0  0  0  0  0  0  0  0  0  0  0  0
    1.7596   -8.0979   -0.4723 C   0  0  0  0  0  0  0  0  0  0  0  0
    0.8317   -7.8698   -1.2086 C   0  0  0  0  0  0  0  0  0  0  0  0
    3.0401   -8.5152   -1.1114 C   0  0  0  0  0  0  0  0  0  0  0  0
    3.9736   -7.9789   -1.0423 O   0  0  0  0  0  0  0  0  0  0  0  0
    3.0657   -9.7070   -1.5980 O   0  0  0  0  0  0  0  0  0  0  0  0
    2.3739  -10.1724    3.6389 C   0  0  0  0  0  0  0  0  0  0  0  0
    2.3985  -11.3310    3.2001 N   0  0  0  0  0  0  0  0  0  0  0  0
    3.3012  -10.0140    4.6934 O   0  0  0  0  0  0  0  0  0  0  0  0
    1.3969  -11.7833    2.2892 C   0  0  0  0  0  0  0  0  0  0  0  0
    2.0479  -12.6942    1.3763 C   0  0  0  0  0  0  0  0  0  0  0  0
    0.4198  -12.7025    2.9968 C   0  0  0  0  0  0  0  0  0  0  0  0
   -0.1722  -13.4923    2.4939 C   0  0  0  0  0  0  0  0  0  0  0  0
    0.3179  -14.2193    1.2952 C   0  0  0  0  0  0  0  0  0  0  0  0
    1.4394  -13.6709    0.6997 C   0  0  0  0  0  0  0  0  0  0  0  0
  1  2  1  0
  1  3  1  0
  3  4  1  0
  4  5  1  0
  2  6  1  0
  5  6  1  0
  5  7  1  6
  7  8  2  0
  7  9  1  0
  9 10  2  0
  9 11  1  0
  3 12  1  1
 12 13  1  0
 12 14  2  0
 13 15  1  0
 15 16  2  0
 16 20  1  0
 19 20  2  0
 18 19  1  0
 17 18  2  0
 15 17  1  0
M  END

$$$$
No_173-/export/home/yangzhenyu/potential_scad_32_flow//YTHDC2/2024-12-06-03-22-00/
     RDKit          3D

 18 19  0  0  1  0  0  0  0  0999 V2000
    1.1787   -8.0297    3.5154 C   0  0  0  0  0  0  0  0  0  0  0  0
    1.0491   -6.8434    2.9820 C   0  0  0  0  0  0  0  0  0  0  0  0
    0.9905   -9.0774    2.6527 C   0  0  0  0  0  0  0  0  0  0  0  0
    0.7897   -8.9519    1.3691 C   0  0  0  0  0  0  0  0  0  0  0  0
    0.7018   -7.7198    0.7892 C   0  0  0  0  0  0  0  0  0  0  0  0
    0.8918   -6.5957    1.6117 C   0  0  0  0  0  0  0  0  0  0  0  0
    1.0774  -10.6059    3.3145 C   0  0  2  0  0  0  0  0  0  0  0  0
   -0.1032  -11.1934    3.4585 C   0  0  0  0  0  0  0  0  0  0  0  0
   -1.2292  -10.4461    3.8202 N   0  0  0  0  0  0  0  0  0  0  0  0
   -0.1862  -12.4871    3.3096 C   0  0  0  0  0  0  0  0  0  0  0  0
   -1.2569  -13.0355    2.6706 C   0  0  0  0  0  0  0  0  0  0  0  0
   -2.4412  -12.2543    2.7787 C   0  0  0  0  0  0  0  0  0  0  0  0
   -2.4078  -11.0382    3.4263 C   0  0  0  0  0  0  0  0  0  0  0  0
    2.3142  -10.9083    3.6719 C   0  0  0  0  0  0  0  0  0  0  0  0
    0.8660   -5.1028    1.0103 P   0  0  0  0  0  0  0  0  0  0  0  0
   -0.3869   -4.4515    1.9428 O   0  0  0  0  0  0  0  0  0  0  0  0
    1.9008   -4.1567    1.4957 O   0  0  0  0  0  0  0  0  0  0  0  0
    0.2964   -4.8446   -0.1914 O   0  0  0  0  0  0  0  0  0  0  0  0
  3  7  1  0
  7  8  1  0
  7 14  1  1
  6 15  1  0
 15 16  1  0
 15 17  2  0
 15 18  1  0
  1  2  2  0
  2  6  1  0
  5  6  2  0
  4  5  1  0
  3  4  2  0
  1  3  1  0
  8  9  2  0
  9 13  1  0
 12 13  2  0
 11 12  1  0
 10 11  2  0
  8 10  1  0
M  END

$$$$
No_174-/export/home/yangzhenyu/potential_scad_32_flow//YTHDC2/2024-12-06-03-22-00/
     RDKit          3D

 19 19  0  0  1  0  0  0  0  0999 V2000
    1.1787   -8.0297    3.5154 O   0  0  0  0  0  0  0  0  0  0  0  0
    0.9969   -8.9689    3.0048 C   0  0  1  0  0  0  0  0  0  0  0  0
    0.9976   -8.9567    1.6341 C   0  0  0  0  0  0  0  0  0  0  0  0
    0.7663   -7.7728    1.0082 C   0  0  1  0  0  0  0  0  0  0  0  0
    1.1468   -6.5619    1.6541 C   0  0  0  0  0  0  0  0  0  0  0  0
    1.3592   -6.6155    3.0007 C   0  0  0  0  0  0  0  0  0  0  0  0
    0.9781  -10.1276    3.6866 C   0  0  0  0  0  0  0  0  0  0  0  0
    1.9856  -10.9664    3.7361 C   0  0  0  0  0  0  0  0  0  0  0  0
    0.4808   -7.7281   -0.2477 C   0  0  0  0  0  0  0  0  0  0  0  0
    1.1720   -8.4318   -1.2242 O   0  0  0  0  0  0  0  0  0  0  0  0
   -0.6691   -7.1661   -0.6739 O   0  0  0  0  0  0  0  0  0  0  0  0
    3.1354  -10.4910    4.3918 C   0  0  0  0  0  0  0  0  0  0  0  0
    3.4818  -11.2745    5.6475 O   0  0  0  0  0  0  0  0  0  0  0  0
    1.6416   -5.6220    3.7512 C   0  0  0  0  0  0  0  0  0  0  0  0
    1.3328  -10.0724    0.9360 O   0  0  0  0  0  0  0  0  0  0  0  0
    1.4624   -4.2946    3.2207 O   0  0  0  0  0  0  0  0  0  0  0  0
   -0.2419  -10.4740    4.3447 C   0  0  0  0  0  0  0  0  0  0  0  0
   -1.3385   -9.6372    4.4554 O   0  0  0  0  0  0  0  0  0  0  0  0
   -0.4432  -11.7099    4.7419 O   0  0  0  0  0  0  0  0  0  0  0  0
  1  2  1  0
  2  3  1  0
  3  4  1  0
  4  5  1  0
  1  6  1  0
  5  6  1  0
  2  7  1  6
  7  8  1  0
  4  9  1  6
  9 10  2  0
  9 11  1  0
  8 12  1  0
 12 13  1  0
  6 14  1  0
  3 15  2  0
 14 16  1  0
  7 17  1  0
 17 18  2  0
 17 19  1  0
M  END

$$$$
No_175-/export/home/yangzhenyu/potential_scad_32_flow//YTHDC2/2024-12-06-03-22-00/
     RDKit          3D

 19 19  0  0  1  0  0  0  0  0999 V2000
    1.1787   -8.0297    3.5154 C   0  0  0  0  0  0  0  0  0  0  0  0
    1.0491   -6.8434    2.9820 N   0  0  0  0  0  0  0  0  0  0  0  0
    0.1476   -8.8697    3.1493 C   0  0  0  0  0  0  0  0  0  0  0  0
   -0.6149   -8.1131    2.3090 C   0  0  0  0  0  0  0  0  0  0  0  0
    0.0565   -6.8431    2.2251 C   0  0  1  0  0  0  0  0  0  0  0  0
   -0.3739   -5.7218    1.5515 C   0  0  0  0  0  0  0  0  0  0  0  0
    0.3830   -4.5542    1.5718 O   0  0  0  0  0  0  0  0  0  0  0  0
   -1.3245   -5.7294    0.7028 O   0  0  0  0  0  0  0  0  0  0  0  0
   -0.0995  -10.2022    3.5842 F   0  0  0  0  0  0  0  0  0  0  0  0
   -1.6930   -8.5048    1.7635 C   0  0  0  0  0  0  0  0  0  0  0  0
   -2.8867   -8.6267    2.3779 C   0  0  0  0  0  0  0  0  0  0  0  0
   -2.9947   -8.1159    3.7231 N   0  0  0  0  0  0  0  0  0  0  0  0
   -2.9720   -8.9168    4.8224 C   0  0  0  0  0  0  0  0  0  0  0  0
   -2.8722   -8.3806    6.0040 C   0  0  0  0  0  0  0  0  0  0  0  0
   -3.0863  -10.2427    4.6563 C   0  0  1  0  0  0  0  0  0  0  0  0
   -2.1161  -11.0354    4.2671 C   0  0  0  0  0  0  0  0  0  0  0  0
   -4.3583  -10.7007    5.0642 C   0  0  0  0  0  0  0  0  0  0  0  0
   -4.6362  -12.0624    4.9490 C   0  0  0  0  0  0  0  0  0  0  0  0
   -3.6509  -12.9203    4.4120 C   0  0  0  0  0  0  0  0  0  0  0  0
  1  2  1  0
  1  3  2  0
  3  4  1  0
  2  5  1  0
  4  5  1  0
  5  6  1  1
  6  7  2  0
  6  8  1  0
  3  9  1  0
  4 10  1  0
 10 11  2  3
 11 12  1  0
 12 13  1  0
 13 14  1  0
 13 15  1  0
 15 16  1  1
 15 17  1  0
 17 18  2  3
 18 19  1  0
M  END

$$$$
No_176-/export/home/yangzhenyu/potential_scad_32_flow//YTHDC2/2024-12-06-03-22-00/
     RDKit          3D

 18 18  0  0  0  0  0  0  0  0999 V2000
    1.1787   -8.0297    3.5154 C   0  0  0  0  0  0  0  0  0  0  0  0
    1.1048   -9.2215    3.2892 C   0  0  0  0  0  0  0  0  0  0  0  0
    1.3627  -10.1721    4.3044 C   0  0  0  0  0  0  0  0  0  0  0  0
    1.7354  -11.4730    3.9023 C   0  0  0  0  0  0  0  0  0  0  0  0
    1.8080  -11.8127    2.7216 C   0  0  0  0  0  0  0  0  0  0  0  0
    1.5854  -11.0021    1.7249 C   0  0  0  0  0  0  0  0  0  0  0  0
    1.3573   -9.7389    1.9287 C   0  0  0  0  0  0  0  0  0  0  0  0
    1.2865   -8.8078    0.9161 C   0  0  0  0  0  0  0  0  0  0  0  0
    0.9210   -7.5140    1.1674 O   0  0  0  0  0  0  0  0  0  0  0  0
    1.5321   -9.1645   -0.3432 O   0  0  0  0  0  0  0  0  0  0  0  0
    2.0860  -13.2080    2.3166 O   0  0  0  0  0  0  0  0  0  0  0  0
    1.7253  -14.2817    3.0052 C   0  0  0  0  0  0  0  0  0  0  0  0
    1.1361  -15.2854    2.1461 C   0  0  0  0  0  0  0  0  0  0  0  0
    1.3603  -16.4872    2.3791 O   0  0  0  0  0  0  0  0  0  0  0  0
    0.0051  -14.9243    1.5659 O   0  0  0  0  0  0  0  0  0  0  0  0
    0.1208   -7.2078    3.6937 N   0  0  0  0  0  0  0  0  0  0  0  0
   -1.0328   -7.9499    3.9222 C   0  0  0  0  0  0  0  0  0  0  0  0
   -2.1985   -7.4698    3.9180 O   0  0  0  0  0  0  0  0  0  0  0  0
  1  2  1  0
  7  8  1  0
  8  9  2  0
  8 10  1  0
  5 11  1  0
 11 12  1  0
 12 13  1  0
 13 14  2  0
 13 15  1  0
  1 16  1  0
 16 17  1  0
 17 18  2  0
  2  3  2  0
  3  4  1  0
  4  5  2  0
  5  6  1  0
  6  7  2  0
  2  7  1  0
M  END

$$$$
No_177-/export/home/yangzhenyu/potential_scad_32_flow//YTHDC2/2024-12-06-03-22-00/
     RDKit          3D

 18 17  0  0  1  0  0  0  0  0999 V2000
    1.1787   -8.0297    3.5154 O   0  0  0  0  0  0  0  0  0  0  0  0
    0.9969   -8.9689    3.0048 C   0  0  1  0  0  0  0  0  0  0  0  0
    0.9976   -8.9567    1.6341 C   0  0  0  0  0  0  0  0  0  0  0  0
    1.6062   -9.9071    0.9292 O   0  0  0  0  0  0  0  0  0  0  0  0
    0.3320   -7.9946    0.9663 N   0  0  0  0  0  0  0  0  0  0  0  0
    1.6353  -10.2439    3.5319 C   0  0  0  0  0  0  0  0  0  0  0  0
    2.6143  -10.2448    3.9638 C   0  0  0  0  0  0  0  0  0  0  0  0
    3.1426  -11.5253    4.6945 C   0  0  0  0  0  0  0  0  0  0  0  0
    0.8711  -11.4024    3.3414 C   0  0  0  0  0  0  0  0  0  0  0  0
   -0.4958  -11.3812    2.8071 C   0  0  0  0  0  0  0  0  0  0  0  0
   -0.9350  -12.4478    2.1803 C   0  0  0  0  0  0  0  0  0  0  0  0
   -0.6734  -13.4113    1.8318 C   0  0  0  0  0  0  0  0  0  0  0  0
    0.8194  -13.7135    1.6201 C   0  0  1  0  0  0  0  0  0  0  0  0
    1.6082  -12.7890    0.9832 C   0  0  0  0  0  0  0  0  0  0  0  0
    1.5349  -14.8495    2.2476 C   0  0  0  0  0  0  0  0  0  0  0  0
    0.8984  -15.3999    3.2893 O   0  0  0  0  0  0  0  0  0  0  0  0
    2.6462  -15.2915    2.0502 O   0  0  0  0  0  0  0  0  0  0  0  0
    0.1934   -7.9885   -0.3977 C   0  0  0  0  0  0  0  0  0  0  0  0
  2  1  1  1
  2  3  1  0
  3  4  2  0
  3  5  1  0
  2  6  1  0
  6  7  2  3
  7  8  1  0
  6  9  1  0
  9 10  1  0
 10 11  2  3
 11 12  1  0
 12 13  1  0
 13 14  1  1
 13 15  1  0
 15 16  1  0
 15 17  2  0
  5 18  1  0
M  END

$$$$
No_178-/export/home/yangzhenyu/potential_scad_32_flow//YTHDC2/2024-12-06-03-22-00/
     RDKit          3D

 19 19  0  0  0  0  0  0  0  0999 V2000
    1.1787   -8.0297    3.5154 C   0  0  0  0  0  0  0  0  0  0  0  0
    1.1048   -9.2215    3.2892 C   0  0  0  0  0  0  0  0  0  0  0  0
    1.3627  -10.1721    4.3044 C   0  0  0  0  0  0  0  0  0  0  0  0
    1.7354  -11.4730    3.9023 C   0  0  0  0  0  0  0  0  0  0  0  0
    1.8080  -11.8127    2.7216 C   0  0  0  0  0  0  0  0  0  0  0  0
    1.5854  -11.0021    1.7249 C   0  0  0  0  0  0  0  0  0  0  0  0
    1.3573   -9.7389    1.9287 C   0  0  0  0  0  0  0  0  0  0  0  0
    1.2865   -8.8078    0.9161 C   0  0  0  0  0  0  0  0  0  0  0  0
    1.6845   -9.1638   -0.2896 C   0  0  0  0  0  0  0  0  0  0  0  0
    1.0768   -8.8580   -1.3382 O   0  0  0  0  0  0  0  0  0  0  0  0
    2.9337   -9.5343   -0.5962 O   0  0  0  0  0  0  0  0  0  0  0  0
    2.0303  -13.2443    2.4007 C   0  0  0  0  0  0  0  0  0  0  0  0
    1.1602  -14.0426    1.6890 O   0  0  0  0  0  0  0  0  0  0  0  0
    3.0014  -13.9203    2.9599 O   0  0  0  0  0  0  0  0  0  0  0  0
    2.2982   -7.1972    3.6584 O   0  0  0  0  0  0  0  0  0  0  0  0
    0.0115   -7.4208    3.4937 O   0  0  0  0  0  0  0  0  0  0  0  0
    1.3665   -7.4414    1.0975 C   0  0  0  0  0  0  0  0  0  0  0  0
    0.3813   -6.5518    1.0577 O   0  0  0  0  0  0  0  0  0  0  0  0
    2.6598   -6.7493    1.0239 O   0  0  0  0  0  0  0  0  0  0  0  0
  1  2  1  0
  7  8  1  0
  8  9  1  0
  9 10  2  0
  9 11  1  0
  5 12  1  0
 12 13  2  0
 12 14  1  0
  1 15  1  0
  1 16  2  0
  8 17  1  0
 17 18  2  0
 17 19  1  0
  2  3  2  0
  3  4  1  0
  4  5  2  0
  5  6  1  0
  6  7  2  0
  2  7  1  0
M  END

$$$$
No_179-/export/home/yangzhenyu/potential_scad_32_flow//YTHDC2/2024-12-06-03-22-00/
     RDKit          3D

 19 19  0  0  1  0  0  0  0  0999 V2000
    1.1787   -8.0297    3.5154 C   0  0  0  0  0  0  0  0  0  0  0  0
    1.0491   -6.8434    2.9820 C   0  0  0  0  0  0  0  0  0  0  0  0
    1.9985   -8.9840    2.8958 C   0  0  0  0  0  0  0  0  0  0  0  0
    1.9135  -10.3404    3.6266 C   0  0  0  0  0  0  0  0  0  0  0  0
    1.3291  -11.3908    3.0222 C   0  0  2  0  0  0  0  0  0  0  0  0
    1.2749  -12.5326    3.7562 C   0  0  0  0  0  0  0  0  0  0  0  0
    0.4248   -6.6481    1.7861 C   0  0  0  0  0  0  0  0  0  0  0  0
    0.3130   -5.3457    1.3131 O   0  0  0  0  0  0  0  0  0  0  0  0
    0.1665   -7.5538    1.0002 O   0  0  0  0  0  0  0  0  0  0  0  0
    0.7627  -13.6838    3.1407 C   0  0  0  0  0  0  0  0  0  0  0  0
    0.4379  -13.6859    1.8707 C   0  0  0  0  0  0  0  0  0  0  0  0
    0.5663  -12.6279    1.0920 C   0  0  0  0  0  0  0  0  0  0  0  0
    1.0886  -11.4620    1.5983 C   0  0  0  0  0  0  0  0  0  0  0  0
    1.1424  -10.3962    0.7553 O   0  0  0  0  0  0  0  0  0  0  0  0
    0.6779  -14.8411    3.9390 O   0  0  0  0  0  0  0  0  0  0  0  0
    2.0766  -10.2629    4.9332 O   0  0  0  0  0  0  0  0  0  0  0  0
    0.6110  -16.1149    3.5697 C   0  0  0  0  0  0  0  0  0  0  0  0
   -0.0336  -16.9337    4.1006 C   0  0  0  0  0  0  0  0  0  0  0  0
    0.1495  -17.9438    4.2586 C   0  0  0  0  0  0  0  0  0  0  0  0
  1  2  1  0
  1  3  1  0
  3  4  1  0
  5  4  1  6
  5  6  1  0
  2  7  1  0
  7  8  2  0
  7  9  1  0
 10 11  1  0
  5 13  1  0
 12 13  1  0
 13 14  2  0
 10 15  1  0
  4 16  2  0
 15 17  1  0
 17 18  1  0
 18 19  2  0
  6 10  1  0
 11 12  1  0
M  END

$$$$
No_180-/export/home/yangzhenyu/potential_scad_32_flow//YTHDC2/2024-12-06-03-22-00/
     RDKit          3D

 18 17  0  0  1  0  0  0  0  0999 V2000
    1.1787   -8.0297    3.5154 O   0  0  0  0  0  0  0  0  0  0  0  0
    0.9969   -8.9689    3.0048 C   0  0  1  0  0  0  0  0  0  0  0  0
    0.9976   -8.9567    1.6341 C   0  0  0  0  0  0  0  0  0  0  0  0
    0.7663   -7.7728    1.0082 C   0  0  1  0  0  0  0  0  0  0  0  0
    0.6511   -7.8707   -0.2597 C   0  0  0  0  0  0  0  0  0  0  0  0
    0.8882  -10.0846    3.7169 C   0  0  0  0  0  0  0  0  0  0  0  0
    1.5214   -8.5694   -1.1182 O   0  0  0  0  0  0  0  0  0  0  0  0
   -0.5399   -7.8392   -0.9193 O   0  0  0  0  0  0  0  0  0  0  0  0
   -0.2602  -10.7294    3.9794 O   0  0  0  0  0  0  0  0  0  0  0  0
    2.0348  -10.8301    4.0206 O   0  0  0  0  0  0  0  0  0  0  0  0
    1.5651  -10.0617    0.9686 O   0  0  0  0  0  0  0  0  0  0  0  0
    0.0105   -6.8970    1.6465 C   0  0  0  0  0  0  0  0  0  0  0  0
   -1.3255   -7.1494    1.9301 C   0  0  0  0  0  0  0  0  0  0  0  0
    0.6292   -5.6619    2.2372 C   0  0  0  0  0  0  0  0  0  0  0  0
   -2.1500   -6.1358    2.5981 C   0  0  0  0  0  0  0  0  0  0  0  0
   -3.4596   -6.5664    3.1067 C   0  0  0  0  0  0  0  0  0  0  0  0
   -4.0860   -5.7483    3.7828 C   0  0  0  0  0  0  0  0  0  0  0  0
   -4.1016   -4.5716    3.7077 C   0  0  0  0  0  0  0  0  0  0  0  0
  2  1  1  6
  2  3  1  0
  4  3  1  1
  4  5  1  0
  2  6  1  0
  5  7  1  0
  5  8  2  0
  6  9  1  0
  6 10  2  0
  3 11  2  0
  4 12  1  0
 12 13  2  3
 12 14  1  0
 13 15  1  0
 15 16  1  0
 16 17  1  0
 17 18  1  0
M  END

$$$$
No_181-/export/home/yangzhenyu/potential_scad_32_flow//YTHDC2/2024-12-06-03-22-00/
     RDKit          3D

 21 21  0  0  1  0  0  0  0  0999 V2000
    1.1787   -8.0297    3.5154 C   0  0  0  0  0  0  0  0  0  0  0  0
    1.1048   -9.2215    3.2892 Cl  0  0  0  0  0  0  0  0  0  0  0  0
    0.2295   -7.0603    2.7853 C   0  0  0  0  0  0  0  0  0  0  0  0
    0.6531   -6.9396    1.4114 C   0  0  1  0  0  0  0  0  0  0  0  0
    1.3788   -7.7229    0.8919 C   0  0  0  0  0  0  0  0  0  0  0  0
    1.0531   -8.5661   -0.0946 C   0  0  2  0  0  0  0  0  0  0  0  0
   -0.2937   -8.6929   -0.4182 C   0  0  1  0  0  0  0  0  0  0  0  0
   -1.0401   -7.8039   -0.0760 C   0  0  2  0  0  0  0  0  0  0  0  0
   -0.7325   -6.8550    0.9277 C   0  0  0  0  0  0  0  0  0  0  0  0
    2.0013   -9.5480   -0.5420 C   0  0  0  0  0  0  0  0  0  0  0  0
    2.9674   -9.0156   -1.0818 O   0  0  0  0  0  0  0  0  0  0  0  0
    1.9329  -10.7140   -0.5471 O   0  0  0  0  0  0  0  0  0  0  0  0
   -2.6124   -7.6737   -0.5403 I   0  0  0  0  0  0  0  0  0  0  0  0
   -1.6158   -5.9391    1.4694 O   0  0  0  0  0  0  0  0  0  0  0  0
   -0.6458   -9.4841   -1.5425 O   0  0  0  0  0  0  0  0  0  0  0  0
   -0.3034   -8.7721   -2.8010 C   0  0  0  0  0  0  0  0  0  0  0  0
   -1.0154   -9.6511   -3.8690 C   0  0  1  0  0  0  0  0  0  0  0  0
   -1.7958  -10.5723   -3.4538 C   0  0  0  0  0  0  0  0  0  0  0  0
   -1.4614   -8.8720   -4.9419 C   0  0  0  0  0  0  0  0  0  0  0  0
   -1.2886   -7.6982   -4.8801 O   0  0  0  0  0  0  0  0  0  0  0  0
   -1.7945   -9.4211   -6.0679 C   0  0  0  0  0  0  0  0  0  0  0  0
  1  2  1  0
  1  3  1  0
  4  3  1  1
  4  5  1  0
  5  6  1  0
  6  7  1  0
  4  9  1  0
  8  9  1  0
  6 10  1  1
 10 11  2  0
 10 12  1  0
  8 13  1  1
  9 14  2  0
  7 15  1  6
 15 16  1  0
 16 17  1  0
 17 18  1  1
 17 19  1  0
 19 20  2  0
 19 21  1  0
  7  8  1  0
M  END

$$$$
No_182-/export/home/yangzhenyu/potential_scad_32_flow//YTHDC2/2024-12-06-03-22-00/
     RDKit          3D

 18 19  0  0  1  0  0  0  0  0999 V2000
    1.1787   -8.0297    3.5154 O   0  0  0  0  0  0  0  0  0  0  0  0
    0.9969   -8.9689    3.0048 C   0  0  1  0  0  0  0  0  0  0  0  0
    0.9976   -8.9567    1.6341 C   0  0  2  0  0  0  0  0  0  0  0  0
    1.6062   -9.9071    0.9292 C   0  0  0  0  0  0  0  0  0  0  0  0
    2.1191  -10.9757    1.6503 C   0  0  0  0  0  0  0  0  0  0  0  0
    2.1177  -10.9891    3.0403 C   0  0  0  0  0  0  0  0  0  0  0  0
    1.5441   -9.8905    3.6897 C   0  0  0  0  0  0  0  0  0  0  0  0
    0.5010   -7.8164    1.0436 C   0  0  1  0  0  0  0  0  0  0  0  0
    1.0624   -6.6356    1.1779 O   0  0  0  0  0  0  0  0  0  0  0  0
   -0.4627   -7.8169    0.1378 C   0  0  0  0  0  0  0  0  0  0  0  0
   -1.5288   -7.0756    0.1811 C   0  0  0  0  0  0  0  0  0  0  0  0
   -1.4808   -6.0614    1.3225 C   0  0  0  0  0  0  0  0  0  0  0  0
   -2.3397   -6.0125    2.3217 C   0  0  1  0  0  0  0  0  0  0  0  0
   -2.8048   -7.1480    2.8291 N   0  0  0  0  0  0  0  0  0  0  0  0
   -3.4859   -7.1817    3.9286 C   0  0  0  0  0  0  0  0  0  0  0  0
   -3.5709   -5.9595    4.5629 N   0  0  0  0  0  0  0  0  0  0  0  0
   -2.8601   -5.0681    3.4758 C   0  0  0  0  0  0  0  0  0  0  0  0
    1.7661  -10.1346    4.9792 O   0  0  0  0  0  0  0  0  0  0  0  0
  2  1  1  1
  2  3  1  0
  4  5  1  0
  2  7  1  0
  6  7  1  0
  3  8  1  0
  8  9  1  6
  8 10  1  0
 10 11  2  3
 11 12  1  0
 13 12  1  1
 13 14  1  0
 14 15  2  0
 15 16  1  0
 13 17  1  0
 16 17  1  0
  7 18  2  0
  3  4  1  1
  5  6  1  0
M  END

$$$$
No_183-/export/home/yangzhenyu/potential_scad_32_flow//YTHDC2/2024-12-06-03-22-00/
     RDKit          3D

 21 22  0  0  1  0  0  0  0  0999 V2000
    1.1787   -8.0297    3.5154 C   0  0  0  0  0  0  0  0  0  0  0  0
    1.0491   -6.8434    2.9820 C   0  0  1  0  0  0  0  0  0  0  0  0
    1.9985   -8.9840    2.8958 C   0  0  2  0  0  0  0  0  0  0  0  0
    1.7297   -9.2108    1.6335 C   0  0  0  0  0  0  0  0  0  0  0  0
    1.7343   -8.0566    0.8408 C   0  0  0  0  0  0  0  0  0  0  0  0
    1.0269   -6.8892    1.4456 C   0  0  0  0  0  0  0  0  0  0  0  0
    2.0740   -7.9416   -0.3682 O   0  0  0  0  0  0  0  0  0  0  0  0
    2.2757  -10.2253    3.6437 C   0  0  0  0  0  0  0  0  0  0  0  0
    1.5555  -11.3890    3.5635 C   0  0  0  0  0  0  0  0  0  0  0  0
    0.2210  -11.1625    3.9724 C   0  0  0  0  0  0  0  0  0  0  0  0
   -0.6970  -11.1074    3.1562 C   0  0  1  0  0  0  0  0  0  0  0  0
   -1.9808  -10.3578    3.3746 C   0  0  1  0  0  0  0  0  0  0  0  0
   -2.9236  -10.1924    2.7597 C   0  0  0  0  0  0  0  0  0  0  0  0
   -2.9134  -10.8012    1.4813 C   0  0  0  0  0  0  0  0  0  0  0  0
   -1.8101  -11.4713    1.0314 C   0  0  0  0  0  0  0  0  0  0  0  0
   -0.6790  -11.5648    1.8297 C   0  0  0  0  0  0  0  0  0  0  0  0
    0.3900  -12.2723    1.3649 O   0  0  0  0  0  0  0  0  0  0  0  0
    0.8496   -5.6158    3.4541 C   0  0  0  0  0  0  0  0  0  0  0  0
   -0.0804   -4.8377    3.1975 O   0  0  0  0  0  0  0  0  0  0  0  0
    2.0398   -4.8661    4.0375 O   0  0  0  0  0  0  0  0  0  0  0  0
   -2.0184   -9.7868    4.8284 O   0  0  0  0  0  0  0  0  0  0  0  0
  1  2  1  0
  1  3  1  0
  3  4  1  0
  4  5  1  0
  2  6  1  0
  5  6  1  0
  5  7  2  0
  3  8  1  1
  8  9  1  0
  9 10  1  0
 11 10  1  6
 11 12  1  0
 13 14  1  0
 11 16  1  0
 15 16  1  0
 16 17  2  0
  2 18  1  1
 18 19  2  0
 18 20  1  0
 12 21  1  1
 12 13  1  0
 14 15  1  0
M  END

$$$$
No_184-/export/home/yangzhenyu/potential_scad_32_flow//YTHDC2/2024-12-06-03-22-00/
     RDKit          3D

 19 20  0  0  1  0  0  0  0  0999 V2000
    1.1787   -8.0297    3.5154 C   0  0  0  0  0  0  0  0  0  0  0  0
    1.0491   -6.8434    2.9820 C   0  0  1  0  0  0  0  0  0  0  0  0
    1.9985   -8.9840    2.8958 C   0  0  2  0  0  0  0  0  0  0  0  0
    1.7297   -9.2108    1.6335 C   0  0  0  0  0  0  0  0  0  0  0  0
    1.7343   -8.0566    0.8408 C   0  0  0  0  0  0  0  0  0  0  0  0
    1.0269   -6.8892    1.4456 C   0  0  0  0  0  0  0  0  0  0  0  0
    2.4114   -7.8399   -0.2028 O   0  0  0  0  0  0  0  0  0  0  0  0
    2.2723  -10.2288    3.6529 C   0  0  0  0  0  0  0  0  0  0  0  0
    3.1950  -10.3687    4.4630 O   0  0  0  0  0  0  0  0  0  0  0  0
    1.4097  -11.2075    3.5765 O   0  0  0  0  0  0  0  0  0  0  0  0
    0.8303   -5.6512    3.4853 C   0  0  0  0  0  0  0  0  0  0  0  0
   -0.1107   -4.8543    3.2208 C   0  0  0  0  0  0  0  0  0  0  0  0
   -1.0884   -5.3440    2.2818 C   0  0  0  0  0  0  0  0  0  0  0  0
   -1.8187   -6.3739    2.4796 C   0  0  0  0  0  0  0  0  0  0  0  0
   -2.5881   -6.8505    1.4136 C   0  0  0  0  0  0  0  0  0  0  0  0
   -2.5676   -6.0977    0.3588 C   0  0  0  0  0  0  0  0  0  0  0  0
   -1.8796   -5.0345    0.0628 C   0  0  0  0  0  0  0  0  0  0  0  0
   -1.0461   -4.5685    1.0991 C   0  0  0  0  0  0  0  0  0  0  0  0
   -0.1402   -3.5082    0.8869 C   0  0  0  0  0  0  0  0  0  0  0  0
  2  1  1  1
  1  3  1  0
  3  4  1  0
  4  5  1  0
  2  6  1  0
  5  6  1  0
  5  7  2  0
  3  8  1  1
  8  9  1  0
  8 10  2  0
  2 11  1  0
 11 12  2  3
 12 13  1  0
 18 19  1  0
 13 14  2  0
 14 15  1  0
 15 16  2  0
 16 17  1  0
 17 18  2  0
 13 18  1  0
M  END

$$$$
No_185-/export/home/yangzhenyu/potential_scad_32_flow//YTHDC2/2024-12-06-03-22-00/
     RDKit          3D

 19 19  0  0  1  0  0  0  0  0999 V2000
    1.1787   -8.0297    3.5154 O   0  0  0  0  0  0  0  0  0  0  0  0
    0.9969   -8.9689    3.0048 C   0  0  0  0  0  0  0  0  0  0  0  0
    1.3055  -10.1056    3.6616 C   0  0  0  0  0  0  0  0  0  0  0  0
    1.5709  -11.1115    3.2016 C   0  0  0  0  0  0  0  0  0  0  0  0
    1.6332  -11.2629    1.7349 C   0  0  0  0  0  0  0  0  0  0  0  0
    1.4616  -10.1742    0.9691 C   0  0  0  0  0  0  0  0  0  0  0  0
    1.1252   -9.0006    1.6051 C   0  0  0  0  0  0  0  0  0  0  0  0
    0.8275   -7.7749    1.0285 C   0  0  1  0  0  0  0  0  0  0  0  0
    1.3414   -6.7053    1.3717 I   0  0  0  0  0  0  0  0  0  0  0  0
    1.9307  -12.4136    3.8154 C   0  0  0  0  0  0  0  0  0  0  0  0
    1.7766  -13.4001    3.3025 O   0  0  0  0  0  0  0  0  0  0  0  0
   -0.0243   -7.9504   -0.1537 C   0  0  0  0  0  0  0  0  0  0  0  0
   -1.3131   -7.5551   -0.0679 O   0  0  0  0  0  0  0  0  0  0  0  0
    0.3149   -8.2058   -1.3995 O   0  0  0  0  0  0  0  0  0  0  0  0
    2.6242  -12.3890    4.8455 O   0  0  0  0  0  0  0  0  0  0  0  0
   -2.1402   -7.2737   -1.0826 C   0  0  0  0  0  0  0  0  0  0  0  0
   -2.7018   -8.2281   -1.8171 C   0  0  0  0  0  0  0  0  0  0  0  0
   -2.4303   -8.4121   -3.0996 C   0  0  0  0  0  0  0  0  0  0  0  0
   -2.0832   -9.5187   -3.7755 O   0  0  0  0  0  0  0  0  0  0  0  0
  1  2  1  0
  7  8  1  0
  8  9  1  6
  4 10  1  0
 10 11  2  0
  8 12  1  0
 12 13  1  0
 12 14  2  0
 10 15  1  0
 13 16  1  0
 16 17  1  0
 17 18  1  0
 18 19  2  0
  2  3  2  0
  3  4  1  0
  4  5  2  0
  5  6  1  0
  6  7  2  0
  2  7  1  0
M  END

$$$$
No_186-/export/home/yangzhenyu/potential_scad_32_flow//YTHDC2/2024-12-06-03-22-00/
     RDKit          3D

 19 19  0  0  1  0  0  0  0  0999 V2000
    1.1787   -8.0297    3.5154 I   0  0  0  0  0  0  0  0  0  0  0  0
    0.7262   -7.1086    2.2967 C   0  0  1  0  0  0  0  0  0  0  0  0
    0.4843   -5.8065    2.4191 O   0  0  0  0  0  0  0  0  0  0  0  0
    0.8690   -7.6723    0.9768 C   0  0  0  0  0  0  0  0  0  0  0  0
   -0.0370   -7.6211    0.1164 C   0  0  0  0  0  0  0  0  0  0  0  0
    0.0377   -8.3924   -1.1320 Cl  0  0  0  0  0  0  0  0  0  0  0  0
   -1.2662   -6.7610    0.2093 C   0  0  0  0  0  0  0  0  0  0  0  0
   -1.2557   -5.5394   -0.1253 C   0  0  0  0  0  0  0  0  0  0  0  0
   -2.1840   -4.6627    0.1765 C   0  0  0  0  0  0  0  0  0  0  0  0
   -2.0674   -3.2467    0.0875 C   0  0  0  0  0  0  0  0  0  0  0  0
   -0.7668   -2.7746   -0.4538 N   0  0  0  0  0  0  0  0  0  0  0  0
    0.2404   -3.5086   -0.2922 C   0  0  0  0  0  0  0  0  0  0  0  0
    0.2074   -4.7920   -0.2679 C   0  0  0  0  0  0  0  0  0  0  0  0
   -0.7003   -1.3524   -0.8443 C   0  0  0  0  0  0  0  0  0  0  0  0
   -0.8484   -1.2110   -2.2578 C   0  0  0  0  0  0  0  0  0  0  0  0
   -0.8167    0.1836   -2.6291 O   0  0  0  0  0  0  0  0  0  0  0  0
   -1.2237   -2.0187   -3.0075 O   0  0  0  0  0  0  0  0  0  0  0  0
    1.8223   -8.6928    0.7626 O   0  0  0  0  0  0  0  0  0  0  0  0
    2.7812   -8.6521   -0.2091 C   0  0  0  0  0  0  0  0  0  0  0  0
  1  2  1  0
  2  3  1  6
  2  4  1  0
  4  5  2  3
  5  6  1  0
  5  7  1  0
  8  9  1  0
 10 11  1  0
 11 12  1  0
  8 13  1  0
 12 13  1  0
 11 14  1  0
 14 15  1  0
 15 16  2  0
 15 17  1  0
  4 18  1  0
 18 19  1  0
  7  8  1  0
  9 10  1  0
M  END

$$$$
No_187-/export/home/yangzhenyu/potential_scad_32_flow//YTHDC2/2024-12-06-03-22-00/
     RDKit          3D

 18 19  0  0  1  0  0  0  0  0999 V2000
    1.1787   -8.0297    3.5154 O   0  0  0  0  0  0  0  0  0  0  0  0
    0.9969   -8.9689    3.0048 C   0  0  1  0  0  0  0  0  0  0  0  0
    0.9976   -8.9567    1.6341 C   0  0  2  0  0  0  0  0  0  0  0  0
    1.6062   -9.9071    0.9292 C   0  0  0  0  0  0  0  0  0  0  0  0
    2.1191  -10.9757    1.6503 C   0  0  0  0  0  0  0  0  0  0  0  0
    2.1177  -10.9891    3.0403 C   0  0  0  0  0  0  0  0  0  0  0  0
    1.5441   -9.8905    3.6897 C   0  0  0  0  0  0  0  0  0  0  0  0
    0.5010   -7.8164    1.0436 N   0  0  0  0  0  0  0  0  0  0  0  0
   -0.3147   -7.1869    1.3378 C   0  0  0  0  0  0  0  0  0  0  0  0
   -1.2102   -7.6936    2.2223 N   0  0  0  0  0  0  0  0  0  0  0  0
   -0.6580   -5.8924    0.7562 C   0  0  1  0  0  0  0  0  0  0  0  0
    0.0200   -4.7226    1.3703 C   0  0  0  0  0  0  0  0  0  0  0  0
   -0.2544   -3.5060    0.8476 C   0  0  0  0  0  0  0  0  0  0  0  0
   -1.1272   -3.3712   -0.2292 C   0  0  0  0  0  0  0  0  0  0  0  0
   -1.6732   -4.4628   -0.8026 C   0  0  0  0  0  0  0  0  0  0  0  0
   -1.4236   -5.7422   -0.2932 C   0  0  0  0  0  0  0  0  0  0  0  0
   -1.8827   -6.7639   -0.9619 O   0  0  0  0  0  0  0  0  0  0  0  0
    1.5781  -10.1951    5.0171 O   0  0  0  0  0  0  0  0  0  0  0  0
  2  1  1  1
  2  3  1  0
  4  5  1  0
  2  7  1  0
  6  7  1  0
  3  8  1  0
  8  9  2  3
  9 10  1  0
  9 11  1  0
 11 12  1  6
 13 14  1  0
 11 16  1  0
 15 16  1  0
 16 17  2  0
  7 18  2  0
  3  4  1  1
  5  6  1  0
 12 13  1  0
 14 15  1  0
M  END

$$$$
No_188-/export/home/yangzhenyu/potential_scad_32_flow//YTHDC2/2024-12-06-03-22-00/
     RDKit          3D

 19 19  0  0  1  0  0  0  0  0999 V2000
    1.1787   -8.0297    3.5154 C   0  0  0  0  0  0  0  0  0  0  0  0
    1.1048   -9.2215    3.2892 C   0  0  0  0  0  0  0  0  0  0  0  0
    1.3627  -10.1721    4.3044 C   0  0  0  0  0  0  0  0  0  0  0  0
    2.3720  -10.8948    4.2468 C   0  0  0  0  0  0  0  0  0  0  0  0
    1.0579   -7.0441    2.4219 C   0  0  0  0  0  0  0  0  0  0  0  0
    0.8578   -7.4970    1.1686 C   0  0  0  0  0  0  0  0  0  0  0  0
    0.7382   -8.7683    0.8754 C   0  0  0  0  0  0  0  0  0  0  0  0
    0.8882   -9.7347    1.9238 C   0  0  0  0  0  0  0  0  0  0  0  0
    0.9437  -11.0299    1.7005 C   0  0  0  0  0  0  0  0  0  0  0  0
    1.9466  -11.5929    1.1835 O   0  0  0  0  0  0  0  0  0  0  0  0
   -0.0796  -11.8335    2.0221 F   0  0  0  0  0  0  0  0  0  0  0  0
    1.2066   -5.3695    2.7314 C   0  0  0  0  0  0  0  0  0  0  0  0
    3.5567  -10.3560    5.0619 Cl  0  0  0  0  0  0  0  0  0  0  0  0
    0.5741   -9.2303   -0.4173 C   0  0  0  0  0  0  0  0  0  0  0  0
    1.3362   -9.0298   -1.4167 S   0  0  2  0  0  0  0  0  0  0  0  0
    2.7647   -8.8232   -0.7864 O   0  0  0  0  0  0  0  0  0  0  0  0
    1.2257   -7.7288   -2.1238 N   0  0  0  0  0  0  0  0  0  0  0  0
    0.3038   -4.7384    2.7785 C   0  0  0  0  0  0  0  0  0  0  0  0
    0.1501   -3.8133    2.0560 O   0  0  0  0  0  0  0  0  0  0  0  0
  2  3  1  0
  3  4  1  0
  8  9  1  0
  9 10  2  0
  9 11  1  0
  5 12  1  0
  4 13  1  0
  7 14  1  0
 14 15  1  0
 15 16  1  0
 15 17  1  1
 12 18  1  0
 18 19  2  0
  1  2  2  0
  2  8  1  0
  7  8  2  0
  6  7  1  0
  5  6  2  0
  1  5  1  0
M  END

$$$$
No_189-/export/home/yangzhenyu/potential_scad_32_flow//YTHDC2/2024-12-06-03-22-00/
     RDKit          3D

 19 19  0  0  1  0  0  0  0  0999 V2000
    1.1787   -8.0297    3.5154 C   0  0  0  0  0  0  0  0  0  0  0  0
    1.0491   -6.8434    2.9820 C   0  0  2  0  0  0  0  0  0  0  0  0
    0.9905   -9.0774    2.6527 C   0  0  1  0  0  0  0  0  0  0  0  0
    0.7897   -8.9519    1.3691 C   0  0  0  0  0  0  0  0  0  0  0  0
    0.7018   -7.7198    0.7892 C   0  0  0  0  0  0  0  0  0  0  0  0
    0.8918   -6.5957    1.6117 C   0  0  0  0  0  0  0  0  0  0  0  0
    1.0998  -10.4710    3.2437 C   0  0  0  0  0  0  0  0  0  0  0  0
    2.1917  -10.8879    3.7399 C   0  0  0  0  0  0  0  0  0  0  0  0
    0.8624   -5.2493    1.2482 O   0  0  0  0  0  0  0  0  0  0  0  0
   -0.0822  -10.6642    4.2412 C   0  0  0  0  0  0  0  0  0  0  0  0
    2.3610  -12.2158    4.0348 O   0  0  0  0  0  0  0  0  0  0  0  0
   -0.9912  -11.4558    3.6780 O   0  0  0  0  0  0  0  0  0  0  0  0
    0.6027  -10.0070    0.4121 C   0  0  0  0  0  0  0  0  0  0  0  0
   -0.4990  -10.3583    0.0658 O   0  0  0  0  0  0  0  0  0  0  0  0
    1.7378  -10.7009    0.0603 Cl  0  0  0  0  0  0  0  0  0  0  0  0
    1.3545   -5.6884    3.7942 C   0  0  0  0  0  0  0  0  0  0  0  0
    0.4245   -4.7003    3.9058 C   0  0  0  0  0  0  0  0  0  0  0  0
    0.9482   -3.4203    4.3643 O   0  0  0  0  0  0  0  0  0  0  0  0
   -0.8717   -4.6083    3.5910 C   0  0  0  0  0  0  0  0  0  0  0  0
  2  1  1  6
  3  4  1  0
  2  6  1  0
  5  6  1  0
  3  7  1  6
  7  8  1  0
  6  9  2  0
  7 10  1  0
  8 11  1  0
 10 12  1  0
  4 13  1  0
 13 14  2  0
 13 15  1  0
  2 16  1  0
 16 17  2  3
 17 18  1  0
 17 19  1  0
  1  3  1  0
  4  5  1  0
M  END

$$$$
No_190-/export/home/yangzhenyu/potential_scad_32_flow//YTHDC2/2024-12-06-03-22-00/
     RDKit          3D

 18 18  0  0  0  0  0  0  0  0999 V2000
    1.1787   -8.0297    3.5154 C   0  0  0  0  0  0  0  0  0  0  0  0
    1.1048   -9.2215    3.2892 C   0  0  0  0  0  0  0  0  0  0  0  0
    1.3627  -10.1721    4.3044 C   0  0  0  0  0  0  0  0  0  0  0  0
    2.3720  -10.8948    4.2468 C   0  0  0  0  0  0  0  0  0  0  0  0
    1.0579   -7.0441    2.4219 C   0  0  0  0  0  0  0  0  0  0  0  0
    0.8578   -7.4970    1.1686 C   0  0  0  0  0  0  0  0  0  0  0  0
    0.7382   -8.7683    0.8754 C   0  0  0  0  0  0  0  0  0  0  0  0
    0.8882   -9.7347    1.9238 C   0  0  0  0  0  0  0  0  0  0  0  0
    0.9437  -11.0299    1.7005 C   0  0  0  0  0  0  0  0  0  0  0  0
    1.9466  -11.5929    1.1835 O   0  0  0  0  0  0  0  0  0  0  0  0
   -0.1390  -11.7787    1.8277 O   0  0  0  0  0  0  0  0  0  0  0  0
    1.2003   -5.5985    2.6872 O   0  0  0  0  0  0  0  0  0  0  0  0
    3.5415  -10.3801    5.0512 C   0  0  0  0  0  0  0  0  0  0  0  0
    4.6608  -11.0815    4.9727 N   0  0  0  0  0  0  0  0  0  0  0  0
    3.2991   -9.8479    6.1922 O   0  0  0  0  0  0  0  0  0  0  0  0
    0.5664   -9.2263   -0.4058 C   0  0  0  0  0  0  0  0  0  0  0  0
    1.3549   -9.0388   -1.4139 O   0  0  0  0  0  0  0  0  0  0  0  0
   -0.7513   -9.5003   -0.7291 I   0  0  0  0  0  0  0  0  0  0  0  0
  2  3  1  0
  3  4  1  0
  8  9  1  0
  9 10  1  0
  9 11  2  0
  5 12  1  0
  4 13  1  0
 13 14  1  0
 13 15  2  0
  7 16  1  0
 16 17  2  0
 16 18  1  0
  1  2  2  0
  2  8  1  0
  7  8  2  0
  6  7  1  0
  5  6  2  0
  1  5  1  0
M  END

$$$$
No_191-/export/home/yangzhenyu/potential_scad_32_flow//YTHDC2/2024-12-06-03-22-00/
     RDKit          3D

 18 18  0  0  1  0  0  0  0  0999 V2000
    1.1787   -8.0297    3.5154 C   0  0  0  0  0  0  0  0  0  0  0  0
    1.0491   -6.8434    2.9820 C   0  0  0  0  0  0  0  0  0  0  0  0
    0.9905   -9.0774    2.6527 C   0  0  1  0  0  0  0  0  0  0  0  0
    0.7897   -8.9519    1.3691 N   0  0  0  0  0  0  0  0  0  0  0  0
    0.8618   -6.5727    1.6755 C   0  0  2  0  0  0  0  0  0  0  0  0
    0.7085   -5.1683    1.1636 C   0  0  0  0  0  0  0  0  0  0  0  0
    0.6729   -7.6754    0.8404 C   0  0  0  0  0  0  0  0  0  0  0  0
    1.1459  -10.5334    3.0355 Br  0  0  0  0  0  0  0  0  0  0  0  0
    0.6841   -9.9615    0.3148 C   0  0  0  0  0  0  0  0  0  0  0  0
   -0.6863  -10.0161   -0.2822 O   0  0  0  0  0  0  0  0  0  0  0  0
    1.6144   -4.2670    1.6010 O   0  0  0  0  0  0  0  0  0  0  0  0
   -0.5064   -4.5966    0.9904 O   0  0  0  0  0  0  0  0  0  0  0  0
    1.4737  -10.8641    0.1134 O   0  0  0  0  0  0  0  0  0  0  0  0
   -0.5330   -3.3186    0.4800 C   0  0  1  0  0  0  0  0  0  0  0  0
   -0.8697   -3.2321   -0.9814 C   0  0  0  0  0  0  0  0  0  0  0  0
   -0.4935   -2.0016   -1.5955 O   0  0  0  0  0  0  0  0  0  0  0  0
   -0.8850   -4.3093   -1.7108 O   0  0  0  0  0  0  0  0  0  0  0  0
   -0.6616   -2.3561    1.3336 C   0  0  0  0  0  0  0  0  0  0  0  0
  1  2  1  0
  3  4  1  0
  5  6  1  1
  4  7  1  0
  5  7  1  0
  3  8  1  6
  4  9  1  0
  9 10  1  0
  6 11  2  0
  6 12  1  0
  9 13  2  0
 12 14  1  0
 14 15  1  0
 15 16  1  0
 15 17  2  0
 14 18  1  1
  1  3  1  0
  2  5  1  0
M  END

$$$$
No_192-/export/home/yangzhenyu/potential_scad_32_flow//YTHDC2/2024-12-06-03-22-00/
     RDKit          3D

 20 20  0  0  1  0  0  0  0  0999 V2000
    1.1787   -8.0297    3.5154 C   0  0  0  0  0  0  0  0  0  0  0  0
    1.0491   -6.8434    2.9820 Cl  0  0  0  0  0  0  0  0  0  0  0  0
    0.9474   -9.1766    2.6032 C   0  0  1  0  0  0  0  0  0  0  0  0
    0.8298   -8.9426    1.3809 C   0  0  0  0  0  0  0  0  0  0  0  0
   -0.3695   -8.9922    0.7951 C   0  0  0  0  0  0  0  0  0  0  0  0
   -0.4234   -8.7969   -0.6688 C   0  0  0  0  0  0  0  0  0  0  0  0
    0.7222   -8.7965   -1.3391 C   0  0  0  0  0  0  0  0  0  0  0  0
    1.9481   -9.0541    0.3352 C   0  0  0  0  0  0  0  0  0  0  0  0
    1.8921   -8.8467   -0.8436 N   0  0  0  0  0  0  0  0  0  0  0  0
    1.0645  -10.4547    3.2328 C   0  0  0  0  0  0  0  0  0  0  0  0
    2.2039  -11.1199    3.4472 O   0  0  0  0  0  0  0  0  0  0  0  0
   -0.0462  -11.0881    3.5742 N   0  0  0  0  0  0  0  0  0  0  0  0
   -1.6939   -8.7061   -1.2936 C   0  0  0  0  0  0  0  0  0  0  0  0
   -2.0613   -7.3124   -1.6006 O   0  0  0  0  0  0  0  0  0  0  0  0
   -1.7776   -9.4684   -2.5243 O   0  0  0  0  0  0  0  0  0  0  0  0
   -2.8478   -9.1376   -0.6156 O   0  0  0  0  0  0  0  0  0  0  0  0
   -0.1294  -12.3657    3.9601 C   0  0  0  0  0  0  0  0  0  0  0  0
   -0.1122  -13.2677    2.8203 C   0  0  0  0  0  0  0  0  0  0  0  0
   -0.4495  -12.8816    1.6166 O   0  0  0  0  0  0  0  0  0  0  0  0
    0.5839  -14.4467    2.9508 O   0  0  0  0  0  0  0  0  0  0  0  0
  1  2  1  0
  3  1  1  6
  3  4  1  0
  3 10  1  0
 10 11  2  0
 10 12  1  0
  6 13  1  0
 13 14  1  0
 13 15  1  0
 13 16  1  0
 12 17  1  0
 17 18  1  0
 18 19  2  0
 18 20  1  0
  4  5  2  0
  5  6  1  0
  6  7  2  0
  7  9  1  0
  8  9  2  0
  4  8  1  0
M  END

$$$$
No_193-/export/home/yangzhenyu/potential_scad_32_flow//YTHDC2/2024-12-06-03-22-00/
     RDKit          3D

 19 19  0  0  1  0  0  0  0  0999 V2000
    1.1787   -8.0297    3.5154 C   0  0  0  0  0  0  0  0  0  0  0  0
    1.0491   -6.8434    2.9820 C   0  0  0  0  0  0  0  0  0  0  0  0
    1.9985   -8.9840    2.8958 C   0  0  0  0  0  0  0  0  0  0  0  0
    1.1814  -10.1889    2.5497 C   0  0  1  0  0  0  0  0  0  0  0  0
    0.3496  -10.1352    1.6537 C   0  0  1  0  0  0  0  0  0  0  0  0
    0.7737   -9.6057    0.4354 O   0  0  0  0  0  0  0  0  0  0  0  0
    0.9761   -6.5737    1.8811 N   0  0  0  0  0  0  0  0  0  0  0  0
    1.8064  -11.3839    3.1084 C   0  0  0  0  0  0  0  0  0  0  0  0
    0.8353  -12.3849    3.4392 S   0  0  0  0  0  0  0  0  0  0  0  0
    0.8510   -5.2264    1.4184 O   0  0  0  0  0  0  0  0  0  0  0  0
   -0.4445  -11.7717    3.1142 C   0  0  0  0  0  0  0  0  0  0  0  0
   -0.7222  -10.8614    2.1285 C   0  0  0  0  0  0  0  0  0  0  0  0
   -1.8623  -10.9489    1.3567 O   0  0  0  0  0  0  0  0  0  0  0  0
    1.4189   -5.7215    3.9112 O   0  0  0  0  0  0  0  0  0  0  0  0
    1.9985   -9.8396   -0.1462 C   0  0  0  0  0  0  0  0  0  0  0  0
    2.5634   -8.6279   -0.6006 C   0  0  0  0  0  0  0  0  0  0  0  0
    1.7237   -7.6226   -0.8287 O   0  0  0  0  0  0  0  0  0  0  0  0
    3.7829   -8.5958   -0.9302 O   0  0  0  0  0  0  0  0  0  0  0  0
    2.9945  -11.4011    3.7234 O   0  0  0  0  0  0  0  0  0  0  0  0
  1  2  1  0
  1  3  1  0
  4  3  1  6
  4  5  1  0
  5  6  1  6
  2  7  1  0
  4  8  1  0
  8  9  1  0
  7 10  2  0
  9 11  1  0
  5 12  1  0
 11 12  1  0
 12 13  2  0
  2 14  2  0
  6 15  1  0
 15 16  1  0
 16 17  1  0
 16 18  2  0
  8 19  2  0
M  END

$$$$
No_194-/export/home/yangzhenyu/potential_scad_32_flow//YTHDC2/2024-12-06-03-22-00/
     RDKit          3D

 18 18  0  0  1  0  0  0  0  0999 V2000
    1.1787   -8.0297    3.5154 C   0  0  0  0  0  0  0  0  0  0  0  0
    1.0491   -6.8434    2.9820 C   0  0  0  0  0  0  0  0  0  0  0  0
    0.9905   -9.0774    2.6527 C   0  0  0  0  0  0  0  0  0  0  0  0
    0.9687   -8.6883    1.3634 C   0  0  0  0  0  0  0  0  0  0  0  0
    1.0948   -6.3768    1.7686 C   0  0  0  0  0  0  0  0  0  0  0  0
    0.9504   -7.3975    0.8471 C   0  0  0  0  0  0  0  0  0  0  0  0
    0.9617   -9.7173    0.3352 C   0  0  0  0  0  0  0  0  0  0  0  0
    1.3407  -10.9614    0.6281 O   0  0  0  0  0  0  0  0  0  0  0  0
    0.4674   -9.5923   -0.8782 O   0  0  0  0  0  0  0  0  0  0  0  0
    1.0597   -5.0409    1.3702 O   0  0  0  0  0  0  0  0  0  0  0  0
    1.1398  -10.4162    3.1244 C   0  0  1  0  0  0  0  0  0  0  0  0
    2.4384  -10.8639    3.6114 C   0  0  0  0  0  0  0  0  0  0  0  0
    2.9180  -10.2553    4.7396 O   0  0  0  0  0  0  0  0  0  0  0  0
    0.1424  -11.1967    3.3691 C   0  0  0  0  0  0  0  0  0  0  0  0
   -1.0544  -10.6238    3.8493 P   0  0  0  0  0  0  0  0  0  0  0  0
   -1.7026   -9.7602    3.0977 O   0  0  0  0  0  0  0  0  0  0  0  0
   -2.1581  -11.7490    4.0758 O   0  0  0  0  0  0  0  0  0  0  0  0
   -1.0704  -10.0023    5.3576 O   0  0  0  0  0  0  0  0  0  0  0  0
  4  7  1  0
  7  8  2  0
  7  9  1  0
  5 10  1  0
  3 11  1  0
 11 12  1  1
 12 13  1  0
 11 14  1  0
 14 15  1  0
 15 16  2  0
 15 17  1  0
 15 18  1  0
  1  2  2  0
  2  5  1  0
  5  6  2  0
  4  6  1  0
  3  4  2  0
  1  3  1  0
M  END

$$$$
No_195-/export/home/yangzhenyu/potential_scad_32_flow//YTHDC2/2024-12-06-03-22-00/
     RDKit          3D

 20 20  0  0  1  0  0  0  0  0999 V2000
    1.1787   -8.0297    3.5154 N   0  0  0  0  0  0  0  0  0  0  0  0
    1.0818   -9.0751    3.2053 C   0  0  0  0  0  0  0  0  0  0  0  0
    0.7576   -9.3725    1.9159 C   0  0  0  0  0  0  0  0  0  0  0  0
    0.8823   -8.4917    1.0547 C   0  0  0  0  0  0  0  0  0  0  0  0
    1.4631   -7.3107    1.2451 C   0  0  0  0  0  0  0  0  0  0  0  0
    1.6470   -6.9326    2.5669 C   0  0  0  0  0  0  0  0  0  0  0  0
    0.8237  -10.1305    4.2407 C   0  0  1  0  0  0  0  0  0  0  0  0
   -0.4178  -10.6899    4.4426 C   0  0  0  0  0  0  0  0  0  0  0  0
    1.9245  -11.1874    4.2018 C   0  0  0  0  0  0  0  0  0  0  0  0
    3.1448  -10.6827    4.6178 P   0  0  0  0  0  0  0  0  0  0  0  0
    3.1854   -9.9275    5.7255 O   0  0  0  0  0  0  0  0  0  0  0  0
    4.1335  -11.8622    5.0349 O   0  0  0  0  0  0  0  0  0  0  0  0
    0.8931   -8.8621   -0.4234 C   0  0  0  0  0  0  0  0  0  0  0  0
   -0.4446   -9.0879   -0.7760 O   0  0  0  0  0  0  0  0  0  0  0  0
    1.6717   -8.8296   -1.2606 O   0  0  0  0  0  0  0  0  0  0  0  0
   -0.8176  -11.8311    3.9517 O   0  0  0  0  0  0  0  0  0  0  0  0
   -1.4088   -9.9267    4.8996 O   0  0  0  0  0  0  0  0  0  0  0  0
    1.8418   -5.6699    3.1024 C   0  0  0  0  0  0  0  0  0  0  0  0
    1.5460   -4.6227    2.2654 O   0  0  0  0  0  0  0  0  0  0  0  0
    2.0483   -5.4274    4.2169 O   0  0  0  0  0  0  0  0  0  0  0  0
  2  7  1  0
  7  8  1  0
  7  9  1  6
  9 10  1  0
 10 11  1  0
 10 12  1  0
  4 13  1  0
 13 14  2  0
 13 15  1  0
  8 16  2  0
  8 17  1  0
  6 18  1  0
 18 19  2  0
 18 20  1  0
  1  2  2  0
  2  3  1  0
  3  4  2  0
  4  5  1  0
  5  6  2  0
  1  6  1  0
M  END

$$$$
No_196-/export/home/yangzhenyu/potential_scad_32_flow//YTHDC2/2024-12-06-03-22-00/
     RDKit          3D

 17 17  0  0  0  0  0  0  0  0999 V2000
    1.1787   -8.0297    3.5154 C   0  0  0  0  0  0  0  0  0  0  0  0
    1.1048   -9.2215    3.2892 C   0  0  0  0  0  0  0  0  0  0  0  0
    1.3627  -10.1721    4.3044 C   0  0  0  0  0  0  0  0  0  0  0  0
    1.7354  -11.4730    3.9023 C   0  0  0  0  0  0  0  0  0  0  0  0
    1.8080  -11.8127    2.7216 C   0  0  0  0  0  0  0  0  0  0  0  0
    1.5854  -11.0021    1.7249 C   0  0  0  0  0  0  0  0  0  0  0  0
    1.3573   -9.7389    1.9287 C   0  0  0  0  0  0  0  0  0  0  0  0
    1.1102   -8.8712    0.9017 C   0  0  0  0  0  0  0  0  0  0  0  0
    0.5299   -7.6926    1.0325 O   0  0  0  0  0  0  0  0  0  0  0  0
    1.3970   -9.2634   -0.4035 N   0  0  0  0  0  0  0  0  0  0  0  0
    2.1535  -13.3837    2.2958 C   0  0  0  0  0  0  0  0  0  0  0  0
    1.0633  -14.1228    1.7459 O   0  0  0  0  0  0  0  0  0  0  0  0
    3.2460  -13.8061    2.1134 O   0  0  0  0  0  0  0  0  0  0  0  0
    2.4527   -7.2711    3.5281 O   0  0  0  0  0  0  0  0  0  0  0  0
    0.1517   -7.2669    3.7440 O   0  0  0  0  0  0  0  0  0  0  0  0
    1.2386   -8.5181   -1.5363 O   0  0  0  0  0  0  0  0  0  0  0  0
    3.3479  -15.1643    1.6539 C   0  0  0  0  0  0  0  0  0  0  0  0
  1  2  1  0
  7  8  1  0
  8  9  2  0
  8 10  1  0
  5 11  1  0
 11 12  2  0
 11 13  1  0
  1 14  1  0
  1 15  2  0
 10 16  2  0
 13 17  1  0
  2  3  2  0
  3  4  1  0
  4  5  2  0
  5  6  1  0
  6  7  2  0
  2  7  1  0
M  END

$$$$
No_197-/export/home/yangzhenyu/potential_scad_32_flow//YTHDC2/2024-12-06-03-22-00/
     RDKit          3D

 17 16  0  0  1  0  0  0  0  0999 V2000
    1.1787   -8.0297    3.5154 C   0  0  0  0  0  0  0  0  0  0  0  0
    1.1048   -9.2215    3.2892 C   0  0  0  0  0  0  0  0  0  0  0  0
    1.2339   -9.7611    2.0189 C   0  0  0  0  0  0  0  0  0  0  0  0
    1.3583   -9.0036    0.9764 C   0  0  1  0  0  0  0  0  0  0  0  0
    1.5996   -7.6362    1.1311 Br  0  0  0  0  0  0  0  0  0  0  0  0
    1.6015   -9.6839   -0.3302 C   0  0  0  0  0  0  0  0  0  0  0  0
    1.2495  -10.8649   -0.3992 O   0  0  0  0  0  0  0  0  0  0  0  0
    1.6848   -9.0245   -1.3777 O   0  0  0  0  0  0  0  0  0  0  0  0
    1.0673  -11.2519    2.1039 C   0  0  0  0  0  0  0  0  0  0  0  0
    2.2490  -12.0436    2.0741 C   0  0  0  0  0  0  0  0  0  0  0  0
    2.0202  -13.4066    2.2475 C   0  0  0  0  0  0  0  0  0  0  0  0
    2.1463  -14.3387    1.2529 O   0  0  0  0  0  0  0  0  0  0  0  0
    1.9451  -13.9790    3.3982 O   0  0  0  0  0  0  0  0  0  0  0  0
    2.5103   -7.4947    4.0133 O   0  0  0  0  0  0  0  0  0  0  0  0
    0.1929   -7.3217    4.0660 O   0  0  0  0  0  0  0  0  0  0  0  0
    0.7673  -10.2448    4.5194 C   0  0  0  0  0  0  0  0  0  0  0  0
   -0.6975  -10.4353    4.6358 C   0  0  0  0  0  0  0  0  0  0  0  0
  1  2  1  0
  2  3  2  3
  3  4  1  0
  4  5  1  1
  4  6  1  0
  6  7  1  0
  6  8  2  0
  3  9  1  0
  9 10  1  0
 10 11  1  0
 11 12  2  0
 11 13  1  0
  1 14  1  0
  1 15  2  0
  2 16  1  0
 16 17  1  0
M  END

$$$$
No_198-/export/home/yangzhenyu/potential_scad_32_flow//YTHDC2/2024-12-06-03-22-00/
     RDKit          3D

 18 18  0  0  0  0  0  0  0  0999 V2000
    1.1787   -8.0297    3.5154 C   0  0  0  0  0  0  0  0  0  0  0  0
    1.1048   -9.2215    3.2892 C   0  0  0  0  0  0  0  0  0  0  0  0
    1.2339   -9.7611    2.0189 C   0  0  0  0  0  0  0  0  0  0  0  0
    1.3583   -9.0036    0.9764 C   0  0  0  0  0  0  0  0  0  0  0  0
    1.5996   -7.6362    1.1311 C   0  0  0  0  0  0  0  0  0  0  0  0
    1.4830   -7.0928    2.3626 C   0  0  0  0  0  0  0  0  0  0  0  0
    1.1008  -11.2372    1.8542 C   0  0  0  0  0  0  0  0  0  0  0  0
    1.9749  -12.0938    2.2342 C   0  0  0  0  0  0  0  0  0  0  0  0
    1.7533  -13.4231    1.8956 C   0  0  0  0  0  0  0  0  0  0  0  0
    0.8624  -13.8318    1.1071 F   0  0  0  0  0  0  0  0  0  0  0  0
    2.4921  -14.4165    2.3805 C   0  0  0  0  0  0  0  0  0  0  0  0
    1.5464   -5.4682    2.7361 Cl  0  0  0  0  0  0  0  0  0  0  0  0
    2.0071  -15.7978    2.4697 O   0  0  0  0  0  0  0  0  0  0  0  0
    1.5079   -9.4605   -0.3477 I   0  0  0  0  0  0  0  0  0  0  0  0
    3.7672  -14.5514    2.4610 O   0  0  0  0  0  0  0  0  0  0  0  0
   -0.0761  -11.6426    1.1951 O   0  0  0  0  0  0  0  0  0  0  0  0
    0.8928  -10.1363    4.4634 Cl  0  0  0  0  0  0  0  0  0  0  0  0
    1.7918   -6.8425    0.1331 O   0  0  0  0  0  0  0  0  0  0  0  0
  3  7  1  0
  7  8  1  0
  8  9  2  3
  9 10  1  0
  9 11  1  0
  6 12  1  0
 11 13  2  0
  4 14  1  0
 11 15  1  0
  7 16  2  0
  2 17  1  0
  5 18  1  0
  1  2  2  0
  2  3  1  0
  3  4  2  0
  4  5  1  0
  5  6  2  0
  1  6  1  0
M  END

$$$$
No_199-/export/home/yangzhenyu/potential_scad_32_flow//YTHDC2/2024-12-06-03-22-00/
     RDKit          3D

 19 20  0  0  1  0  0  0  0  0999 V2000
    1.1787   -8.0297    3.5154 C   0  0  0  0  0  0  0  0  0  0  0  0
    1.0491   -6.8434    2.9820 C   0  0  0  0  0  0  0  0  0  0  0  0
    1.9985   -8.9840    2.8958 C   0  0  1  0  0  0  0  0  0  0  0  0
    1.9135  -10.3404    3.6266 C   0  0  0  0  0  0  0  0  0  0  0  0
    1.3291  -11.3908    3.0222 C   0  0  0  0  0  0  0  0  0  0  0  0
    1.0344  -11.3281    1.7959 C   0  0  0  0  0  0  0  0  0  0  0  0
    0.5050   -6.6553    1.7492 N   0  0  0  0  0  0  0  0  0  0  0  0
    0.4807  -12.4146    1.1790 C   0  0  0  0  0  0  0  0  0  0  0  0
    0.4501  -13.6498    1.7134 C   0  0  0  0  0  0  0  0  0  0  0  0
    0.8400  -13.7396    3.0565 C   0  0  0  0  0  0  0  0  0  0  0  0
    1.3665  -12.6443    3.7130 C   0  0  0  0  0  0  0  0  0  0  0  0
    0.3649   -7.5947    1.0376 C   0  0  2  0  0  0  0  0  0  0  0  0
    1.0315   -8.9392    1.3732 C   0  0  0  0  0  0  0  0  0  0  0  0
   -0.2075   -7.6448   -0.0792 C   0  0  0  0  0  0  0  0  0  0  0  0
    0.0831   -8.5358   -1.1652 C   0  0  0  0  0  0  0  0  0  0  0  0
    0.8341   -9.7119   -0.8699 N   0  0  0  0  0  0  0  0  0  0  0  0
   -0.4702   -8.4527   -2.2862 O   0  0  0  0  0  0  0  0  0  0  0  0
    0.8938  -15.0094    3.7962 O   0  0  0  0  0  0  0  0  0  0  0  0
    2.7334  -10.2240    4.5975 O   0  0  0  0  0  0  0  0  0  0  0  0
  1  2  1  0
  1  3  1  0
  3  4  1  1
  4  5  1  0
  2  7  1  0
  7 12  1  0
  3 13  1  0
 12 13  1  0
 12 14  1  6
 14 15  1  0
 15 16  1  0
 15 17  2  0
 10 18  1  0
  4 19  2  0
  5  6  2  0
  6  8  1  0
  8  9  2  0
  9 10  1  0
 10 11  2  0
  5 11  1  0
M  END

$$$$
No_200-/export/home/yangzhenyu/potential_scad_32_flow//YTHDC2/2024-12-06-03-22-00/
     RDKit          3D

 19 20  0  0  1  0  0  0  0  0999 V2000
    1.1787   -8.0297    3.5154 C   0  0  2  0  0  0  0  0  0  0  0  0
    1.0491   -6.8434    2.9820 C   0  0  0  0  0  0  0  0  0  0  0  0
    1.9985   -8.9840    2.8958 C   0  0  0  0  0  0  0  0  0  0  0  0
    1.9135  -10.3404    3.6266 C   0  0  0  0  0  0  0  0  0  0  0  0
    0.9460  -10.6347    4.5748 C   0  0  0  0  0  0  0  0  0  0  0  0
   -0.2056  -10.4178    4.1878 C   0  0  0  0  0  0  0  0  0  0  0  0
   -0.5153   -9.0971    3.4253 C   0  0  1  0  0  0  0  0  0  0  0  0
   -2.0949   -9.4230    3.5019 C   0  0  0  0  0  0  0  0  0  0  0  0
   -0.0670   -8.1226    3.3094 C   0  0  0  0  0  0  0  0  0  0  0  0
    0.0204   -6.2786    2.6843 C   0  0  0  0  0  0  0  0  0  0  0  0
   -0.1258   -4.9027    2.0449 Cl  0  0  0  0  0  0  0  0  0  0  0  0
   -0.9890   -7.0828    2.9481 N   0  0  0  0  0  0  0  0  0  0  0  0
   -2.8263   -8.7938    3.8954 O   0  0  0  0  0  0  0  0  0  0  0  0
   -2.4503  -10.0489    2.2981 I   0  0  0  0  0  0  0  0  0  0  0  0
    3.4489  -11.1181    3.7402 C   0  0  0  0  0  0  0  0  0  0  0  0
    3.3282  -11.9476    5.0497 Cl  0  0  0  0  0  0  0  0  0  0  0  0
    4.1762  -11.0300    2.9633 N   0  0  0  0  0  0  0  0  0  0  0  0
   -1.0990  -11.3839    4.5982 O   0  0  0  0  0  0  0  0  0  0  0  0
    5.0507  -11.5308    3.0310 H   0  0  0  0  0  0  0  0  0  0  0  0
  1  2  1  6
  1  3  1  0
  3  4  2  0
  4  5  1  0
  5  6  2  0
  6  7  1  0
  7  8  1  1
  1  9  1  0
  7  9  1  0
  2 10  2  0
 10 11  1  0
  9 12  1  0
 10 12  1  0
  8 13  2  0
  8 14  1  0
  4 15  1  0
 15 16  1  0
 15 17  2  0
  6 18  1  0
 17 19  1  0
M  END

$$$$
No_201-/export/home/yangzhenyu/potential_scad_32_flow//YTHDC2/2024-12-06-03-22-00/
     RDKit          3D

 20 21  0  0  1  0  0  0  0  0999 V2000
    1.1787   -8.0297    3.5154 C   0  0  0  0  0  0  0  0  0  0  0  0
    1.0491   -6.8434    2.9820 C   0  0  1  0  0  0  0  0  0  0  0  0
    0.0950   -8.8404    3.2292 C   0  0  0  0  0  0  0  0  0  0  0  0
   -0.9173   -8.4596    2.5152 C   0  0  0  0  0  0  0  0  0  0  0  0
   -1.0331   -7.2162    2.0653 Cl  0  0  0  0  0  0  0  0  0  0  0  0
    1.2236   -5.7704    3.9557 C   0  0  0  0  0  0  0  0  0  0  0  0
    0.3148  -10.3529    3.7070 C   0  0  0  0  0  0  0  0  0  0  0  0
   -0.7142  -11.1749    3.6328 C   0  0  0  0  0  0  0  0  0  0  0  0
   -1.8279  -10.7468    2.8538 C   0  0  0  0  0  0  0  0  0  0  0  0
   -1.9069   -9.4807    2.3587 C   0  0  0  0  0  0  0  0  0  0  0  0
    1.1234   -4.4033    3.2714 C   0  0  0  0  0  0  0  0  0  0  0  0
    1.3525   -4.3329    1.8638 C   0  0  0  0  0  0  0  0  0  0  0  0
    1.3685   -5.3869    1.0750 C   0  0  0  0  0  0  0  0  0  0  0  0
    1.3515   -6.6522    1.6404 C   0  0  0  0  0  0  0  0  0  0  0  0
    1.7696   -7.6205    0.8448 O   0  0  0  0  0  0  0  0  0  0  0  0
   -2.8823  -11.6244    2.6753 C   0  0  0  0  0  0  0  0  0  0  0  0
   -4.0589  -11.4165    3.1887 N   0  0  0  0  0  0  0  0  0  0  0  0
   -5.0222  -12.2969    3.0932 C   0  0  0  0  0  0  0  0  0  0  0  0
   -4.7050  -13.4369    2.4920 C   0  0  0  0  0  0  0  0  0  0  0  0
   -3.5611  -13.8009    2.0651 C   0  0  0  0  0  0  0  0  0  0  0  0
  2  1  1  1
  4  5  1  0
  2  6  1  0
 11 12  1  0
  2 14  1  0
 13 14  1  0
 14 15  2  0
  9 16  1  0
 16 17  1  0
 17 18  2  3
 18 19  1  0
 19 20  2  0
  1  3  1  0
  6 11  1  0
 12 13  1  0
  3  4  2  0
  4 10  1  0
  9 10  2  0
  8  9  1  0
  7  8  2  0
  3  7  1  0
M  END

$$$$
No_202-/export/home/yangzhenyu/potential_scad_32_flow//YTHDC2/2024-12-06-03-22-00/
     RDKit          3D

 18 19  0  0  1  0  0  0  0  0999 V2000
    1.1787   -8.0297    3.5154 O   0  0  0  0  0  0  0  0  0  0  0  0
    0.6747   -7.4019    2.7838 C   0  0  0  0  0  0  0  0  0  0  0  0
    0.7594   -8.0032    1.4295 C   0  0  1  0  0  0  0  0  0  0  0  0
    0.3459   -9.1500    1.3581 C   0  0  0  0  0  0  0  0  0  0  0  0
    1.1876  -10.0065    2.0240 C   0  0  1  0  0  0  0  0  0  0  0  0
    1.2267   -9.5257    3.5507 C   0  0  1  0  0  0  0  0  0  0  0  0
    1.9919  -10.3918    4.3814 C   0  0  0  0  0  0  0  0  0  0  0  0
    3.2304  -10.3160    4.5861 O   0  0  0  0  0  0  0  0  0  0  0  0
    1.3745  -11.5857    4.5560 O   0  0  0  0  0  0  0  0  0  0  0  0
    0.8678   -7.0280    0.4886 C   0  0  0  0  0  0  0  0  0  0  0  0
    1.0655   -7.4948   -0.5688 O   0  0  0  0  0  0  0  0  0  0  0  0
    1.1978   -5.7680    0.7337 O   0  0  0  0  0  0  0  0  0  0  0  0
    1.0467  -11.3461    1.9415 C   0  0  0  0  0  0  0  0  0  0  0  0
    0.8775  -11.7530    0.6964 C   0  0  0  0  0  0  0  0  0  0  0  0
   -0.0700  -12.4869    0.3823 C   0  0  0  0  0  0  0  0  0  0  0  0
   -0.5674  -13.3724    1.3227 C   0  0  0  0  0  0  0  0  0  0  0  0
    0.0149  -13.2609    2.6368 C   0  0  0  0  0  0  0  0  0  0  0  0
    0.8973  -12.3019    2.8719 C   0  0  0  0  0  0  0  0  0  0  0  0
  1  2  1  0
  2  3  1  0
  3  4  1  0
  4  5  1  0
  1  6  1  0
  5  6  1  0
  6  7  1  6
  7  8  1  0
  7  9  2  0
  3 10  1  6
 10 11  2  0
 10 12  1  0
  5 13  1  1
 13 14  2  0
 14 15  1  0
 15 16  2  0
 16 17  1  0
 17 18  2  0
 13 18  1  0
M  END

$$$$
No_203-/export/home/yangzhenyu/potential_scad_32_flow//YTHDC2/2024-12-06-03-22-00/
     RDKit          3D

 19 19  0  0  1  0  0  0  0  0999 V2000
    1.1787   -8.0297    3.5154 C   0  0  0  0  0  0  0  0  0  0  0  0
    1.1048   -9.2215    3.2892 C   0  0  0  0  0  0  0  0  0  0  0  0
    1.3627  -10.1721    4.3044 C   0  0  0  0  0  0  0  0  0  0  0  0
    1.7354  -11.4730    3.9023 C   0  0  0  0  0  0  0  0  0  0  0  0
    1.8080  -11.8127    2.7216 C   0  0  0  0  0  0  0  0  0  0  0  0
    1.5854  -11.0021    1.7249 C   0  0  0  0  0  0  0  0  0  0  0  0
    1.3573   -9.7389    1.9287 C   0  0  0  0  0  0  0  0  0  0  0  0
    1.1102   -8.8712    0.9017 C   0  0  1  0  0  0  0  0  0  0  0  0
    1.5724   -9.1697   -0.3048 C   0  0  0  0  0  0  0  0  0  0  0  0
    0.9145   -9.0379   -1.4184 O   0  0  0  0  0  0  0  0  0  0  0  0
    2.9200   -9.2910   -0.5558 O   0  0  0  0  0  0  0  0  0  0  0  0
    2.1103  -13.4546    2.3653 C   0  0  0  0  0  0  0  0  0  0  0  0
    1.0424  -14.1565    1.8755 O   0  0  0  0  0  0  0  0  0  0  0  0
    3.1872  -13.9163    2.3962 O   0  0  0  0  0  0  0  0  0  0  0  0
    2.2959   -7.1770    3.5983 O   0  0  0  0  0  0  0  0  0  0  0  0
   -0.0062   -7.4253    3.6213 N   0  0  0  0  0  0  0  0  0  0  0  0
    0.3770   -7.7819    0.9773 C   0  0  0  0  0  0  0  0  0  0  0  0
   -1.0064   -7.7875    1.0124 C   0  0  0  0  0  0  0  0  0  0  0  0
   -1.6715   -8.9468    1.1877 O   0  0  0  0  0  0  0  0  0  0  0  0
  1  2  1  0
  7  8  1  0
  8  9  1  0
  9 10  2  0
  9 11  1  0
  5 12  1  0
 12 13  2  0
 12 14  1  0
  1 15  2  0
  1 16  1  0
  8 17  1  6
 17 18  1  0
 18 19  1  0
  2  3  2  0
  3  4  1  0
  4  5  2  0
  5  6  1  0
  6  7  2  0
  2  7  1  0
M  END

$$$$
No_204-/export/home/yangzhenyu/potential_scad_32_flow//YTHDC2/2024-12-06-03-22-00/
     RDKit          3D

 17 17  0  0  1  0  0  0  0  0999 V2000
    1.1787   -8.0297    3.5154 C   0  0  0  0  0  0  0  0  0  0  0  0
    1.0491   -6.8434    2.9820 C   0  0  0  0  0  0  0  0  0  0  0  0
    1.9985   -8.9840    2.8958 C   0  0  2  0  0  0  0  0  0  0  0  0
    1.7297   -9.2108    1.6335 C   0  0  0  0  0  0  0  0  0  0  0  0
    1.5234   -8.1478    0.8618 C   0  0  2  0  0  0  0  0  0  0  0  0
    1.0558   -6.9632    1.4912 C   0  0  0  0  0  0  0  0  0  0  0  0
    1.5116   -8.1570   -0.4606 C   0  0  0  0  0  0  0  0  0  0  0  0
    2.2627   -9.0283   -1.1253 O   0  0  0  0  0  0  0  0  0  0  0  0
    0.5075   -7.9503   -1.2191 O   0  0  0  0  0  0  0  0  0  0  0  0
    2.1015  -10.3471    3.6383 C   0  0  0  0  0  0  0  0  0  0  0  0
    3.0930  -10.3797    4.4230 N   0  0  0  0  0  0  0  0  0  0  0  0
    1.7817  -11.5075    3.0472 O   0  0  0  0  0  0  0  0  0  0  0  0
    3.4995  -11.5941    5.1775 N   0  0  0  0  0  0  0  0  0  0  0  0
    0.5477   -5.7743    3.4822 O   0  0  0  0  0  0  0  0  0  0  0  0
    0.8150   -5.7589    0.9066 O   0  0  0  0  0  0  0  0  0  0  0  0
    4.8880  -11.2970    5.4251 C   0  0  0  0  0  0  0  0  0  0  0  0
    5.4915  -10.1740    5.1966 O   0  0  0  0  0  0  0  0  0  0  0  0
  1  2  1  0
  1  3  1  0
  4  5  1  0
  2  6  1  0
  5  6  1  0
  5  7  1  6
  7  8  1  0
  7  9  2  0
  3 10  1  1
 10 11  1  0
 10 12  2  0
 11 13  1  0
  2 14  2  0
  6 15  2  0
 13 16  1  0
 16 17  2  0
  3  4  1  0
M  END

$$$$
No_205-/export/home/yangzhenyu/potential_scad_32_flow//YTHDC2/2024-12-06-03-22-00/
     RDKit          3D

 18 18  0  0  0  0  0  0  0  0999 V2000
    1.1787   -8.0297    3.5154 C   0  0  0  0  0  0  0  0  0  0  0  0
    1.1048   -9.2215    3.2892 C   0  0  0  0  0  0  0  0  0  0  0  0
    1.4683  -10.2314    4.1915 C   0  0  0  0  0  0  0  0  0  0  0  0
    0.8445   -6.9865    2.5175 C   0  0  0  0  0  0  0  0  0  0  0  0
    0.3587   -7.3973    1.3953 C   0  0  0  0  0  0  0  0  0  0  0  0
    0.1901   -8.6971    1.0711 C   0  0  0  0  0  0  0  0  0  0  0  0
    0.5759   -9.6647    1.9442 C   0  0  0  0  0  0  0  0  0  0  0  0
    2.7055  -10.5235    4.4262 C   0  0  0  0  0  0  0  0  0  0  0  0
   -0.3172   -9.1228   -0.1102 C   0  0  0  0  0  0  0  0  0  0  0  0
   -1.1869  -10.2217   -0.1351 O   0  0  0  0  0  0  0  0  0  0  0  0
    0.0142   -8.5517   -1.2567 O   0  0  0  0  0  0  0  0  0  0  0  0
    0.5787  -10.9523    1.7576 O   0  0  0  0  0  0  0  0  0  0  0  0
    3.1330  -11.1936    5.4476 O   0  0  0  0  0  0  0  0  0  0  0  0
    3.6302  -10.5156    3.5632 O   0  0  0  0  0  0  0  0  0  0  0  0
    1.0764   -5.3314    2.8855 Cl  0  0  0  0  0  0  0  0  0  0  0  0
    0.5702  -10.7648    5.0158 C   0  0  0  0  0  0  0  0  0  0  0  0
    0.4717  -12.0769    5.0423 O   0  0  0  0  0  0  0  0  0  0  0  0
   -0.7271  -10.1576    5.1005 O   0  0  0  0  0  0  0  0  0  0  0  0
  2  3  1  0
  1  4  1  0
  5  6  1  0
  2  7  1  0
  6  7  1  0
  3  8  1  0
  6  9  1  0
  9 10  1  0
  9 11  2  0
  7 12  2  0
  8 13  1  0
  8 14  2  0
  4 15  1  0
  3 16  1  0
 16 17  2  0
 16 18  1  0
  1  2  1  0
  4  5  1  0
M  END

$$$$
No_206-/export/home/yangzhenyu/potential_scad_32_flow//YTHDC2/2024-12-06-03-22-00/
     RDKit          3D

 13 13  0  0  0  0  0  0  0  0999 V2000
    1.1787   -8.0297    3.5154 C   0  0  0  0  0  0  0  0  0  0  0  0
    1.0491   -6.8434    2.9820 Cl  0  0  0  0  0  0  0  0  0  0  0  0
    2.1643   -8.9961    3.0118 C   0  0  0  0  0  0  0  0  0  0  0  0
    2.0542  -10.3454    3.7325 C   0  0  0  0  0  0  0  0  0  0  0  0
    1.0539  -10.6340    4.5979 C   0  0  0  0  0  0  0  0  0  0  0  0
   -0.0044   -9.7649    4.6652 C   0  0  0  0  0  0  0  0  0  0  0  0
   -0.0119   -8.5383    4.1066 C   0  0  0  0  0  0  0  0  0  0  0  0
   -0.9915   -7.7180    4.4309 F   0  0  0  0  0  0  0  0  0  0  0  0
    3.1799  -11.1683    3.5689 N   0  0  0  0  0  0  0  0  0  0  0  0
    3.4849  -12.0230    4.5711 N   0  0  0  0  0  0  0  0  0  0  0  0
    4.4812  -11.7034    5.2124 N   0  0  0  0  0  0  0  0  0  0  0  0
    4.8332  -10.3257    5.3752 O   0  0  0  0  0  0  0  0  0  0  0  0
   -1.1265  -10.2783    5.2808 Cl  0  0  0  0  0  0  0  0  0  0  0  0
  1  2  1  0
  7  8  1  0
  4  9  1  0
  9 10  2  3
 10 11  1  0
 11 12  2  0
  6 13  1  0
  1  3  2  0
  3  4  1  0
  4  5  2  0
  5  6  1  0
  6  7  2  0
  1  7  1  0
M  END

$$$$
No_207-/export/home/yangzhenyu/potential_scad_32_flow//YTHDC2/2024-12-06-03-22-00/
     RDKit          3D

 18 19  0  0  0  0  0  0  0  0999 V2000
    1.1787   -8.0297    3.5154 C   0  0  0  0  0  0  0  0  0  0  0  0
    1.0491   -6.8434    2.9820 C   0  0  0  0  0  0  0  0  0  0  0  0
    0.0950   -8.8404    3.2292 C   0  0  0  0  0  0  0  0  0  0  0  0
   -0.9173   -8.4596    2.5152 C   0  0  0  0  0  0  0  0  0  0  0  0
   -1.0331   -7.2162    2.0653 C   0  0  0  0  0  0  0  0  0  0  0  0
   -0.0105   -6.3168    2.3081 C   0  0  0  0  0  0  0  0  0  0  0  0
    0.0485   -4.9783    1.8782 C   0  0  0  0  0  0  0  0  0  0  0  0
   -0.4744   -4.1559    2.2381 C   0  0  0  0  0  0  0  0  0  0  0  0
   -0.3956   -2.6830    1.7790 C   0  0  0  0  0  0  0  0  0  0  0  0
    0.2012  -10.4491    3.7547 Br  0  0  0  0  0  0  0  0  0  0  0  0
    0.3728   -2.6967    0.5322 C   0  0  0  0  0  0  0  0  0  0  0  0
    0.9067   -3.6503   -0.0519 C   0  0  0  0  0  0  0  0  0  0  0  0
    0.8396   -4.8800    0.5833 C   0  0  0  0  0  0  0  0  0  0  0  0
    0.4042   -1.2790   -0.2046 C   0  0  0  0  0  0  0  0  0  0  0  0
    0.3357   -0.2101    0.3469 C   0  0  0  0  0  0  0  0  0  0  0  0
    0.5743   -0.1027    1.8580 C   0  0  0  0  0  0  0  0  0  0  0  0
    0.3902    1.0724   -0.4394 C   0  0  0  0  0  0  0  0  0  0  0  0
   -0.5849    1.5606   -0.8372 C   0  0  0  0  0  0  0  0  0  0  0  0
  6  7  1  0
  3 10  1  0
 11 14  1  0
 14 15  2  3
 15 16  1  0
 15 17  1  0
 17 18  2  0
  7  8  2  0
  8  9  1  0
  9 11  2  0
 11 12  1  0
 12 13  2  0
  7 13  1  0
  1  2  2  0
  2  6  1  0
  5  6  2  0
  4  5  1  0
  3  4  2  0
  1  3  1  0
M  END

$$$$
No_208-/export/home/yangzhenyu/potential_scad_32_flow//YTHDC2/2024-12-06-03-22-00/
     RDKit          3D

 18 18  0  0  1  0  0  0  0  0999 V2000
    1.1787   -8.0297    3.5154 C   0  0  0  0  0  0  0  0  0  0  0  0
    1.1048   -9.2215    3.2892 C   0  0  0  0  0  0  0  0  0  0  0  0
    1.2339   -9.7611    2.0189 C   0  0  0  0  0  0  0  0  0  0  0  0
    1.3583   -9.0036    0.9764 C   0  0  0  0  0  0  0  0  0  0  0  0
    1.5996   -7.6362    1.1311 C   0  0  0  0  0  0  0  0  0  0  0  0
    1.4830   -7.0928    2.3626 C   0  0  0  0  0  0  0  0  0  0  0  0
    1.5395   -5.7300    2.6182 C   0  0  0  0  0  0  0  0  0  0  0  0
    1.1775  -11.2233    1.8407 C   0  0  0  0  0  0  0  0  0  0  0  0
    0.7252  -11.5870    0.5412 O   0  0  0  0  0  0  0  0  0  0  0  0
    2.0095  -12.0297    2.4291 N   0  0  0  0  0  0  0  0  0  0  0  0
    1.9179  -13.3987    2.2402 C   0  0  2  0  0  0  0  0  0  0  0  0
    1.0518  -14.0696    3.2680 C   0  0  0  0  0  0  0  0  0  0  0  0
    0.9208  -15.4530    3.0842 O   0  0  0  0  0  0  0  0  0  0  0  0
    0.8373  -13.5976    4.2918 O   0  0  0  0  0  0  0  0  0  0  0  0
    1.2712   -4.7974    1.7128 O   0  0  0  0  0  0  0  0  0  0  0  0
    1.8197   -5.1753    3.8346 O   0  0  0  0  0  0  0  0  0  0  0  0
    3.2910  -13.9647    1.8596 C   0  0  0  0  0  0  0  0  0  0  0  0
    2.9812  -15.1403    0.9653 O   0  0  0  0  0  0  0  0  0  0  0  0
  6  7  1  0
  3  8  1  0
  8  9  2  0
  8 10  1  0
 11 10  1  1
 11 12  1  0
 12 13  2  0
 12 14  1  0
  7 15  2  0
  7 16  1  0
 11 17  1  0
 17 18  2  0
  1  2  2  0
  2  3  1  0
  3  4  2  0
  4  5  1  0
  5  6  2  0
  1  6  1  0
M  END

$$$$
No_209-/export/home/yangzhenyu/potential_scad_32_flow//YTHDC2/2024-12-06-03-22-00/
     RDKit          3D

 18 19  0  0  1  0  0  0  0  0999 V2000
    1.1787   -8.0297    3.5154 C   0  0  0  0  0  0  0  0  0  0  0  0
    1.1048   -9.2215    3.2892 C   0  0  0  0  0  0  0  0  0  0  0  0
    1.2339   -9.7611    2.0189 C   0  0  0  0  0  0  0  0  0  0  0  0
    1.1954  -11.2312    1.8661 C   0  0  2  0  0  0  0  0  0  0  0  0
    1.2996  -11.5815    0.5387 C   0  0  0  0  0  0  0  0  0  0  0  0
    1.3263   -7.1208    2.3229 C   0  0  0  0  0  0  0  0  0  0  0  0
    1.3693   -7.6408    1.0625 C   0  0  0  0  0  0  0  0  0  0  0  0
    1.4358   -8.9950    0.8622 C   0  0  0  0  0  0  0  0  0  0  0  0
    1.6034  -10.8414   -0.4738 C   0  0  0  0  0  0  0  0  0  0  0  0
    1.5954   -9.4621   -0.3677 C   0  0  0  0  0  0  0  0  0  0  0  0
    1.7474   -8.6617   -1.3337 O   0  0  0  0  0  0  0  0  0  0  0  0
    1.3238   -5.6170    2.5672 C   0  0  0  0  0  0  0  0  0  0  0  0
    0.8582  -11.9913    2.8933 C   0  0  0  0  0  0  0  0  0  0  0  0
    1.1544  -13.4830    2.8209 C   0  0  0  0  0  0  0  0  0  0  0  0
    2.4140  -13.9008    3.2008 O   0  0  0  0  0  0  0  0  0  0  0  0
    0.2278  -14.3303    2.6119 O   0  0  0  0  0  0  0  0  0  0  0  0
    0.9884   -4.8345    1.5892 O   0  0  0  0  0  0  0  0  0  0  0  0
    2.0140   -5.0413    3.5907 O   0  0  0  0  0  0  0  0  0  0  0  0
  3  4  1  0
  4  5  1  0
  8 10  1  0
  9 10  1  0
 10 11  2  0
  6 12  1  0
  4 13  1  6
 13 14  1  0
 14 15  1  0
 14 16  2  0
 12 17  2  0
 12 18  1  0
  5  9  1  0
  1  2  2  0
  2  3  1  0
  3  8  2  0
  7  8  1  0
  6  7  2  0
  1  6  1  0
M  END

$$$$
No_210-/export/home/yangzhenyu/potential_scad_32_flow//YTHDC2/2024-12-06-03-22-00/
     RDKit          3D

 19 20  0  0  1  0  0  0  0  0999 V2000
    1.1787   -8.0297    3.5154 O   0  0  0  0  0  0  0  0  0  0  0  0
    0.6747   -7.4019    2.7838 C   0  0  0  0  0  0  0  0  0  0  0  0
    0.7594   -8.0032    1.4295 C   0  0  2  0  0  0  0  0  0  0  0  0
    1.4743   -7.4398    0.6034 C   0  0  0  0  0  0  0  0  0  0  0  0
    1.8433   -8.4150   -0.4648 C   0  0  2  0  0  0  0  0  0  0  0  0
    2.6455   -8.2661   -1.3687 C   0  0  0  0  0  0  0  0  0  0  0  0
    3.2004   -9.3945   -1.9449 O   0  0  0  0  0  0  0  0  0  0  0  0
    0.3125   -6.2486    2.9881 O   0  0  0  0  0  0  0  0  0  0  0  0
    1.0589   -9.5370   -0.5067 C   0  0  0  0  0  0  0  0  0  0  0  0
   -0.0060   -9.7127    0.2860 N   0  0  0  0  0  0  0  0  0  0  0  0
   -0.3644   -8.8595    1.0294 C   0  0  0  0  0  0  0  0  0  0  0  0
   -0.9191  -10.9508    0.0737 C   0  0  0  0  0  0  0  0  0  0  0  0
   -1.5513   -8.5693    1.5115 O   0  0  0  0  0  0  0  0  0  0  0  0
    3.6485   -7.4176   -1.4356 O   0  0  0  0  0  0  0  0  0  0  0  0
   -0.5152  -11.9938    0.9213 C   0  0  0  0  0  0  0  0  0  0  0  0
   -1.2662  -13.0220    0.9866 C   0  0  0  0  0  0  0  0  0  0  0  0
   -2.3246  -13.0938    0.1505 C   0  0  0  0  0  0  0  0  0  0  0  0
   -2.6310  -12.2400   -0.7323 C   0  0  0  0  0  0  0  0  0  0  0  0
   -1.8016  -11.0772   -0.7626 C   0  0  0  0  0  0  0  0  0  0  0  0
  1  2  1  0
  3  2  1  1
  3  4  1  0
  4  5  1  0
  5  6  1  6
  6  7  1  0
  2  8  2  0
  5  9  1  0
  9 10  1  0
  3 11  1  0
 10 11  1  0
 10 12  1  0
 11 13  2  0
  6 14  2  0
 12 15  2  0
 15 16  1  0
 16 17  2  0
 17 18  1  0
 18 19  2  0
 12 19  1  0
M  END

$$$$
No_211-/export/home/yangzhenyu/potential_scad_32_flow//YTHDC2/2024-12-06-03-22-00/
     RDKit          3D

 19 19  0  0  0  0  0  0  0  0999 V2000
    1.1787   -8.0297    3.5154 O   0  0  0  0  0  0  0  0  0  0  0  0
    0.9969   -8.9689    3.0048 C   0  0  0  0  0  0  0  0  0  0  0  0
    1.3055  -10.1056    3.6616 C   0  0  0  0  0  0  0  0  0  0  0  0
    1.1249  -11.3503    3.0941 C   0  0  0  0  0  0  0  0  0  0  0  0
    0.6932  -11.4484    1.8586 C   0  0  0  0  0  0  0  0  0  0  0  0
    0.5498  -10.3736    1.0579 C   0  0  0  0  0  0  0  0  0  0  0  0
    0.7643   -9.1185    1.6383 N   0  0  0  0  0  0  0  0  0  0  0  0
    1.2601  -12.6477    3.7790 C   0  0  0  0  0  0  0  0  0  0  0  0
    2.1909  -13.3255    3.5986 C   0  0  0  0  0  0  0  0  0  0  0  0
    1.8119  -14.4540    2.5225 C   0  0  0  0  0  0  0  0  0  0  0  0
    0.9827  -15.4225    3.0006 O   0  0  0  0  0  0  0  0  0  0  0  0
    2.4686  -14.6798    1.5297 O   0  0  0  0  0  0  0  0  0  0  0  0
    0.1993  -10.3203   -0.2950 C   0  0  0  0  0  0  0  0  0  0  0  0
   -0.9721   -9.6290   -0.6396 C   0  0  0  0  0  0  0  0  0  0  0  0
   -0.8994   -8.6672   -1.5484 C   0  0  0  0  0  0  0  0  0  0  0  0
    0.1234   -8.2991   -2.1644 O   0  0  0  0  0  0  0  0  0  0  0  0
   -2.0548   -8.1228   -2.0458 O   0  0  0  0  0  0  0  0  0  0  0  0
    1.1043   -6.7009    2.8521 C   0  0  0  0  0  0  0  0  0  0  0  0
    1.1617   -5.5163    3.3943 C   0  0  0  0  0  0  0  0  0  0  0  0
  1  2  1  0
  4  8  1  0
  8  9  1  0
  9 10  1  0
 10 11  1  0
 10 12  2  0
  6 13  1  0
 13 14  1  0
 14 15  1  0
 15 16  2  0
 15 17  1  0
  1 18  1  0
 18 19  1  0
  2  3  2  0
  3  4  1  0
  4  5  2  0
  5  6  1  0
  6  7  2  0
  2  7  1  0
M  END

$$$$
No_212-/export/home/yangzhenyu/potential_scad_32_flow//YTHDC2/2024-12-06-03-22-00/
     RDKit          3D

 18 18  0  0  1  0  0  0  0  0999 V2000
    1.1787   -8.0297    3.5154 Cl  0  0  0  0  0  0  0  0  0  0  0  0
    0.7279   -9.0023    2.8722 C   0  0  0  0  0  0  0  0  0  0  0  0
    1.3852  -10.2194    3.0621 C   0  0  1  0  0  0  0  0  0  0  0  0
    1.9070  -10.5856    4.2215 C   0  0  0  0  0  0  0  0  0  0  0  0
    2.1875  -11.9005    4.4959 C   0  0  0  0  0  0  0  0  0  0  0  0
    1.1430  -11.2831    2.0974 C   0  0  1  0  0  0  0  0  0  0  0  0
    0.7513  -10.9460    0.8386 C   0  0  0  0  0  0  0  0  0  0  0  0
   -0.0854  -11.7944    0.3291 O   0  0  0  0  0  0  0  0  0  0  0  0
    1.7088  -12.5129    3.0759 C   0  0  0  0  0  0  0  0  0  0  0  0
    1.7209  -13.6284    2.6119 C   0  0  0  0  0  0  0  0  0  0  0  0
    2.5655  -14.1373    1.6644 O   0  0  0  0  0  0  0  0  0  0  0  0
    0.9498  -14.6040    3.1944 O   0  0  0  0  0  0  0  0  0  0  0  0
    1.4270  -10.1119    0.1947 O   0  0  0  0  0  0  0  0  0  0  0  0
   -0.1361   -8.7718    1.9170 O   0  0  0  0  0  0  0  0  0  0  0  0
    0.7509  -15.8670    2.7783 C   0  0  0  0  0  0  0  0  0  0  0  0
   -0.2328  -16.0103    1.8937 C   0  0  0  0  0  0  0  0  0  0  0  0
    0.1075  -16.5490    0.7679 C   0  0  0  0  0  0  0  0  0  0  0  0
    1.0536  -17.4439    0.7434 O   0  0  0  0  0  0  0  0  0  0  0  0
  1  2  1  0
  3  2  1  1
  3  4  1  0
  4  5  2  0
  3  6  1  0
  6  7  1  6
  7  8  1  0
  5  9  1  0
  6  9  1  0
  9 10  1  0
 10 11  2  0
 10 12  1  0
  7 13  2  0
  2 14  2  0
 12 15  1  0
 15 16  1  0
 16 17  1  0
 17 18  2  0
M  END

$$$$
No_213-/export/home/yangzhenyu/potential_scad_32_flow//YTHDC2/2024-12-06-03-22-00/
     RDKit          3D

 18 18  0  0  0  0  0  0  0  0999 V2000
    1.1787   -8.0297    3.5154 C   0  0  0  0  0  0  0  0  0  0  0  0
    1.1048   -9.2215    3.2892 C   0  0  0  0  0  0  0  0  0  0  0  0
    1.3627  -10.1721    4.3044 C   0  0  0  0  0  0  0  0  0  0  0  0
    1.7354  -11.4730    3.9023 C   0  0  0  0  0  0  0  0  0  0  0  0
    1.8080  -11.8127    2.7216 C   0  0  0  0  0  0  0  0  0  0  0  0
    1.5854  -11.0021    1.7249 C   0  0  0  0  0  0  0  0  0  0  0  0
    1.3573   -9.7389    1.9287 C   0  0  0  0  0  0  0  0  0  0  0  0
    1.1102   -8.8712    0.9017 C   0  0  0  0  0  0  0  0  0  0  0  0
    1.5724   -9.1697   -0.3048 C   0  0  0  0  0  0  0  0  0  0  0  0
    1.2378   -8.2159   -1.4226 O   0  0  0  0  0  0  0  0  0  0  0  0
    2.0610  -13.2069    2.3284 C   0  0  0  0  0  0  0  0  0  0  0  0
    1.9011  -14.2479    3.1770 O   0  0  0  0  0  0  0  0  0  0  0  0
    2.4416  -13.5042    1.0763 O   0  0  0  0  0  0  0  0  0  0  0  0
    2.2853   -7.2062    3.5781 O   0  0  0  0  0  0  0  0  0  0  0  0
   -0.0306   -7.3799    3.3164 O   0  0  0  0  0  0  0  0  0  0  0  0
    2.3859  -10.0617   -0.6516 O   0  0  0  0  0  0  0  0  0  0  0  0
    1.5082  -15.4436    2.6739 C   0  0  0  0  0  0  0  0  0  0  0  0
    0.1501  -15.7228    2.7549 C   0  0  0  0  0  0  0  0  0  0  0  0
  1  2  1  0
  7  8  1  0
  8  9  2  3
  9 10  1  0
  5 11  1  0
 11 12  1  0
 11 13  2  0
  1 14  2  0
  1 15  1  0
  9 16  1  0
 12 17  1  0
 17 18  1  0
  2  3  2  0
  3  4  1  0
  4  5  2  0
  5  6  1  0
  6  7  2  0
  2  7  1  0
M  END

$$$$
No_214-/export/home/yangzhenyu/potential_scad_32_flow//YTHDC2/2024-12-06-03-22-00/
     RDKit          3D

 19 20  0  0  1  0  0  0  0  0999 V2000
    1.1787   -8.0297    3.5154 O   0  0  0  0  0  0  0  0  0  0  0  0
    0.9969   -8.9689    3.0048 C   0  0  1  0  0  0  0  0  0  0  0  0
    0.9976   -8.9567    1.6341 C   0  0  0  0  0  0  0  0  0  0  0  0
    0.7663   -7.7728    1.0082 C   0  0  1  0  0  0  0  0  0  0  0  0
    1.1468   -6.5619    1.6541 C   0  0  0  0  0  0  0  0  0  0  0  0
    1.3592   -6.6155    3.0007 C   0  0  0  0  0  0  0  0  0  0  0  0
    0.9781  -10.1276    3.6866 C   0  0  0  0  0  0  0  0  0  0  0  0
    1.9856  -10.9664    3.7361 C   0  0  0  0  0  0  0  0  0  0  0  0
    0.8263   -7.8148   -0.3756 C   0  0  0  0  0  0  0  0  0  0  0  0
   -0.4539   -7.7594   -0.9613 O   0  0  0  0  0  0  0  0  0  0  0  0
    1.6980   -8.3383   -1.1494 O   0  0  0  0  0  0  0  0  0  0  0  0
    1.8123  -12.3028    3.6182 C   0  0  0  0  0  0  0  0  0  0  0  0
    0.5214  -12.8063    3.7298 C   0  0  0  0  0  0  0  0  0  0  0  0
   -0.5338  -11.9976    3.5789 C   0  0  0  0  0  0  0  0  0  0  0  0
   -0.3549  -10.6348    3.6512 C   0  0  0  0  0  0  0  0  0  0  0  0
    0.5009  -14.1856    3.6231 Cl  0  0  0  0  0  0  0  0  0  0  0  0
    1.6555   -5.6014    3.7084 O   0  0  0  0  0  0  0  0  0  0  0  0
    0.9612  -10.1367    0.9536 O   0  0  0  0  0  0  0  0  0  0  0  0
   -1.4864   -9.9037    3.5755 C   0  0  0  0  0  0  0  0  0  0  0  0
  1  2  1  0
  2  3  1  0
  3  4  1  0
  4  5  1  0
  1  6  1  0
  5  6  1  0
  2  7  1  6
  4  9  1  6
  9 10  2  0
  9 11  1  0
 13 16  1  0
  6 17  2  0
  3 18  2  0
 15 19  1  0
  7  8  2  0
  8 12  1  0
 12 13  2  0
 13 14  1  0
 14 15  2  0
  7 15  1  0
M  END

$$$$
No_215-/export/home/yangzhenyu/potential_scad_32_flow//YTHDC2/2024-12-06-03-22-00/
     RDKit          3D

 18 18  0  0  0  0  0  0  0  0999 V2000
    1.1787   -8.0297    3.5154 C   0  0  0  0  0  0  0  0  0  0  0  0
    1.0491   -6.8434    2.9820 C   0  0  0  0  0  0  0  0  0  0  0  0
    0.0950   -8.8404    3.2292 C   0  0  0  0  0  0  0  0  0  0  0  0
   -0.9173   -8.4596    2.5152 C   0  0  0  0  0  0  0  0  0  0  0  0
   -1.0331   -7.2162    2.0653 C   0  0  0  0  0  0  0  0  0  0  0  0
   -0.0105   -6.3168    2.3081 C   0  0  0  0  0  0  0  0  0  0  0  0
    0.1935  -10.3737    3.7416 C   0  0  0  0  0  0  0  0  0  0  0  0
   -0.9968  -11.0614    3.6410 O   0  0  0  0  0  0  0  0  0  0  0  0
    1.0685  -10.7657    4.6848 N   0  0  0  0  0  0  0  0  0  0  0  0
    0.0778   -4.9698    1.8035 Cl  0  0  0  0  0  0  0  0  0  0  0  0
    2.4089  -10.5668    4.3789 C   0  0  0  0  0  0  0  0  0  0  0  0
    3.1045  -11.8811    4.5611 C   0  0  0  0  0  0  0  0  0  0  0  0
    2.3879  -12.6842    3.7044 O   0  0  0  0  0  0  0  0  0  0  0  0
    2.0428  -12.5235    2.4885 C   0  0  0  0  0  0  0  0  0  0  0  0
    1.4678  -13.4839    1.6922 C   0  0  0  0  0  0  0  0  0  0  0  0
    1.1094  -13.1297    0.4335 O   0  0  0  0  0  0  0  0  0  0  0  0
    1.2474  -14.5806    2.1255 O   0  0  0  0  0  0  0  0  0  0  0  0
    2.4142  -11.3208    1.9729 O   0  0  0  0  0  0  0  0  0  0  0  0
  3  7  1  0
  7  8  2  0
  7  9  1  0
  6 10  1  0
  9 11  1  0
 11 12  1  0
 12 13  1  0
 13 14  1  0
 14 15  1  0
 15 16  1  0
 15 17  2  0
 14 18  2  0
  1  2  2  0
  2  6  1  0
  5  6  2  0
  4  5  1  0
  3  4  2  0
  1  3  1  0
M  END

$$$$
No_216-/export/home/yangzhenyu/potential_scad_32_flow//YTHDC2/2024-12-06-03-22-00/
     RDKit          3D

 19 20  0  0  1  0  0  0  0  0999 V2000
    1.1787   -8.0297    3.5154 C   0  0  0  0  0  0  0  0  0  0  0  0
    1.0491   -6.8434    2.9820 C   0  0  0  0  0  0  0  0  0  0  0  0
    1.0690   -9.1150    2.7206 C   0  0  1  0  0  0  0  0  0  0  0  0
    0.9689   -6.6391    1.6260 C   0  0  0  0  0  0  0  0  0  0  0  0
    0.9670   -9.0334    1.3824 C   0  0  0  0  0  0  0  0  0  0  0  0
    0.8189   -7.7113    0.8022 C   0  0  1  0  0  0  0  0  0  0  0  0
    1.2122  -10.5176    3.2445 C   0  0  0  0  0  0  0  0  0  0  0  0
    0.3325  -11.3891    3.1392 C   0  0  0  0  0  0  0  0  0  0  0  0
    0.7419  -12.7847    3.3395 C   0  0  0  0  0  0  0  0  0  0  0  0
    0.1395  -13.8703    2.6893 C   0  0  0  0  0  0  0  0  0  0  0  0
   -0.8731  -13.6490    1.9775 C   0  0  0  0  0  0  0  0  0  0  0  0
   -1.3610  -12.3910    1.7244 C   0  0  0  0  0  0  0  0  0  0  0  0
   -0.7068  -11.2547    2.2614 C   0  0  0  0  0  0  0  0  0  0  0  0
    2.3248  -10.6298    4.0952 O   0  0  0  0  0  0  0  0  0  0  0  0
    0.8312   -5.3802    1.0330 O   0  0  0  0  0  0  0  0  0  0  0  0
    0.6454  -15.1314    3.0246 O   0  0  0  0  0  0  0  0  0  0  0  0
    0.2834   -7.6201   -0.3287 C   0  0  0  0  0  0  0  0  0  0  0  0
   -0.9666   -7.1416   -0.5695 O   0  0  0  0  0  0  0  0  0  0  0  0
    0.8101   -8.1992   -1.3470 O   0  0  0  0  0  0  0  0  0  0  0  0
  1  3  1  0
  2  4  1  0
  4  6  1  0
  5  6  1  0
  3  7  1  6
  7  8  1  0
  7 14  2  0
  4 15  2  0
 10 16  1  0
  6 17  1  1
 17 18  1  0
 17 19  2  0
  1  2  1  0
  3  5  1  0
  8  9  2  0
  9 10  1  0
 10 11  2  0
 11 12  1  0
 12 13  2  0
  8 13  1  0
M  END

$$$$
No_217-/export/home/yangzhenyu/potential_scad_32_flow//YTHDC2/2024-12-06-03-22-00/
     RDKit          3D

 19 19  0  0  1  0  0  0  0  0999 V2000
    1.1787   -8.0297    3.5154 C   0  0  0  0  0  0  0  0  0  0  0  0
    1.1048   -9.2215    3.2892 C   0  0  2  0  0  0  0  0  0  0  0  0
    1.3627  -10.1721    4.3044 C   0  0  0  0  0  0  0  0  0  0  0  0
    2.3720  -10.8948    4.2468 C   0  0  0  0  0  0  0  0  0  0  0  0
    0.8234   -7.0464    2.5717 C   0  0  2  0  0  0  0  0  0  0  0  0
    0.4328   -7.4736    1.3042 C   0  0  0  0  0  0  0  0  0  0  0  0
    0.3532   -8.7488    0.9919 C   0  0  1  0  0  0  0  0  0  0  0  0
    0.0825   -9.1556   -0.3639 C   0  0  0  0  0  0  0  0  0  0  0  0
    0.8235   -9.7858    1.8620 C   0  0  0  0  0  0  0  0  0  0  0  0
    0.4379   -8.6041   -1.4247 O   0  0  0  0  0  0  0  0  0  0  0  0
   -1.1059   -9.9160   -0.4489 O   0  0  0  0  0  0  0  0  0  0  0  0
    3.2576  -10.9970    3.6343 N   0  0  0  0  0  0  0  0  0  0  0  0
    1.0590  -10.9734    1.5929 O   0  0  0  0  0  0  0  0  0  0  0  0
    0.9309   -5.4105    2.9570 C   0  0  0  0  0  0  0  0  0  0  0  0
    2.6552  -11.6672    5.5146 N   0  0  0  0  0  0  0  0  0  0  0  0
    0.2168  -10.5074    5.0676 O   0  0  0  0  0  0  0  0  0  0  0  0
    1.9576   -5.1599    3.6153 C   0  0  0  0  0  0  0  0  0  0  0  0
    1.7595   -3.6523    3.8124 O   0  0  0  0  0  0  0  0  0  0  0  0
    3.3309  -10.4900    2.7638 H   0  0  0  0  0  0  0  0  0  0  0  0
  1  2  1  0
  2  3  1  6
  3  4  1  0
  5  6  1  0
  7  8  1  6
  2  9  1  0
  7  9  1  0
  8 10  2  0
  8 11  1  0
  4 12  2  0
  9 13  2  0
  5 14  1  6
  4 15  1  0
  3 16  2  0
 14 17  1  0
 17 18  1  0
  1  5  1  0
  6  7  1  0
 12 19  1  0
M  END

$$$$
No_218-/export/home/yangzhenyu/potential_scad_32_flow//YTHDC2/2024-12-06-03-22-00/
     RDKit          3D

 19 19  0  0  1  0  0  0  0  0999 V2000
    1.1787   -8.0297    3.5154 C   0  0  0  0  0  0  0  0  0  0  0  0
    1.1048   -9.2215    3.2892 C   0  0  0  0  0  0  0  0  0  0  0  0
    1.4683  -10.2314    4.1915 C   0  0  0  0  0  0  0  0  0  0  0  0
    0.8445   -6.9865    2.5175 C   0  0  0  0  0  0  0  0  0  0  0  0
    0.3587   -7.3973    1.3953 C   0  0  0  0  0  0  0  0  0  0  0  0
    0.1901   -8.6971    1.0711 C   0  0  2  0  0  0  0  0  0  0  0  0
    0.5759   -9.6647    1.9442 C   0  0  0  0  0  0  0  0  0  0  0  0
    2.7055  -10.5235    4.4262 N   0  0  0  0  0  0  0  0  0  0  0  0
    0.4965  -10.9387    4.7782 N   0  0  0  0  0  0  0  0  0  0  0  0
   -0.2002   -9.1477   -0.1697 C   0  0  0  0  0  0  0  0  0  0  0  0
   -1.0279   -9.0654   -0.7259 O   0  0  0  0  0  0  0  0  0  0  0  0
    0.9414   -9.5588   -0.9847 O   0  0  0  0  0  0  0  0  0  0  0  0
    0.6220  -10.9778    1.6966 O   0  0  0  0  0  0  0  0  0  0  0  0
    1.0298   -5.5625    2.8327 Cl  0  0  0  0  0  0  0  0  0  0  0  0
    2.9655  -11.4900    5.3689 N   0  0  0  0  0  0  0  0  0  0  0  0
    4.3286  -11.3668    5.7155 C   0  0  0  0  0  0  0  0  0  0  0  0
    5.1615  -10.4430    5.2365 O   0  0  0  0  0  0  0  0  0  0  0  0
   -0.0162   -6.5106    0.4406 Cl  0  0  0  0  0  0  0  0  0  0  0  0
    4.6616  -11.8725    6.7643 N   0  0  0  0  0  0  0  0  0  0  0  0
  2  3  1  0
  1  4  1  0
  5  6  1  0
  2  7  1  0
  6  7  1  0
  3  8  2  3
  3  9  1  0
  6 10  1  6
 10 11  2  0
 10 12  1  0
  7 13  2  0
  4 14  1  0
  8 15  1  0
 15 16  1  0
 16 17  2  0
  5 18  1  0
 16 19  1  0
  1  2  1  0
  4  5  1  0
M  END

$$$$
No_219-/export/home/yangzhenyu/potential_scad_32_flow//YTHDC2/2024-12-06-03-22-00/
     RDKit          3D

 16 16  0  0  1  0  0  0  0  0999 V2000
    1.1787   -8.0297    3.5154 C   0  0  0  0  0  0  0  0  0  0  0  0
    1.0491   -6.8434    2.9820 C   0  0  0  0  0  0  0  0  0  0  0  0
    1.9985   -8.9840    2.8958 C   0  0  2  0  0  0  0  0  0  0  0  0
    1.7297   -9.2108    1.6335 C   0  0  0  0  0  0  0  0  0  0  0  0
    1.7343   -8.0566    0.8408 C   0  0  2  0  0  0  0  0  0  0  0  0
    1.0269   -6.8892    1.4456 C   0  0  0  0  0  0  0  0  0  0  0  0
    1.7596   -8.0979   -0.4723 C   0  0  0  0  0  0  0  0  0  0  0  0
    1.8128   -9.1679   -1.0978 O   0  0  0  0  0  0  0  0  0  0  0  0
    2.3427  -10.1974    3.6211 C   0  0  0  0  0  0  0  0  0  0  0  0
    2.4763  -10.1839    4.9094 N   0  0  0  0  0  0  0  0  0  0  0  0
    2.7368  -11.2727    2.9493 O   0  0  0  0  0  0  0  0  0  0  0  0
    0.7602   -5.6735    3.4837 O   0  0  0  0  0  0  0  0  0  0  0  0
    0.8722   -5.7532    0.8990 O   0  0  0  0  0  0  0  0  0  0  0  0
    3.0750  -11.3673    5.5331 C   0  0  0  0  0  0  0  0  0  0  0  0
    4.6200  -10.9501    5.7048 C   0  0  0  0  0  0  0  0  0  0  0  0
    2.1375   -7.1953   -1.2357 O   0  0  0  0  0  0  0  0  0  0  0  0
  1  2  1  0
  1  3  1  0
  3  4  1  0
  4  5  1  0
  2  6  1  0
  5  6  1  0
  5  7  1  6
  7  8  2  0
  3  9  1  1
  9 10  1  0
  9 11  2  0
  2 12  2  0
  6 13  2  0
 10 14  1  0
 14 15  1  0
  7 16  1  0
M  END

$$$$
No_220-/export/home/yangzhenyu/potential_scad_32_flow//YTHDC2/2024-12-06-03-22-00/
     RDKit          3D

 19 18  0  0  1  0  0  0  0  0999 V2000
    1.1787   -8.0297    3.5154 O   0  0  0  0  0  0  0  0  0  0  0  0
    0.9969   -8.9689    3.0048 C   0  0  1  0  0  0  0  0  0  0  0  0
    1.3055  -10.1056    3.6616 C   0  0  0  0  0  0  0  0  0  0  0  0
    2.1315  -10.4529    4.2438 C   0  0  0  0  0  0  0  0  0  0  0  0
   -0.0205   -8.7946    1.9507 C   0  0  0  0  0  0  0  0  0  0  0  0
    0.7197   -8.4831    0.7554 C   0  0  1  0  0  0  0  0  0  0  0  0
    1.4319   -9.1473    0.2929 C   0  0  0  0  0  0  0  0  0  0  0  0
    2.5429   -8.8124   -0.6369 O   0  0  0  0  0  0  0  0  0  0  0  0
    1.7330  -10.4547    0.7312 O   0  0  0  0  0  0  0  0  0  0  0  0
    2.5024  -11.8366    4.8172 N   0  0  0  0  0  0  0  0  0  0  0  0
    0.4482  -11.3955    3.3715 C   0  0  0  0  0  0  0  0  0  0  0  0
   -0.5624  -11.6561    2.7244 C   0  0  0  0  0  0  0  0  0  0  0  0
   -1.1899  -12.8886    2.6952 C   0  0  0  0  0  0  0  0  0  0  0  0
   -0.7314  -13.6707    2.1223 C   0  0  0  0  0  0  0  0  0  0  0  0
    0.5284  -14.1175    2.0716 C   0  0  1  0  0  0  0  0  0  0  0  0
    1.5381  -12.9975    2.1590 I   0  0  0  0  0  0  0  0  0  0  0  0
    0.2247   -7.4544    0.0582 C   0  0  0  0  0  0  0  0  0  0  0  0
   -1.1791   -7.1809    0.2065 O   0  0  0  0  0  0  0  0  0  0  0  0
    0.7887  -15.5395    2.0270 C   0  0  0  0  0  0  0  0  0  0  0  0
  2  1  1  1
  2  3  1  0
  3  4  2  3
  2  5  1  0
  6  5  1  6
  6  7  1  0
  7  8  1  0
  7  9  2  0
  4 10  1  0
  3 11  1  0
 11 12  2  3
 12 13  1  0
 13 14  2  3
 14 15  1  0
 15 16  1  0
  6 17  1  0
 17 18  2  0
 15 19  1  1
M  END

$$$$
No_221-/export/home/yangzhenyu/potential_scad_32_flow//YTHDC2/2024-12-06-03-22-00/
     RDKit          3D

 17 17  0  0  1  0  0  0  0  0999 V2000
    1.1787   -8.0297    3.5154 P   0  0  1  0  0  0  0  0  0  0  0  0
    1.2030   -9.2736    3.3536 O   0  0  0  0  0  0  0  0  0  0  0  0
    0.8520   -7.3595    2.0894 O   0  0  0  0  0  0  0  0  0  0  0  0
   -0.1602   -7.5301    4.3029 O   0  0  0  0  0  0  0  0  0  0  0  0
    0.8001  -10.2877    2.4635 C   0  0  1  0  0  0  0  0  0  0  0  0
    1.7750  -10.9019    1.7034 C   0  0  0  0  0  0  0  0  0  0  0  0
    1.5509  -12.1624    1.4443 O   0  0  0  0  0  0  0  0  0  0  0  0
    2.7980  -10.3026    1.2348 O   0  0  0  0  0  0  0  0  0  0  0  0
    0.0343  -11.3589    3.3188 C   0  0  0  0  0  0  0  0  0  0  0  0
   -1.3554  -11.1738    3.0308 C   0  0  0  0  0  0  0  0  0  0  0  0
   -2.0102  -10.2455    3.6452 C   0  0  0  0  0  0  0  0  0  0  0  0
   -2.0410  -10.1849    5.0505 C   0  0  0  0  0  0  0  0  0  0  0  0
   -3.2427   -9.7513    5.5608 C   0  0  0  0  0  0  0  0  0  0  0  0
   -4.2533   -9.2210    4.8954 C   0  0  0  0  0  0  0  0  0  0  0  0
   -4.2743   -9.3022    3.5799 C   0  0  0  0  0  0  0  0  0  0  0  0
   -3.1149   -9.8138    2.8843 C   0  0  0  0  0  0  0  0  0  0  0  0
   -5.3870   -8.6821    5.5025 C   0  0  0  0  0  0  0  0  0  0  0  0
  1  2  1  0
  1  3  2  0
  1  4  1  1
  2  5  1  0
  5  6  1  0
  6  7  1  0
  6  8  2  0
  5  9  1  1
  9 10  1  0
 10 11  1  0
 14 17  1  0
 11 12  2  0
 12 13  1  0
 13 14  2  0
 14 15  1  0
 15 16  2  0
 11 16  1  0
M  END

$$$$
No_222-/export/home/yangzhenyu/potential_scad_32_flow//YTHDC2/2024-12-06-03-22-00/
     RDKit          3D

 20 20  0  0  1  0  0  0  0  0999 V2000
    1.1787   -8.0297    3.5154 C   0  0  0  0  0  0  0  0  0  0  0  0
    1.1048   -9.2215    3.2892 C   0  0  0  0  0  0  0  0  0  0  0  0
    1.3627  -10.1721    4.3044 C   0  0  0  0  0  0  0  0  0  0  0  0
    1.7354  -11.4730    3.9023 C   0  0  0  0  0  0  0  0  0  0  0  0
    1.8080  -11.8127    2.7216 C   0  0  0  0  0  0  0  0  0  0  0  0
    1.5854  -11.0021    1.7249 C   0  0  0  0  0  0  0  0  0  0  0  0
    1.3573   -9.7389    1.9287 C   0  0  0  0  0  0  0  0  0  0  0  0
    1.1102   -8.8712    0.9017 C   0  0  0  0  0  0  0  0  0  0  0  0
    0.5299   -7.6926    1.0325 O   0  0  0  0  0  0  0  0  0  0  0  0
    1.3970   -9.2634   -0.4035 N   0  0  0  0  0  0  0  0  0  0  0  0
    2.1123  -13.2004    2.3256 C   0  0  0  0  0  0  0  0  0  0  0  0
    1.9001  -14.2511    3.1162 N   0  0  0  0  0  0  0  0  0  0  0  0
    2.5349  -13.4727    1.0506 O   0  0  0  0  0  0  0  0  0  0  0  0
    2.0462  -15.5429    2.7799 C   0  0  1  0  0  0  0  0  0  0  0  0
    3.2255  -15.9588    2.2551 C   0  0  0  0  0  0  0  0  0  0  0  0
    1.2672  -16.4655    3.5892 C   0  0  0  0  0  0  0  0  0  0  0  0
    0.4177  -16.1634    4.4878 O   0  0  0  0  0  0  0  0  0  0  0  0
    1.5079  -17.8374    3.4263 N   0  0  0  0  0  0  0  0  0  0  0  0
    0.7968  -18.7451    4.0225 C   0  0  0  0  0  0  0  0  0  0  0  0
    2.4934   -7.3452    3.5215 O   0  0  0  0  0  0  0  0  0  0  0  0
  1  2  1  0
  7  8  1  0
  8  9  2  0
  8 10  1  0
  5 11  1  0
 11 12  1  0
 11 13  2  0
 12 14  1  0
 14 15  1  1
 14 16  1  0
 16 17  2  0
 16 18  1  0
 18 19  1  0
  1 20  1  0
  2  3  2  0
  3  4  1  0
  4  5  2  0
  5  6  1  0
  6  7  2  0
  2  7  1  0
M  END

$$$$
No_223-/export/home/yangzhenyu/potential_scad_32_flow//YTHDC2/2024-12-06-03-22-00/
     RDKit          3D

 18 18  0  0  1  0  0  0  0  0999 V2000
    1.1787   -8.0297    3.5154 O   0  0  0  0  0  0  0  0  0  0  0  0
    0.6747   -7.4019    2.7838 P   0  0  1  0  0  0  0  0  0  0  0  0
   -0.1428   -7.5920    2.1455 O   0  0  0  0  0  0  0  0  0  0  0  0
    0.4275   -5.9538    3.4931 O   0  0  0  0  0  0  0  0  0  0  0  0
    1.9297   -6.8678    1.5903 C   0  0  0  0  0  0  0  0  0  0  0  0
    1.3161   -9.6098    3.2670 C   0  0  0  0  0  0  0  0  0  0  0  0
    1.5277  -10.5993    4.3475 C   0  0  0  0  0  0  0  0  0  0  0  0
    1.8315  -11.8460    3.9244 C   0  0  0  0  0  0  0  0  0  0  0  0
    1.5792  -12.2418    2.6345 C   0  0  0  0  0  0  0  0  0  0  0  0
    1.3739  -11.4137    1.6328 C   0  0  0  0  0  0  0  0  0  0  0  0
    1.2789  -10.0139    1.9599 C   0  0  0  0  0  0  0  0  0  0  0  0
    1.8169  -13.6412    2.3299 C   0  0  0  0  0  0  0  0  0  0  0  0
    2.0506  -14.0414    1.0642 O   0  0  0  0  0  0  0  0  0  0  0  0
    1.6152  -14.5838    3.2377 O   0  0  0  0  0  0  0  0  0  0  0  0
    1.0403  -15.7947    2.9192 C   0  0  0  0  0  0  0  0  0  0  0  0
    1.5181  -16.2780    1.9190 C   0  0  0  0  0  0  0  0  0  0  0  0
    1.3999  -17.7519    1.9565 O   0  0  0  0  0  0  0  0  0  0  0  0
    2.2956  -15.9993    1.0939 O   0  0  0  0  0  0  0  0  0  0  0  0
  1  2  1  0
  2  3  2  0
  2  4  1  0
  2  5  1  6
  1  6  1  0
  9 12  1  0
 12 13  2  0
 12 14  1  0
 14 15  1  0
 15 16  1  0
 16 17  2  0
 16 18  1  0
  6  7  2  0
  7  8  1  0
  8  9  2  0
  9 10  1  0
 10 11  2  0
  6 11  1  0
M  END

$$$$
No_224-/export/home/yangzhenyu/potential_scad_32_flow//YTHDC2/2024-12-06-03-22-00/
     RDKit          3D

 18 18  0  0  1  0  0  0  0  0999 V2000
    1.1787   -8.0297    3.5154 N   0  0  0  0  0  0  0  0  0  0  0  0
    1.0818   -9.0751    3.2053 C   0  0  0  0  0  0  0  0  0  0  0  0
    1.5216  -10.1164    3.9747 C   0  0  0  0  0  0  0  0  0  0  0  0
    1.4823  -11.4258    3.6006 C   0  0  0  0  0  0  0  0  0  0  0  0
    0.7594  -11.7488    2.5365 C   0  0  0  0  0  0  0  0  0  0  0  0
    0.1233  -10.8366    1.8408 C   0  0  0  0  0  0  0  0  0  0  0  0
    0.4160   -9.5408    2.0369 C   0  0  0  0  0  0  0  0  0  0  0  0
    1.1822   -6.8212    2.7752 C   0  0  0  0  0  0  0  0  0  0  0  0
    1.2615   -7.1230    1.3431 N   0  0  0  0  0  0  0  0  0  0  0  0
    1.5010   -5.4696    3.2089 C   0  0  0  0  0  0  0  0  0  0  0  0
    0.5290  -13.3802    2.3757 C   0  0  0  0  0  0  0  0  0  0  0  0
    1.5382  -14.1219    2.7417 C   0  0  0  0  0  0  0  0  0  0  0  0
    2.3862  -14.7560    1.7700 C   0  0  2  0  0  0  0  0  0  0  0  0
    2.4765  -13.9985    0.7104 C   0  0  0  0  0  0  0  0  0  0  0  0
    2.0747  -16.2080    1.4705 C   0  0  0  0  0  0  0  0  0  0  0  0
    2.5486  -17.0336    2.6021 O   0  0  0  0  0  0  0  0  0  0  0  0
    1.5781  -16.6620    0.5606 O   0  0  0  0  0  0  0  0  0  0  0  0
    1.9762   -5.3150    4.4119 O   0  0  0  0  0  0  0  0  0  0  0  0
  1  2  1  0
  1  8  2  3
  8  9  1  0
  8 10  1  0
  5 11  1  0
 11 12  1  0
 12 13  1  0
 13 14  1  6
 13 15  1  0
 15 16  1  0
 15 17  2  0
 10 18  2  0
  2  3  2  0
  3  4  1  0
  4  5  2  0
  5  6  1  0
  6  7  2  0
  2  7  1  0
M  END

$$$$
No_225-/export/home/yangzhenyu/potential_scad_32_flow//YTHDC2/2024-12-06-03-22-00/
     RDKit          3D

 18 18  0  0  0  0  0  0  0  0999 V2000
    1.1787   -8.0297    3.5154 C   0  0  0  0  0  0  0  0  0  0  0  0
    1.0491   -6.8434    2.9820 P   0  0  0  0  0  0  0  0  0  0  0  0
    1.0985   -5.7885    3.7951 O   0  0  0  0  0  0  0  0  0  0  0  0
   -0.2220   -6.7915    2.0912 O   0  0  0  0  0  0  0  0  0  0  0  0
    0.7919   -9.3787    2.7449 C   0  0  0  0  0  0  0  0  0  0  0  0
    1.4335  -10.6422    3.1573 C   0  0  0  0  0  0  0  0  0  0  0  0
    1.4059  -11.5866    2.3241 C   0  0  0  0  0  0  0  0  0  0  0  0
    0.7295  -11.5710    1.1721 C   0  0  0  0  0  0  0  0  0  0  0  0
    0.2057  -10.4852    0.6527 C   0  0  0  0  0  0  0  0  0  0  0  0
    0.2862   -9.2446    1.4738 C   0  0  0  0  0  0  0  0  0  0  0  0
    2.0159   -6.4988    1.6807 O   0  0  0  0  0  0  0  0  0  0  0  0
    2.0766  -10.7337    4.4363 F   0  0  0  0  0  0  0  0  0  0  0  0
   -0.2699  -10.3914   -0.5788 N   0  0  0  0  0  0  0  0  0  0  0  0
   -0.4544   -9.1738   -1.2080 C   0  0  0  0  0  0  0  0  0  0  0  0
   -1.0744   -9.1772   -2.4327 O   0  0  0  0  0  0  0  0  0  0  0  0
   -0.0689   -7.9554   -0.8974 O   0  0  0  0  0  0  0  0  0  0  0  0
    1.9338  -13.1034    2.8658 C   0  0  0  0  0  0  0  0  0  0  0  0
    2.2213  -14.0431    2.0286 C   0  0  0  0  0  0  0  0  0  0  0  0
  1  2  1  0
  2  3  1  0
  2  4  2  0
  1  5  1  0
  2 11  1  0
  6 12  1  0
  9 13  1  0
 13 14  1  0
 14 15  2  0
 14 16  1  0
  7 17  1  0
 17 18  1  0
  5  6  2  0
  6  7  1  0
  7  8  2  0
  8  9  1  0
  9 10  2  0
  5 10  1  0
M  END

$$$$
No_226-/export/home/yangzhenyu/potential_scad_32_flow//YTHDC2/2024-12-06-03-22-00/
     RDKit          3D

 19 19  0  0  0  0  0  0  0  0999 V2000
    1.1787   -8.0297    3.5154 O   0  0  0  0  0  0  0  0  0  0  0  0
    0.9969   -8.9689    3.0048 C   0  0  0  0  0  0  0  0  0  0  0  0
    1.3055  -10.1056    3.6616 C   0  0  0  0  0  0  0  0  0  0  0  0
    2.1315  -10.4529    4.2438 C   0  0  0  0  0  0  0  0  0  0  0  0
    0.4484   -8.8156    1.7225 C   0  0  0  0  0  0  0  0  0  0  0  0
   -0.0257   -7.6054    1.5545 C   0  0  0  0  0  0  0  0  0  0  0  0
    0.8214   -6.5530    1.3964 O   0  0  0  0  0  0  0  0  0  0  0  0
    2.5215  -11.7958    4.8146 N   0  0  0  0  0  0  0  0  0  0  0  0
    0.3963   -9.7209    0.9004 C   0  0  0  0  0  0  0  0  0  0  0  0
   -0.6126  -10.2950    0.5623 O   0  0  0  0  0  0  0  0  0  0  0  0
    1.5981   -9.7968    0.0183 O   0  0  0  0  0  0  0  0  0  0  0  0
   -1.3209   -7.2718    1.5897 O   0  0  0  0  0  0  0  0  0  0  0  0
    0.6233  -11.5097    3.1733 C   0  0  0  0  0  0  0  0  0  0  0  0
    1.5084  -12.4343    3.9733 C   0  0  0  0  0  0  0  0  0  0  0  0
    1.5615  -13.6658    3.7401 O   0  0  0  0  0  0  0  0  0  0  0  0
    0.8809   -5.2869    1.9642 C   0  0  0  0  0  0  0  0  0  0  0  0
    1.4565   -4.4741    1.7291 C   0  0  0  0  0  0  0  0  0  0  0  0
    1.5073   -3.3151    2.7673 O   0  0  0  0  0  0  0  0  0  0  0  0
    0.3415   -3.1363    3.3608 C   0  0  0  0  0  0  0  0  0  0  0  0
  1  2  1  0
  2  3  1  0
  3  4  2  0
  2  5  1  0
  5  6  1  0
  6  7  1  0
  4  8  1  0
  5  9  1  0
  9 10  2  0
  9 11  1  0
  6 12  2  0
  3 13  1  0
  8 14  1  0
 13 14  1  0
 14 15  2  0
  7 16  1  0
 16 17  1  0
 17 18  1  0
 18 19  1  0
M  END

$$$$
No_227-/export/home/yangzhenyu/potential_scad_32_flow//YTHDC2/2024-12-06-03-22-00/
     RDKit          3D

 20 21  0  0  1  0  0  0  0  0999 V2000
    1.1787   -8.0297    3.5154 C   0  0  0  0  0  0  0  0  0  0  0  0
    1.0491   -6.8434    2.9820 C   0  0  0  0  0  0  0  0  0  0  0  0
    0.9905   -9.0774    2.6527 C   0  0  0  0  0  0  0  0  0  0  0  0
    0.7897   -8.9519    1.3691 C   0  0  0  0  0  0  0  0  0  0  0  0
    0.7018   -7.7198    0.7892 C   0  0  0  0  0  0  0  0  0  0  0  0
    0.8918   -6.5957    1.6117 C   0  0  0  0  0  0  0  0  0  0  0  0
    1.0998  -10.4710    3.2437 C   0  0  1  0  0  0  0  0  0  0  0  0
    0.0472  -11.2546    3.3963 C   0  0  0  0  0  0  0  0  0  0  0  0
   -1.1989  -10.6161    3.7011 N   0  0  0  0  0  0  0  0  0  0  0  0
   -0.0083  -12.5440    3.3230 O   0  0  0  0  0  0  0  0  0  0  0  0
    0.8715   -5.2885    1.1579 C   0  0  0  0  0  0  0  0  0  0  0  0
   -2.3714  -11.1522    3.7344 C   0  0  0  0  0  0  0  0  0  0  0  0
   -3.3435  -10.3580    3.2736 C   0  0  0  0  0  0  0  0  0  0  0  0
   -4.5407  -10.7288    3.5490 C   0  0  0  0  0  0  0  0  0  0  0  0
   -4.9064  -12.0431    3.9287 C   0  0  0  0  0  0  0  0  0  0  0  0
   -3.8203  -12.9477    4.2422 C   0  0  0  0  0  0  0  0  0  0  0  0
   -2.5340  -12.4765    4.0055 C   0  0  0  0  0  0  0  0  0  0  0  0
    2.4257  -10.9527    3.4387 C   0  0  0  0  0  0  0  0  0  0  0  0
    2.7737  -10.8500    4.8896 O   0  0  0  0  0  0  0  0  0  0  0  0
    0.2078   -4.2344    1.9027 N   0  0  0  0  0  0  0  0  0  0  0  0
  3  7  1  0
  7  8  1  0
  8  9  1  0
  8 10  2  0
  6 11  1  0
  9 12  1  0
  7 18  1  6
 18 19  2  0
 11 20  1  0
 12 13  2  0
 13 14  1  0
 14 15  2  0
 15 16  1  0
 16 17  2  0
 12 17  1  0
  1  2  2  0
  2  6  1  0
  5  6  2  0
  4  5  1  0
  3  4  2  0
  1  3  1  0
M  END

$$$$
No_228-/export/home/yangzhenyu/potential_scad_32_flow//YTHDC2/2024-12-06-03-22-00/
     RDKit          3D

 18 18  0  0  1  0  0  0  0  0999 V2000
    1.1787   -8.0297    3.5154 O   0  0  0  0  0  0  0  0  0  0  0  0
    0.9969   -8.9689    3.0048 C   0  0  1  0  0  0  0  0  0  0  0  0
    0.9976   -8.9567    1.6341 C   0  0  2  0  0  0  0  0  0  0  0  0
    1.6062   -9.9071    0.9292 C   0  0  0  0  0  0  0  0  0  0  0  0
    2.1191  -10.9757    1.6503 C   0  0  0  0  0  0  0  0  0  0  0  0
    2.1177  -10.9891    3.0403 C   0  0  1  0  0  0  0  0  0  0  0  0
    1.5441   -9.8905    3.6897 C   0  0  0  0  0  0  0  0  0  0  0  0
    0.4333   -7.7031    1.0153 C   0  0  0  0  0  0  0  0  0  0  0  0
    0.8525   -6.5693    1.1822 O   0  0  0  0  0  0  0  0  0  0  0  0
   -0.4808   -7.8104    0.0522 O   0  0  0  0  0  0  0  0  0  0  0  0
    1.7841  -10.1036    4.9790 O   0  0  0  0  0  0  0  0  0  0  0  0
    2.6226  -12.1810    3.5478 N   0  0  0  0  0  0  0  0  0  0  0  0
    2.1500  -13.3874    3.1550 C   0  0  0  0  0  0  0  0  0  0  0  0
    2.8001  -14.4550    2.7357 O   0  0  0  0  0  0  0  0  0  0  0  0
    0.6867  -13.7034    3.2935 C   0  0  0  0  0  0  0  0  0  0  0  0
    0.3303  -15.0486    3.0278 C   0  0  0  0  0  0  0  0  0  0  0  0
   -0.6333  -15.2249    2.6782 C   0  0  0  0  0  0  0  0  0  0  0  0
   -1.7320  -14.2165    2.5902 C   0  0  0  0  0  0  0  0  0  0  0  0
  2  1  1  1
  2  3  1  0
  4  5  1  0
  2  7  1  0
  6  7  1  0
  3  8  1  1
  8  9  2  0
  8 10  1  0
  7 11  2  0
  6 12  1  6
 12 13  1  0
 13 14  2  0
 13 15  1  0
 15 16  1  0
 16 17  2  3
 17 18  1  0
  3  4  1  0
  5  6  1  0
M  END

$$$$
No_229-/export/home/yangzhenyu/potential_scad_32_flow//YTHDC2/2024-12-06-03-22-00/
     RDKit          3D

 20 20  0  0  1  0  0  0  0  0999 V2000
    1.1787   -8.0297    3.5154 C   0  0  0  0  0  0  0  0  0  0  0  0
    1.1048   -9.2215    3.2892 C   0  0  0  0  0  0  0  0  0  0  0  0
    1.0239   -9.7790    2.0239 C   0  0  0  0  0  0  0  0  0  0  0  0
    1.1393   -9.0211    0.9686 C   0  0  0  0  0  0  0  0  0  0  0  0
    1.4051   -7.6500    1.1251 C   0  0  0  0  0  0  0  0  0  0  0  0
    1.4868   -7.1041    2.3534 C   0  0  0  0  0  0  0  0  0  0  0  0
    0.9659  -10.1420    4.4543 P   0  0  1  0  0  0  0  0  0  0  0  0
   -0.2514  -10.3456    4.7965 O   0  0  0  0  0  0  0  0  0  0  0  0
    1.4451  -11.8460    4.0576 O   0  0  0  0  0  0  0  0  0  0  0  0
    1.0910   -9.5037   -0.3469 C   0  0  0  0  0  0  0  0  0  0  0  0
    0.0380  -10.3464   -0.5829 O   0  0  0  0  0  0  0  0  0  0  0  0
    1.4664   -8.8535   -1.3713 O   0  0  0  0  0  0  0  0  0  0  0  0
    1.5751   -5.6613    2.5860 Cl  0  0  0  0  0  0  0  0  0  0  0  0
    1.8991   -9.9303    5.6447 O   0  0  0  0  0  0  0  0  0  0  0  0
    3.0893  -10.9863    5.8364 C   0  0  0  0  0  0  0  0  0  0  0  0
    4.1517  -10.6306    4.7128 C   0  0  0  0  0  0  0  0  0  0  0  0
    5.3956  -10.9159    5.3538 O   0  0  0  0  0  0  0  0  0  0  0  0
    3.9822  -10.5367    3.6626 O   0  0  0  0  0  0  0  0  0  0  0  0
   -1.1551  -10.1565   -1.2597 C   0  0  0  0  0  0  0  0  0  0  0  0
   -1.4590   -8.9939   -1.4171 C   0  0  0  0  0  0  0  0  0  0  0  0
  2  7  1  0
  7  8  1  1
  7  9  2  0
  4 10  1  0
 10 11  1  0
 10 12  2  0
  6 13  1  0
  7 14  1  0
 14 15  1  0
 15 16  1  0
 16 17  1  0
 16 18  2  0
 11 19  1  0
 19 20  1  0
  1  2  2  0
  2  3  1  0
  3  4  2  0
  4  5  1  0
  5  6  2  0
  1  6  1  0
M  END

$$$$
No_230-/export/home/yangzhenyu/potential_scad_32_flow//YTHDC2/2024-12-06-03-22-00/
     RDKit          3D

 20 21  0  0  1  0  0  0  0  0999 V2000
    1.1787   -8.0297    3.5154 O   0  0  0  0  0  0  0  0  0  0  0  0
    0.6747   -7.4019    2.7838 C   0  0  0  0  0  0  0  0  0  0  0  0
    0.7594   -8.0032    1.4295 C   0  0  2  0  0  0  0  0  0  0  0  0
    0.3459   -9.1500    1.3581 C   0  0  2  0  0  0  0  0  0  0  0  0
    0.9462   -9.9230    0.3351 C   0  0  0  0  0  0  0  0  0  0  0  0
    1.6884   -9.1549   -0.6693 C   0  0  0  0  0  0  0  0  0  0  0  0
    2.0524   -8.0315   -0.3557 C   0  0  0  0  0  0  0  0  0  0  0  0
    1.7059   -7.2327    0.6718 C   0  0  0  0  0  0  0  0  0  0  0  0
    0.5434  -11.1466    0.0192 O   0  0  0  0  0  0  0  0  0  0  0  0
    0.2116   -6.3365    3.1700 O   0  0  0  0  0  0  0  0  0  0  0  0
   -0.9622   -9.4328    1.3522 C   0  0  0  0  0  0  0  0  0  0  0  0
   -2.0371   -8.8679    0.5321 C   0  0  0  0  0  0  0  0  0  0  0  0
   -2.1493   -7.7641    0.2919 C   0  0  0  0  0  0  0  0  0  0  0  0
   -2.9143   -7.1983   -0.7747 C   0  0  0  0  0  0  0  0  0  0  0  0
   -3.5583   -8.1462   -1.4616 C   0  0  0  0  0  0  0  0  0  0  0  0
   -3.4461   -9.4213   -1.2589 C   0  0  0  0  0  0  0  0  0  0  0  0
   -2.5696   -9.8724   -0.2470 C   0  0  0  0  0  0  0  0  0  0  0  0
   -4.4093   -7.7323   -2.5497 C   0  0  0  0  0  0  0  0  0  0  0  0
   -3.8659   -7.4470   -3.7715 O   0  0  0  0  0  0  0  0  0  0  0  0
   -5.2661   -6.6050   -2.1160 O   0  0  0  0  0  0  0  0  0  0  0  0
  1  2  1  0
  3  2  1  1
  3  4  1  0
  4  5  1  0
  5  6  1  0
  3  8  1  0
  7  8  1  0
  5  9  2  0
  2 10  2  0
  4 11  1  6
 11 12  1  0
 15 18  1  0
 18 19  1  0
 18 20  2  0
  6  7  1  0
 12 13  2  0
 13 14  1  0
 14 15  2  0
 15 16  1  0
 16 17  2  0
 12 17  1  0
M  END

$$$$
No_231-/export/home/yangzhenyu/potential_scad_32_flow//YTHDC2/2024-12-06-03-22-00/
     RDKit          3D

 18 18  0  0  1  0  0  0  0  0999 V2000
    1.1787   -8.0297    3.5154 C   0  0  0  0  0  0  0  0  0  0  0  0
    1.0491   -6.8434    2.9820 N   0  0  0  0  0  0  0  0  0  0  0  0
    2.0155   -8.9614    2.9776 C   0  0  2  0  0  0  0  0  0  0  0  0
    1.9967   -9.1783    1.7307 C   0  0  0  0  0  0  0  0  0  0  0  0
    1.8014   -8.0876    0.9798 C   0  0  1  0  0  0  0  0  0  0  0  0
    2.1030   -8.3106   -0.4140 C   0  0  0  0  0  0  0  0  0  0  0  0
    1.3124   -6.9920    1.4871 C   0  0  0  0  0  0  0  0  0  0  0  0
    2.3103   -9.3778   -0.9781 O   0  0  0  0  0  0  0  0  0  0  0  0
    2.0840  -10.2894    3.8027 C   0  0  0  0  0  0  0  0  0  0  0  0
    1.4125  -11.0202    4.1810 O   0  0  0  0  0  0  0  0  0  0  0  0
    3.4331  -10.4844    4.2588 O   0  0  0  0  0  0  0  0  0  0  0  0
    2.2231   -7.3942   -1.2285 O   0  0  0  0  0  0  0  0  0  0  0  0
    0.7436   -5.6220    3.4571 C   0  0  0  0  0  0  0  0  0  0  0  0
    1.6876   -4.5876    3.6298 C   0  0  0  0  0  0  0  0  0  0  0  0
    1.1272   -3.3284    3.1340 O   0  0  0  0  0  0  0  0  0  0  0  0
    1.2668   -3.2440    1.7402 C   0  0  0  0  0  0  0  0  0  0  0  0
    0.3544   -3.7943    1.0363 C   0  0  0  0  0  0  0  0  0  0  0  0
   -0.4953   -2.8043    0.4338 O   0  0  0  0  0  0  0  0  0  0  0  0
  1  2  1  0
  1  3  1  0
  4  5  1  0
  5  6  1  6
  2  7  1  0
  5  7  1  0
  6  8  2  0
  3  9  1  1
  9 10  2  0
  9 11  1  0
  6 12  1  0
  2 13  1  0
 13 14  1  0
 14 15  1  0
 15 16  1  0
 16 17  1  0
 17 18  1  0
  3  4  1  0
M  END

$$$$
No_232-/export/home/yangzhenyu/potential_scad_32_flow//YTHDC2/2024-12-06-03-22-00/
     RDKit          3D

 19 19  0  0  1  0  0  0  0  0999 V2000
    1.1787   -8.0297    3.5154 O   0  0  0  0  0  0  0  0  0  0  0  0
    0.9969   -8.9689    3.0048 C   0  0  2  0  0  0  0  0  0  0  0  0
    0.9976   -8.9567    1.6341 C   0  0  0  0  0  0  0  0  0  0  0  0
    1.6062   -9.9071    0.9292 C   0  0  0  0  0  0  0  0  0  0  0  0
    1.9085   -9.8086   -0.3950 C   0  0  0  0  0  0  0  0  0  0  0  0
    0.6705  -10.0870    3.6248 C   0  0  1  0  0  0  0  0  0  0  0  0
    1.8658   -8.3829   -0.9803 O   0  0  0  0  0  0  0  0  0  0  0  0
    1.7861  -10.9763    3.9925 C   0  0  0  0  0  0  0  0  0  0  0  0
    2.9338  -10.4098    4.5136 C   0  0  0  0  0  0  0  0  0  0  0  0
    3.8318  -11.4000    4.9674 O   0  0  0  0  0  0  0  0  0  0  0  0
   -0.4940  -10.3973    4.0868 C   0  0  0  0  0  0  0  0  0  0  0  0
   -1.5641  -10.0826    3.5041 O   0  0  0  0  0  0  0  0  0  0  0  0
   -0.6697  -11.2445    5.1105 O   0  0  0  0  0  0  0  0  0  0  0  0
    2.5932  -10.3813   -1.2167 O   0  0  0  0  0  0  0  0  0  0  0  0
    1.1718   -6.6710    2.8892 C   0  0  0  0  0  0  0  0  0  0  0  0
    0.7452   -6.5058    1.8055 C   0  0  2  0  0  0  0  0  0  0  0  0
    0.8658   -7.6951    0.9001 C   0  0  0  0  0  0  0  0  0  0  0  0
    0.3049   -5.3332    1.3206 C   0  0  0  0  0  0  0  0  0  0  0  0
   -0.9066   -5.1114    0.7378 O   0  0  0  0  0  0  0  0  0  0  0  0
  2  1  1  1
  2  3  1  0
  3  4  2  3
  4  5  1  0
  2  6  1  0
  5  7  2  0
  6  8  1  1
  8  9  1  0
  9 10  1  0
  6 11  1  0
 11 12  2  0
 11 13  1  0
  5 14  1  0
  1 15  1  0
 15 16  1  0
  3 17  1  0
 16 17  1  0
 16 18  1  6
 18 19  2  0
M  END

$$$$
No_233-/export/home/yangzhenyu/potential_scad_32_flow//YTHDC2/2024-12-06-03-22-00/
     RDKit          3D

 18 17  0  0  0  0  0  0  0  0999 V2000
    1.1787   -8.0297    3.5154 O   0  0  0  0  0  0  0  0  0  0  0  0
    0.6747   -7.4019    2.7838 C   0  0  0  0  0  0  0  0  0  0  0  0
    0.5570   -6.0797    2.8560 O   0  0  0  0  0  0  0  0  0  0  0  0
    0.2244   -8.0200    1.4812 C   0  0  0  0  0  0  0  0  0  0  0  0
    0.7721   -9.1922    1.3321 C   0  0  0  0  0  0  0  0  0  0  0  0
    0.4275   -9.7519   -0.0795 C   0  0  0  0  0  0  0  0  0  0  0  0
   -0.6680   -9.8124   -0.4571 O   0  0  0  0  0  0  0  0  0  0  0  0
    1.3728  -10.4408   -0.6473 O   0  0  0  0  0  0  0  0  0  0  0  0
    1.9207   -9.8728    1.8362 C   0  0  0  0  0  0  0  0  0  0  0  0
    1.6427  -11.1723    2.4022 C   0  0  0  0  0  0  0  0  0  0  0  0
    1.5002  -12.2062    1.6326 O   0  0  0  0  0  0  0  0  0  0  0  0
    1.5385  -11.4858    3.7567 N   0  0  0  0  0  0  0  0  0  0  0  0
    1.1955  -12.6332    4.1774 C   0  0  0  0  0  0  0  0  0  0  0  0
    0.7431  -13.4811    3.0681 C   0  0  0  0  0  0  0  0  0  0  0  0
    1.4903  -14.6516    3.0047 C   0  0  0  0  0  0  0  0  0  0  0  0
    1.0172  -15.7179    2.2065 I   0  0  0  0  0  0  0  0  0  0  0  0
   -0.8075   -7.4567    0.9245 C   0  0  0  0  0  0  0  0  0  0  0  0
   -2.1523   -7.4513    1.3681 C   0  0  0  0  0  0  0  0  0  0  0  0
  1  2  1  0
  2  3  2  0
  2  4  1  0
  4  5  2  3
  5  6  1  0
  6  7  2  0
  6  8  1  0
  5  9  1  0
  9 10  1  0
 10 11  2  0
 10 12  1  0
 12 13  1  0
 13 14  1  0
 14 15  1  0
 15 16  1  0
  4 17  1  0
 17 18  1  0
M  END

$$$$
No_234-/export/home/yangzhenyu/potential_scad_32_flow//YTHDC2/2024-12-06-03-22-00/
     RDKit          3D

 20 21  0  0  0  0  0  0  0  0999 V2000
    1.1787   -8.0297    3.5154 C   0  0  0  0  0  0  0  0  0  0  0  0
    1.0491   -6.8434    2.9820 P   0  0  0  0  0  0  0  0  0  0  0  0
   -0.0813   -6.5951    2.3686 O   0  0  0  0  0  0  0  0  0  0  0  0
    1.1864   -5.7070    4.0268 O   0  0  0  0  0  0  0  0  0  0  0  0
    0.7938   -9.2370    2.6919 C   0  0  0  0  0  0  0  0  0  0  0  0
    0.0074  -10.0787    3.2490 C   0  0  0  0  0  0  0  0  0  0  0  0
    0.0968  -11.3043    3.4037 C   0  0  0  0  0  0  0  0  0  0  0  0
    1.0177  -11.9687    2.5626 C   0  0  0  0  0  0  0  0  0  0  0  0
    2.0258  -11.1275    1.7936 C   0  0  0  0  0  0  0  0  0  0  0  0
    1.9508   -9.8119    1.8770 C   0  0  0  0  0  0  0  0  0  0  0  0
    1.1323  -13.3908    2.4615 C   0  0  0  0  0  0  0  0  0  0  0  0
    2.0968  -14.0903    2.9027 C   0  0  0  0  0  0  0  0  0  0  0  0
    2.0024  -15.5757    2.6492 C   0  0  0  0  0  0  0  0  0  0  0  0
    1.0615  -16.1155    2.0499 C   0  0  0  0  0  0  0  0  0  0  0  0
    0.0336  -15.4657    1.6059 C   0  0  0  0  0  0  0  0  0  0  0  0
    0.0274  -14.0870    1.7681 C   0  0  0  0  0  0  0  0  0  0  0  0
    2.0310   -6.3886    1.8500 O   0  0  0  0  0  0  0  0  0  0  0  0
   -1.0513  -13.3377    1.3381 C   0  0  0  0  0  0  0  0  0  0  0  0
   -1.0855  -12.6715    0.1739 O   0  0  0  0  0  0  0  0  0  0  0  0
   -2.1984  -13.2608    2.0784 O   0  0  0  0  0  0  0  0  0  0  0  0
  1  2  1  0
  2  3  1  0
  2  4  1  0
  1  5  1  0
  8 11  1  0
  2 17  2  0
 16 18  1  0
 18 19  1  0
 18 20  2  0
 11 12  2  0
 12 13  1  0
 13 14  2  0
 14 15  1  0
 15 16  2  0
 11 16  1  0
  5  6  2  0
  6  7  1  0
  7  8  2  0
  8  9  1  0
  9 10  2  0
  5 10  1  0
M  END

$$$$
No_235-/export/home/yangzhenyu/potential_scad_32_flow//YTHDC2/2024-12-06-03-22-00/
     RDKit          3D

 18 18  0  0  0  0  0  0  0  0999 V2000
    1.1787   -8.0297    3.5154 C   0  0  0  0  0  0  0  0  0  0  0  0
    1.0491   -6.8434    2.9820 C   0  0  0  0  0  0  0  0  0  0  0  0
    0.0950   -8.8404    3.2292 C   0  0  0  0  0  0  0  0  0  0  0  0
    0.0602  -10.1764    3.8231 C   0  0  0  0  0  0  0  0  0  0  0  0
    0.2248   -6.3830    2.0648 C   0  0  0  0  0  0  0  0  0  0  0  0
   -0.6745   -7.2322    1.6857 C   0  0  0  0  0  0  0  0  0  0  0  0
   -0.7374   -8.4992    2.1291 C   0  0  0  0  0  0  0  0  0  0  0  0
    1.0517  -10.8728    4.0967 C   0  0  0  0  0  0  0  0  0  0  0  0
    2.3550  -10.7132    3.6249 C   0  0  0  0  0  0  0  0  0  0  0  0
    0.3532   -5.1181    1.3971 O   0  0  0  0  0  0  0  0  0  0  0  0
    3.3869  -10.8519    4.4348 N   0  0  0  0  0  0  0  0  0  0  0  0
    2.7467  -10.5574    2.3479 O   0  0  0  0  0  0  0  0  0  0  0  0
   -1.2409  -10.5732    4.2757 C   0  0  0  0  0  0  0  0  0  0  0  0
    1.1342   -4.1471    2.0853 C   0  0  0  0  0  0  0  0  0  0  0  0
   -1.6758   -6.9002    0.6857 O   0  0  0  0  0  0  0  0  0  0  0  0
   -2.7942   -6.3358    1.1261 C   0  0  0  0  0  0  0  0  0  0  0  0
   -2.9746   -5.1636    0.9490 C   0  0  0  0  0  0  0  0  0  0  0  0
   -3.1411   -4.3050    1.9571 O   0  0  0  0  0  0  0  0  0  0  0  0
  3  4  1  0
  4  8  2  3
  8  9  1  0
  5 10  1  0
  9 11  1  0
  9 12  2  0
  4 13  1  0
 10 14  1  0
  6 15  1  0
 15 16  1  0
 16 17  1  0
 17 18  2  0
  1  2  2  0
  2  5  1  0
  5  6  2  0
  6  7  1  0
  3  7  2  0
  1  3  1  0
M  END

$$$$
No_236-/export/home/yangzhenyu/potential_scad_32_flow//YTHDC2/2024-12-06-03-22-00/
     RDKit          3D

 18 18  0  0  1  0  0  0  0  0999 V2000
    1.1787   -8.0297    3.5154 O   0  0  0  0  0  0  0  0  0  0  0  0
    0.6747   -7.4019    2.7838 C   0  0  0  0  0  0  0  0  0  0  0  0
    0.7594   -8.0032    1.4295 C   0  0  1  0  0  0  0  0  0  0  0  0
    0.3459   -9.1500    1.3581 C   0  0  0  0  0  0  0  0  0  0  0  0
    1.1876  -10.0065    2.0239 C   0  0  1  0  0  0  0  0  0  0  0  0
    1.2267   -9.5257    3.5507 C   0  0  1  0  0  0  0  0  0  0  0  0
    1.9919  -10.3918    4.3814 C   0  0  0  0  0  0  0  0  0  0  0  0
    3.2305  -10.3160    4.5861 O   0  0  0  0  0  0  0  0  0  0  0  0
    1.2324  -11.1807    5.1061 O   0  0  0  0  0  0  0  0  0  0  0  0
    0.8674   -7.0283    0.4786 C   0  0  0  0  0  0  0  0  0  0  0  0
    1.1575   -5.7478    1.0105 O   0  0  0  0  0  0  0  0  0  0  0  0
    0.8818   -7.2777   -0.5784 O   0  0  0  0  0  0  0  0  0  0  0  0
    1.6374  -11.1788    1.8480 C   0  0  0  0  0  0  0  0  0  0  0  0
    1.1049  -12.3600    2.0893 C   0  0  0  0  0  0  0  0  0  0  0  0
   -0.2101  -12.4084    2.3188 O   0  0  0  0  0  0  0  0  0  0  0  0
    1.7999  -13.4810    2.4897 N   0  0  0  0  0  0  0  0  0  0  0  0
    1.2485  -14.7400    2.8313 C   0  0  0  0  0  0  0  0  0  0  0  0
    1.8720  -15.8699    2.3379 C   0  0  0  0  0  0  0  0  0  0  0  0
  1  2  1  0
  2  3  1  0
  3  4  1  0
  4  5  1  0
  1  6  1  0
  5  6  1  0
  6  7  1  6
  7  8  2  0
  7  9  1  0
  3 10  1  6
 10 11  1  0
 10 12  2  0
  5 13  1  1
 13 14  1  0
 14 15  2  0
 14 16  1  0
 16 17  1  0
 17 18  1  0
M  END

$$$$
No_237-/export/home/yangzhenyu/potential_scad_32_flow//YTHDC2/2024-12-06-03-22-00/
     RDKit          3D

 21 21  0  0  1  0  0  0  0  0999 V2000
    1.1787   -8.0297    3.5154 C   0  0  0  0  0  0  0  0  0  0  0  0
    1.1048   -9.2215    3.2892 C   0  0  0  0  0  0  0  0  0  0  0  0
    1.3627  -10.1721    4.3044 C   0  0  0  0  0  0  0  0  0  0  0  0
    1.7354  -11.4730    3.9023 C   0  0  0  0  0  0  0  0  0  0  0  0
    1.8080  -11.8127    2.7216 C   0  0  0  0  0  0  0  0  0  0  0  0
    1.5854  -11.0021    1.7249 C   0  0  0  0  0  0  0  0  0  0  0  0
    1.3573   -9.7389    1.9287 C   0  0  0  0  0  0  0  0  0  0  0  0
    1.2865   -8.8078    0.9161 C   0  0  0  0  0  0  0  0  0  0  0  0
    0.9210   -7.5140    1.1674 O   0  0  0  0  0  0  0  0  0  0  0  0
    1.5321   -9.1645   -0.3432 N   0  0  0  0  0  0  0  0  0  0  0  0
    2.0924  -13.2035    2.3168 C   0  0  0  0  0  0  0  0  0  0  0  0
    2.4356  -13.5662    1.0535 O   0  0  0  0  0  0  0  0  0  0  0  0
    1.7574  -14.2404    3.1093 O   0  0  0  0  0  0  0  0  0  0  0  0
    2.4877   -7.3984    3.6597 O   0  0  0  0  0  0  0  0  0  0  0  0
    0.1768   -7.3175    3.7569 O   0  0  0  0  0  0  0  0  0  0  0  0
    1.5599   -8.3177   -1.4609 O   0  0  0  0  0  0  0  0  0  0  0  0
    1.9159  -15.5410    2.6763 C   0  0  1  0  0  0  0  0  0  0  0  0
    3.0845  -15.9364    2.3912 C   0  0  0  0  0  0  0  0  0  0  0  0
    0.7908  -16.3076    2.8228 C   0  0  0  0  0  0  0  0  0  0  0  0
    0.9054  -17.6144    2.6292 O   0  0  0  0  0  0  0  0  0  0  0  0
   -0.4304  -15.9122    3.3541 O   0  0  0  0  0  0  0  0  0  0  0  0
  1  2  1  0
  7  8  1  0
  8  9  2  0
  8 10  1  0
  5 11  1  0
 11 12  2  0
 11 13  1  0
  1 14  1  0
  1 15  2  0
 10 16  2  0
 13 17  1  0
 17 18  1  1
 17 19  1  0
 19 20  2  0
 19 21  1  0
  2  3  2  0
  3  4  1  0
  4  5  2  0
  5  6  1  0
  6  7  2  0
  2  7  1  0
M  END

$$$$
No_238-/export/home/yangzhenyu/potential_scad_32_flow//YTHDC2/2024-12-06-03-22-00/
     RDKit          3D

 18 19  0  0  1  0  0  0  0  0999 V2000
    1.1787   -8.0297    3.5154 C   0  0  0  0  0  0  0  0  0  0  0  0
    1.0491   -6.8434    2.9820 C   0  0  0  0  0  0  0  0  0  0  0  0
    0.0950   -8.8404    3.2292 C   0  0  0  0  0  0  0  0  0  0  0  0
   -0.9173   -8.4596    2.5152 C   0  0  0  0  0  0  0  0  0  0  0  0
   -1.0331   -7.2162    2.0653 C   0  0  0  0  0  0  0  0  0  0  0  0
   -0.0105   -6.3168    2.3081 C   0  0  0  0  0  0  0  0  0  0  0  0
    0.0485   -4.9783    1.8782 C   0  0  0  0  0  0  0  0  0  0  0  0
    0.9625   -4.1072    2.3252 O   0  0  0  0  0  0  0  0  0  0  0  0
   -0.5912   -4.4986    0.8553 O   0  0  0  0  0  0  0  0  0  0  0  0
    0.2239  -10.4883    3.7362 C   0  0  2  0  0  0  0  0  0  0  0  0
   -0.9323  -11.1560    3.5424 C   0  0  0  0  0  0  0  0  0  0  0  0
    1.3359  -10.8670    4.4178 C   0  0  0  0  0  0  0  0  0  0  0  0
    1.3926  -12.1876    4.6144 C   0  0  0  0  0  0  0  0  0  0  0  0
   -0.8469  -12.4749    3.8180 C   0  0  2  0  0  0  0  0  0  0  0  0
    0.4209  -13.0053    4.2711 C   0  0  0  0  0  0  0  0  0  0  0  0
    0.6147  -14.3730    4.3133 O   0  0  0  0  0  0  0  0  0  0  0  0
   -1.8800  -13.3102    3.5911 C   0  0  0  0  0  0  0  0  0  0  0  0
   -2.5001  -13.2499    2.6282 O   0  0  0  0  0  0  0  0  0  0  0  0
  6  7  1  0
  7  8  2  0
  7  9  1  0
 10  3  1  1
 10 12  1  0
 11 14  1  0
 13 15  1  0
 14 15  1  0
 15 16  2  0
 14 17  1  6
 17 18  2  0
 12 13  1  0
 10 11  1  0
  1  2  2  0
  2  6  1  0
  5  6  2  0
  4  5  1  0
  3  4  2  0
  1  3  1  0
M  END

$$$$
No_239-/export/home/yangzhenyu/potential_scad_32_flow//YTHDC2/2024-12-06-03-22-00/
     RDKit          3D

 19 20  0  0  1  0  0  0  0  0999 V2000
    1.1787   -8.0297    3.5154 C   0  0  0  0  0  0  0  0  0  0  0  0
    1.1048   -9.2215    3.2892 C   0  0  0  0  0  0  0  0  0  0  0  0
    1.3627  -10.1721    4.3044 C   0  0  0  0  0  0  0  0  0  0  0  0
    1.7354  -11.4730    3.9023 C   0  0  0  0  0  0  0  0  0  0  0  0
    1.8080  -11.8127    2.7216 C   0  0  0  0  0  0  0  0  0  0  0  0
    1.5854  -11.0021    1.7249 C   0  0  0  0  0  0  0  0  0  0  0  0
    1.3573   -9.7389    1.9287 C   0  0  0  0  0  0  0  0  0  0  0  0
    1.2865   -8.8078    0.9161 C   0  0  0  0  0  0  0  0  0  0  0  0
    1.6845   -9.1638   -0.2896 O   0  0  0  0  0  0  0  0  0  0  0  0
    1.1989   -7.4617    1.0956 N   0  0  0  0  0  0  0  0  0  0  0  0
    1.0953   -7.0087    2.3768 C   0  0  2  0  0  0  0  0  0  0  0  0
    0.9816   -5.4850    2.5737 C   0  0  0  0  0  0  0  0  0  0  0  0
    2.0309  -13.2209    2.3591 C   0  0  0  0  0  0  0  0  0  0  0  0
    1.8782  -14.2396    3.1484 C   0  0  0  0  0  0  0  0  0  0  0  0
    2.0781  -15.5476    2.5888 O   0  0  0  0  0  0  0  0  0  0  0  0
    2.4337  -13.4814    1.0788 O   0  0  0  0  0  0  0  0  0  0  0  0
    0.5859  -14.4019    3.7290 O   0  0  0  0  0  0  0  0  0  0  0  0
    1.7264   -4.9773    3.4771 C   0  0  0  0  0  0  0  0  0  0  0  0
    1.9317   -5.5135    4.5774 O   0  0  0  0  0  0  0  0  0  0  0  0
  1  2  1  0
  7  8  1  0
  8  9  2  0
  8 10  1  0
  1 11  1  0
 11 12  1  1
  5 13  1  0
 13 14  1  0
 14 15  1  0
 13 16  2  0
 14 17  2  0
 12 18  1  0
 18 19  2  0
 10 11  1  0
  2  3  2  0
  3  4  1  0
  4  5  2  0
  5  6  1  0
  6  7  2  0
  2  7  1  0
M  END

$$$$
No_240-/export/home/yangzhenyu/potential_scad_32_flow//YTHDC2/2024-12-06-03-22-00/
     RDKit          3D

 19 19  0  0  0  0  0  0  0  0999 V2000
    1.1787   -8.0297    3.5154 C   0  0  0  0  0  0  0  0  0  0  0  0
    1.1048   -9.2215    3.2892 C   0  0  0  0  0  0  0  0  0  0  0  0
    1.3627  -10.1721    4.3044 C   0  0  0  0  0  0  0  0  0  0  0  0
    1.7354  -11.4730    3.9023 C   0  0  0  0  0  0  0  0  0  0  0  0
    1.8080  -11.8127    2.7216 C   0  0  0  0  0  0  0  0  0  0  0  0
    1.5854  -11.0021    1.7249 C   0  0  0  0  0  0  0  0  0  0  0  0
    1.3573   -9.7389    1.9287 C   0  0  0  0  0  0  0  0  0  0  0  0
    1.2865   -8.8078    0.9161 C   0  0  0  0  0  0  0  0  0  0  0  0
    0.9210   -7.5140    1.1674 O   0  0  0  0  0  0  0  0  0  0  0  0
    1.4288   -9.1781   -0.4279 O   0  0  0  0  0  0  0  0  0  0  0  0
    2.0879  -13.2053    2.3135 C   0  0  0  0  0  0  0  0  0  0  0  0
    2.4338  -13.5839    1.0690 O   0  0  0  0  0  0  0  0  0  0  0  0
    2.3078  -14.1687    3.2219 O   0  0  0  0  0  0  0  0  0  0  0  0
    0.1324   -7.2099    3.6714 O   0  0  0  0  0  0  0  0  0  0  0  0
    2.3191   -7.2176    3.7685 O   0  0  0  0  0  0  0  0  0  0  0  0
    1.9366  -15.4710    2.8568 C   0  0  0  0  0  0  0  0  0  0  0  0
    0.5519  -15.7925    3.1103 C   0  0  0  0  0  0  0  0  0  0  0  0
   -0.3138  -15.1937    2.3809 C   0  0  0  0  0  0  0  0  0  0  0  0
   -1.5690  -15.7582    2.4226 C   0  0  0  0  0  0  0  0  0  0  0  0
  1  2  1  0
  7  8  1  0
  8  9  2  0
  8 10  1  0
  5 11  1  0
 11 12  2  0
 11 13  1  0
  1 14  2  0
  1 15  1  0
 13 16  1  0
 16 17  1  0
 17 18  1  0
 18 19  2  0
  2  3  2  0
  3  4  1  0
  4  5  2  0
  5  6  1  0
  6  7  2  0
  2  7  1  0
M  END

$$$$
No_241-/export/home/yangzhenyu/potential_scad_32_flow//YTHDC2/2024-12-06-03-22-00/
     RDKit          3D

 18 19  0  0  0  0  0  0  0  0999 V2000
    1.1787   -8.0297    3.5154 C   0  0  0  0  0  0  0  0  0  0  0  0
    1.0491   -6.8434    2.9820 C   0  0  0  0  0  0  0  0  0  0  0  0
    0.2462   -8.9560    3.0873 C   0  0  0  0  0  0  0  0  0  0  0  0
    0.3295   -6.5187    1.9069 C   0  0  0  0  0  0  0  0  0  0  0  0
   -0.5260   -8.7862    2.1368 C   0  0  0  0  0  0  0  0  0  0  0  0
   -1.4132   -9.8266    1.7693 C   0  0  0  0  0  0  0  0  0  0  0  0
   -0.5153   -7.5320    1.5099 C   0  0  0  0  0  0  0  0  0  0  0  0
   -1.1605  -11.0344    1.9581 C   0  0  0  0  0  0  0  0  0  0  0  0
    0.0819  -11.4630    2.6733 C   0  0  0  0  0  0  0  0  0  0  0  0
    0.4378  -12.8798    2.9896 C   0  0  0  0  0  0  0  0  0  0  0  0
    1.6730  -13.0354    3.5570 C   0  0  0  0  0  0  0  0  0  0  0  0
    0.4013   -5.2948    1.3353 O   0  0  0  0  0  0  0  0  0  0  0  0
    2.4851  -12.5792    2.9046 C   0  0  0  0  0  0  0  0  0  0  0  0
    1.5856  -11.2703    2.2686 C   0  0  0  0  0  0  0  0  0  0  0  0
   -1.3460   -7.1932    0.4803 C   0  0  0  0  0  0  0  0  0  0  0  0
   -1.1093   -7.6507   -0.7939 C   0  0  0  0  0  0  0  0  0  0  0  0
   -1.9651   -7.4168   -1.8599 O   0  0  0  0  0  0  0  0  0  0  0  0
   -0.0215   -8.4100   -1.1889 O   0  0  0  0  0  0  0  0  0  0  0  0
  1  3  1  0
  2  4  1  0
  5  6  1  0
  4  7  1  0
  5  7  1  0
  6  8  2  3
  8  9  1  0
  9 10  1  0
 10 11  1  0
  4 12  2  0
 11 13  1  0
  9 14  1  0
 13 14  1  0
  7 15  1  0
 15 16  1  0
 16 17  1  0
 16 18  2  0
  1  2  1  0
  3  5  1  0
M  END

$$$$
No_242-/export/home/yangzhenyu/potential_scad_32_flow//YTHDC2/2024-12-06-03-22-00/
     RDKit          3D

 15 15  0  0  0  0  0  0  0  0999 V2000
    1.1787   -8.0297    3.5154 C   0  0  0  0  0  0  0  0  0  0  0  0
    1.1048   -9.2215    3.2892 C   0  0  0  0  0  0  0  0  0  0  0  0
    1.3627  -10.1721    4.3044 C   0  0  0  0  0  0  0  0  0  0  0  0
    1.7354  -11.4730    3.9023 C   0  0  0  0  0  0  0  0  0  0  0  0
    1.8080  -11.8127    2.7216 C   0  0  0  0  0  0  0  0  0  0  0  0
    1.5854  -11.0021    1.7249 C   0  0  0  0  0  0  0  0  0  0  0  0
    1.3573   -9.7389    1.9287 C   0  0  0  0  0  0  0  0  0  0  0  0
    1.2865   -8.8078    0.9161 C   0  0  0  0  0  0  0  0  0  0  0  0
    1.6845   -9.1638   -0.2896 C   0  0  0  0  0  0  0  0  0  0  0  0
    2.0771  -13.2284    2.3629 F   0  0  0  0  0  0  0  0  0  0  0  0
    2.3025  -10.2226   -0.6428 O   0  0  0  0  0  0  0  0  0  0  0  0
    1.3145   -8.3446   -1.3103 O   0  0  0  0  0  0  0  0  0  0  0  0
    0.7375   -7.0843    3.0275 O   0  0  0  0  0  0  0  0  0  0  0  0
    2.1353   -7.5784    4.3957 O   0  0  0  0  0  0  0  0  0  0  0  0
    1.8150  -12.4770    4.9681 O   0  0  0  0  0  0  0  0  0  0  0  0
  1  2  1  0
  7  8  1  0
  8  9  2  3
  5 10  1  0
  9 11  1  0
  9 12  1  0
  1 13  2  0
  1 14  1  0
  4 15  1  0
  2  3  2  0
  3  4  1  0
  4  5  2  0
  5  6  1  0
  6  7  2  0
  2  7  1  0
M  END

$$$$
No_243-/export/home/yangzhenyu/potential_scad_32_flow//YTHDC2/2024-12-06-03-22-00/
     RDKit          3D

 19 19  0  0  0  0  0  0  0  0999 V2000
    1.1787   -8.0297    3.5154 O   0  0  0  0  0  0  0  0  0  0  0  0
    0.9969   -8.9689    3.0048 C   0  0  0  0  0  0  0  0  0  0  0  0
    1.3055  -10.1056    3.6616 C   0  0  0  0  0  0  0  0  0  0  0  0
    2.1315  -10.4529    4.2438 C   0  0  0  0  0  0  0  0  0  0  0  0
    0.4484   -8.8156    1.7225 C   0  0  0  0  0  0  0  0  0  0  0  0
   -0.0257   -7.6054    1.5545 C   0  0  0  0  0  0  0  0  0  0  0  0
    0.8214   -6.5530    1.3964 C   0  0  0  0  0  0  0  0  0  0  0  0
    0.8172   -5.5329    2.1430 N   0  0  0  0  0  0  0  0  0  0  0  0
    0.0097   -4.4738    1.7722 C   0  0  0  0  0  0  0  0  0  0  0  0
    0.0350   -3.3415    2.8227 C   0  0  0  0  0  0  0  0  0  0  0  0
    2.5277  -11.8037    4.7904 N   0  0  0  0  0  0  0  0  0  0  0  0
    1.8413   -6.6777    0.5394 O   0  0  0  0  0  0  0  0  0  0  0  0
    0.3786  -11.3378    3.3941 C   0  0  0  0  0  0  0  0  0  0  0  0
    1.2590  -12.4751    4.0265 C   0  0  0  0  0  0  0  0  0  0  0  0
    1.3218   -2.8441    3.1229 C   0  0  0  0  0  0  0  0  0  0  0  0
   -0.6512   -4.1816    0.9918 C   0  0  0  0  0  0  0  0  0  0  0  0
   -1.6787   -4.9393    0.4539 O   0  0  0  0  0  0  0  0  0  0  0  0
   -0.5584   -3.0495    0.1418 O   0  0  0  0  0  0  0  0  0  0  0  0
    1.0114  -13.7710    4.1093 N   0  0  0  0  0  0  0  0  0  0  0  0
  1  2  1  0
  2  3  1  0
  3  4  2  0
  2  5  1  0
  5  6  1  0
  6  7  1  0
  7  8  1  0
  8  9  1  0
  9 10  1  0
  4 11  1  0
  7 12  2  0
  3 13  1  0
 11 14  1  0
 13 14  2  0
 10 15  1  0
  9 16  1  0
 16 17  2  0
 16 18  1  0
 14 19  1  0
M  END

$$$$
No_244-/export/home/yangzhenyu/potential_scad_32_flow//YTHDC2/2024-12-06-03-22-00/
     RDKit          3D

 19 19  0  0  1  0  0  0  0  0999 V2000
    1.1787   -8.0297    3.5154 O   0  0  0  0  0  0  0  0  0  0  0  0
    0.6747   -7.4019    2.7838 C   0  0  0  0  0  0  0  0  0  0  0  0
    0.5570   -6.0797    2.8560 C   0  0  1  0  0  0  0  0  0  0  0  0
    1.6734   -5.4651    3.4094 O   0  0  0  0  0  0  0  0  0  0  0  0
    1.3663   -9.4799    3.3739 C   0  0  0  0  0  0  0  0  0  0  0  0
    1.8888  -10.2649    4.4382 C   0  0  0  0  0  0  0  0  0  0  0  0
    2.0181  -11.7013    4.2729 C   0  0  0  0  0  0  0  0  0  0  0  0
    1.6329  -12.1810    3.0100 C   0  0  0  0  0  0  0  0  0  0  0  0
    1.1912  -11.3802    2.0127 C   0  0  0  0  0  0  0  0  0  0  0  0
    1.1137  -10.0298    2.1878 C   0  0  0  0  0  0  0  0  0  0  0  0
    1.7539  -13.6246    2.8695 C   0  0  0  0  0  0  0  0  0  0  0  0
    2.5393  -14.1692    1.9772 O   0  0  0  0  0  0  0  0  0  0  0  0
    1.1879  -14.4797    3.6338 O   0  0  0  0  0  0  0  0  0  0  0  0
   -0.2533   -5.2499    2.3168 C   0  0  0  0  0  0  0  0  0  0  0  0
   -0.1055   -3.9296    2.1431 C   0  0  0  0  0  0  0  0  0  0  0  0
   -0.7495   -3.1589    3.0557 C   0  0  0  0  0  0  0  0  0  0  0  0
   -1.4279   -5.7674    1.8491 C   0  0  0  0  0  0  0  0  0  0  0  0
   -2.3147   -6.3559    2.7014 O   0  0  0  0  0  0  0  0  0  0  0  0
   -1.7051   -5.9059    0.5008 O   0  0  0  0  0  0  0  0  0  0  0  0
  1  2  1  0
  2  3  1  0
  3  4  1  6
  1  5  1  0
  8 11  1  0
 11 12  1  0
 11 13  2  0
  3 14  1  0
 14 15  1  0
 15 16  1  0
 14 17  1  0
 17 18  1  0
 17 19  2  0
  5  6  2  0
  6  7  1  0
  7  8  2  0
  8  9  1  0
  9 10  2  0
  5 10  1  0
M  END

$$$$
No_245-/export/home/yangzhenyu/potential_scad_32_flow//YTHDC2/2024-12-06-03-22-00/
     RDKit          3D

 20 20  0  0  0  0  0  0  0  0999 V2000
    1.1787   -8.0297    3.5154 Cl  0  0  0  0  0  0  0  0  0  0  0  0
    0.6122   -7.9650    2.5747 C   0  0  0  0  0  0  0  0  0  0  0  0
    0.4809   -9.1882    1.8138 C   0  0  0  0  0  0  0  0  0  0  0  0
    0.0192   -9.0891    0.5546 C   0  0  0  0  0  0  0  0  0  0  0  0
   -0.4655   -7.9863   -0.1524 C   0  0  0  0  0  0  0  0  0  0  0  0
   -0.3636   -6.8187    0.6504 C   0  0  0  0  0  0  0  0  0  0  0  0
    0.1144   -6.8137    1.9877 C   0  0  0  0  0  0  0  0  0  0  0  0
    0.2341   -5.5482    2.5704 C   0  0  0  0  0  0  0  0  0  0  0  0
   -0.8237   -4.7888    2.7246 N   0  0  0  0  0  0  0  0  0  0  0  0
    1.3777   -5.0353    3.2902 O   0  0  0  0  0  0  0  0  0  0  0  0
   -0.9927   -8.1363   -1.3569 C   0  0  0  0  0  0  0  0  0  0  0  0
   -0.6845   -8.7869   -2.2488 O   0  0  0  0  0  0  0  0  0  0  0  0
   -1.9661   -7.1404   -1.6709 O   0  0  0  0  0  0  0  0  0  0  0  0
    1.0182  -10.4543    2.1984 C   0  0  0  0  0  0  0  0  0  0  0  0
    0.4900  -11.5313    1.9728 C   0  0  0  0  0  0  0  0  0  0  0  0
    1.0766  -12.8799    2.2774 N   0  0  0  0  0  0  0  0  0  0  0  0
    1.0275  -13.9306    1.6668 C   0  0  0  0  0  0  0  0  0  0  0  0
    1.8521  -14.9808    1.9796 C   0  0  0  0  0  0  0  0  0  0  0  0
    1.4660  -15.7647    2.9032 C   0  0  0  0  0  0  0  0  0  0  0  0
   -1.7120   -5.0759    2.3392 H   0  0  0  0  0  0  0  0  0  0  0  0
  1  2  1  0
  7  8  1  0
  8  9  2  0
  8 10  1  0
  5 11  1  0
 11 12  2  0
 11 13  1  0
  3 14  1  0
 14 15  2  3
 15 16  1  0
 16 17  1  0
 17 18  1  0
 18 19  1  0
  2  3  2  0
  3  4  1  0
  4  5  2  0
  5  6  1  0
  6  7  2  0
  2  7  1  0
  9 20  1  0
M  END

$$$$
No_246-/export/home/yangzhenyu/potential_scad_32_flow//YTHDC2/2024-12-06-03-22-00/
     RDKit          3D

 18 17  0  0  1  0  0  0  0  0999 V2000
    1.1787   -8.0297    3.5154 C   0  0  0  0  0  0  0  0  0  0  0  0
    1.0491   -6.8434    2.9820 C   0  0  0  0  0  0  0  0  0  0  0  0
    1.9985   -8.9840    2.8958 C   0  0  0  0  0  0  0  0  0  0  0  0
    1.9135  -10.3404    3.6266 C   0  0  2  0  0  0  0  0  0  0  0  0
    2.2847  -10.5440    4.7936 C   0  0  0  0  0  0  0  0  0  0  0  0
    1.7595   -5.7666    3.2682 O   0  0  0  0  0  0  0  0  0  0  0  0
    0.4197   -6.7491    1.7715 O   0  0  0  0  0  0  0  0  0  0  0  0
    1.6465  -11.4245    2.7813 C   0  0  0  0  0  0  0  0  0  0  0  0
    1.6033  -12.6756    3.4193 C   0  0  0  0  0  0  0  0  0  0  0  0
    1.8821  -13.8063    2.6091 C   0  0  0  0  0  0  0  0  0  0  0  0
    2.4207  -13.6975    1.4396 C   0  0  0  0  0  0  0  0  0  0  0  0
    1.6870  -15.1193    3.1108 C   0  0  0  0  0  0  0  0  0  0  0  0
    1.0273  -16.0113    2.4933 O   0  0  0  0  0  0  0  0  0  0  0  0
    3.5364  -11.1062    5.1980 O   0  0  0  0  0  0  0  0  0  0  0  0
    2.2537  -12.5219    0.7410 O   0  0  0  0  0  0  0  0  0  0  0  0
    3.1274  -14.5428    0.8573 O   0  0  0  0  0  0  0  0  0  0  0  0
    1.4803  -15.2866    4.4300 O   0  0  0  0  0  0  0  0  0  0  0  0
    1.0833   -4.4751    3.1914 C   0  0  0  0  0  0  0  0  0  0  0  0
  1  2  1  0
  1  3  1  0
  4  3  1  6
  4  5  1  0
  2  6  1  0
  2  7  2  0
  4  8  1  0
  8  9  1  0
  9 10  1  0
 10 11  1  0
 10 12  1  0
 12 13  2  0
  5 14  2  0
 11 15  1  0
 11 16  2  0
 12 17  1  0
  6 18  1  0
M  END

$$$$
No_247-/export/home/yangzhenyu/potential_scad_32_flow//YTHDC2/2024-12-06-03-22-00/
     RDKit          3D

 20 20  0  0  1  0  0  0  0  0999 V2000
    1.1787   -8.0297    3.5154 C   0  0  0  0  0  0  0  0  0  0  0  0
    1.1048   -9.2215    3.2892 C   0  0  0  0  0  0  0  0  0  0  0  0
    1.2339   -9.7611    2.0189 C   0  0  0  0  0  0  0  0  0  0  0  0
    1.3583   -9.0036    0.9764 C   0  0  0  0  0  0  0  0  0  0  0  0
    1.5996   -7.6362    1.1311 C   0  0  0  0  0  0  0  0  0  0  0  0
    1.4830   -7.0928    2.3626 C   0  0  0  0  0  0  0  0  0  0  0  0
    1.4898   -5.7274    2.6199 C   0  0  0  0  0  0  0  0  0  0  0  0
    1.1681  -11.2222    1.8390 C   0  0  1  0  0  0  0  0  0  0  0  0
    0.7145  -11.5870    0.5424 C   0  0  0  0  0  0  0  0  0  0  0  0
   -0.1922  -10.9837   -0.0791 O   0  0  0  0  0  0  0  0  0  0  0  0
    1.1977  -12.7506    0.1097 O   0  0  0  0  0  0  0  0  0  0  0  0
    1.2660   -4.8638    1.6164 O   0  0  0  0  0  0  0  0  0  0  0  0
    1.7620   -5.1474    3.8041 O   0  0  0  0  0  0  0  0  0  0  0  0
    1.6586  -12.0321    2.6973 C   0  0  0  0  0  0  0  0  0  0  0  0
    0.7932  -12.8594    3.4316 C   0  0  0  0  0  0  0  0  0  0  0  0
    1.1718  -14.3188    3.2608 N   0  0  0  0  0  0  0  0  0  0  0  0
    0.9380  -15.1366    2.4912 C   0  0  1  0  0  0  0  0  0  0  0  0
   -0.2412  -15.1976    1.9778 C   0  0  0  0  0  0  0  0  0  0  0  0
    2.1296  -15.5516    1.7523 C   0  0  0  0  0  0  0  0  0  0  0  0
    3.2505  -14.9481    1.8668 N   0  0  0  0  0  0  0  0  0  0  0  0
  6  7  1  0
  3  8  1  0
  8  9  1  0
  9 10  2  0
  9 11  1  0
  7 12  2  0
  7 13  1  0
  8 14  1  6
 14 15  1  0
 15 16  1  0
 16 17  1  0
 17 18  1  6
 17 19  1  0
 19 20  1  0
  1  2  2  0
  2  3  1  0
  3  4  2  0
  4  5  1  0
  5  6  2  0
  1  6  1  0
M  END

$$$$
No_248-/export/home/yangzhenyu/potential_scad_32_flow//YTHDC2/2024-12-06-03-22-00/
     RDKit          3D

 20 21  0  0  1  0  0  0  0  0999 V2000
    1.1787   -8.0297    3.5154 C   0  0  0  0  0  0  0  0  0  0  0  0
    1.0491   -6.8434    2.9820 C   0  0  0  0  0  0  0  0  0  0  0  0
    0.2462   -8.9560    3.0873 C   0  0  0  0  0  0  0  0  0  0  0  0
    0.3295   -6.5187    1.9069 C   0  0  0  0  0  0  0  0  0  0  0  0
   -0.5260   -8.7862    2.1368 C   0  0  0  0  0  0  0  0  0  0  0  0
   -0.5458   -7.5614    1.5054 C   0  0  0  0  0  0  0  0  0  0  0  0
    0.3663  -10.3301    3.7373 C   0  0  0  0  0  0  0  0  0  0  0  0
   -0.8414  -11.0073    3.8266 C   0  0  0  0  0  0  0  0  0  0  0  0
   -1.8073  -10.7830    2.9067 C   0  0  0  0  0  0  0  0  0  0  0  0
   -1.6751   -9.6316    2.0473 C   0  0  0  0  0  0  0  0  0  0  0  0
    0.3393   -5.3345    1.1521 Cl  0  0  0  0  0  0  0  0  0  0  0  0
   -2.8603  -11.6603    2.6645 N   0  0  0  0  0  0  0  0  0  0  0  0
   -2.6135  -12.8947    2.2589 C   0  0  0  0  0  0  0  0  0  0  0  0
   -3.7570  -13.7624    2.3757 F   0  0  0  0  0  0  0  0  0  0  0  0
   -2.2333  -13.0028    0.9084 F   0  0  0  0  0  0  0  0  0  0  0  0
   -1.6321  -13.7018    3.0048 F   0  0  0  0  0  0  0  0  0  0  0  0
    1.6023  -10.6341    4.8005 C   0  0  1  0  0  0  0  0  0  0  0  0
    2.6277  -11.2986    3.9270 F   0  0  0  0  0  0  0  0  0  0  0  0
    2.0910   -9.7181    5.3743 I   0  0  0  0  0  0  0  0  0  0  0  0
    1.3519  -11.9583    5.4193 O   0  0  0  0  0  0  0  0  0  0  0  0
  4 11  1  0
  9 12  1  0
 12 13  1  0
 13 14  1  0
 13 15  1  0
 13 16  1  0
  7 17  1  0
 17 18  1  0
 17 19  1  0
 17 20  1  1
  5 10  2  0
  9 10  1  0
  8  9  2  0
  7  8  1  0
  3  7  2  0
  1  2  2  0
  2  4  1  0
  4  6  2  0
  5  6  1  0
  3  5  1  0
  1  3  1  0
M  END

$$$$
No_249-/export/home/yangzhenyu/potential_scad_32_flow//YTHDC2/2024-12-06-03-22-00/
     RDKit          3D

 20 20  0  0  1  0  0  0  0  0999 V2000
    1.1787   -8.0297    3.5154 C   0  0  0  0  0  0  0  0  0  0  0  0
    1.1048   -9.2215    3.2892 C   0  0  0  0  0  0  0  0  0  0  0  0
    1.2339   -9.7611    2.0189 C   0  0  0  0  0  0  0  0  0  0  0  0
    1.3583   -9.0036    0.9764 C   0  0  0  0  0  0  0  0  0  0  0  0
    1.5996   -7.6362    1.1311 C   0  0  0  0  0  0  0  0  0  0  0  0
    1.4830   -7.0928    2.3626 C   0  0  0  0  0  0  0  0  0  0  0  0
    1.1008  -11.2372    1.8542 C   0  0  1  0  0  0  0  0  0  0  0  0
    0.4812  -11.6084    0.6459 C   0  0  0  0  0  0  0  0  0  0  0  0
   -0.3691  -10.9312    0.0124 C   0  0  0  0  0  0  0  0  0  0  0  0
   -1.0102  -11.3797   -1.1447 C   0  0  0  0  0  0  0  0  0  0  0  0
   -1.1621  -12.7045   -1.3353 N   0  0  0  0  0  0  0  0  0  0  0  0
   -1.4145  -10.4952   -2.1512 O   0  0  0  0  0  0  0  0  0  0  0  0
    1.7017  -11.9854    2.7347 C   0  0  0  0  0  0  0  0  0  0  0  0
    1.7340  -13.4299    2.4566 Cl  0  0  0  0  0  0  0  0  0  0  0  0
    1.5273   -5.4832    2.7270 Cl  0  0  0  0  0  0  0  0  0  0  0  0
    2.3800  -11.4914    3.7953 O   0  0  0  0  0  0  0  0  0  0  0  0
   -1.3440   -9.1793   -1.7996 C   0  0  0  0  0  0  0  0  0  0  0  0
   -0.7201   -8.3975   -2.5543 C   0  0  0  0  0  0  0  0  0  0  0  0
   -0.3043   -8.7932   -3.6283 O   0  0  0  0  0  0  0  0  0  0  0  0
   -0.8444  -13.3557   -0.6316 H   0  0  0  0  0  0  0  0  0  0  0  0
  3  7  1  0
  7  8  1  0
  8  9  2  3
  9 10  1  0
 10 11  2  0
 10 12  1  0
  7 13  1  6
 13 14  1  0
  6 15  1  0
 13 16  2  0
 12 17  1  0
 17 18  1  0
 18 19  2  0
  1  2  2  0
  2  3  1  0
  3  4  2  0
  4  5  1  0
  5  6  2  0
  1  6  1  0
 11 20  1  0
M  END

$$$$
No_250-/export/home/yangzhenyu/potential_scad_32_flow//YTHDC2/2024-12-06-03-22-00/
     RDKit          3D

 19 19  0  0  1  0  0  0  0  0999 V2000
    1.1787   -8.0297    3.5154 O   0  0  0  0  0  0  0  0  0  0  0  0
    0.6747   -7.4019    2.7838 C   0  0  0  0  0  0  0  0  0  0  0  0
    0.5570   -6.0797    2.8560 C   0  0  2  0  0  0  0  0  0  0  0  0
    1.6734   -5.4651    3.4094 C   0  0  0  0  0  0  0  0  0  0  0  0
    1.4143   -9.4928    3.3921 C   0  0  0  0  0  0  0  0  0  0  0  0
    1.8565  -10.2582    4.4918 O   0  0  0  0  0  0  0  0  0  0  0  0
    1.7255  -10.1501    2.1580 C   0  0  0  0  0  0  0  0  0  0  0  0
    1.8320   -9.3660    1.0729 C   0  0  0  0  0  0  0  0  0  0  0  0
    1.7866  -10.0916   -0.1224 C   0  0  0  0  0  0  0  0  0  0  0  0
    1.1732  -11.1997   -0.0070 C   0  0  0  0  0  0  0  0  0  0  0  0
    0.9024  -11.9357    1.0703 C   0  0  0  0  0  0  0  0  0  0  0  0
    1.1869  -11.2540    2.3728 C   0  0  0  0  0  0  0  0  0  0  0  0
   -0.4828   -5.2568    2.5940 C   0  0  0  0  0  0  0  0  0  0  0  0
   -1.5459   -5.8785    2.4727 C   0  0  0  0  0  0  0  0  0  0  0  0
   -2.2253   -6.3266    3.6322 O   0  0  0  0  0  0  0  0  0  0  0  0
   -2.3578   -6.0717    1.3781 O   0  0  0  0  0  0  0  0  0  0  0  0
    1.9363   -9.2835   -1.2766 O   0  0  0  0  0  0  0  0  0  0  0  0
    0.4221  -13.3278    1.0084 C   0  0  0  0  0  0  0  0  0  0  0  0
   -0.8068  -13.5429    0.4991 C   0  0  0  0  0  0  0  0  0  0  0  0
  1  2  1  0
  2  3  1  0
  3  4  1  1
  1  5  1  0
  5  6  2  0
  5  7  1  0
  3 13  1  0
 13 14  1  0
 14 15  1  0
 14 16  2  0
  9 17  1  0
 11 18  1  0
 18 19  1  0
  7  8  2  0
  8  9  1  0
  9 10  2  0
 10 11  1  0
 11 12  2  0
  7 12  1  0
M  END

$$$$
No_251-/export/home/yangzhenyu/potential_scad_32_flow//YTHDC2/2024-12-06-03-22-00/
     RDKit          3D

 20 21  0  0  1  0  0  0  0  0999 V2000
    1.1787   -8.0297    3.5154 C   0  0  0  0  0  0  0  0  0  0  0  0
    1.0491   -6.8434    2.9820 C   0  0  0  0  0  0  0  0  0  0  0  0
    0.9905   -9.0774    2.6527 C   0  0  0  0  0  0  0  0  0  0  0  0
    1.1655  -10.4663    3.1286 C   0  0  2  0  0  0  0  0  0  0  0  0
    1.7409  -10.6480    4.4599 C   0  0  0  0  0  0  0  0  0  0  0  0
    0.4783   -6.4688    1.7590 C   0  0  0  0  0  0  0  0  0  0  0  0
    0.2119   -7.5787    0.9640 C   0  0  0  0  0  0  0  0  0  0  0  0
    0.4248   -8.8744    1.3136 C   0  0  0  0  0  0  0  0  0  0  0  0
    1.0421  -11.5142    2.2935 C   0  0  0  0  0  0  0  0  0  0  0  0
    1.8175  -11.6406    1.2839 C   0  0  0  0  0  0  0  0  0  0  0  0
   -0.3659   -7.3820   -0.2267 C   0  0  0  0  0  0  0  0  0  0  0  0
   -1.3636   -6.5895   -0.4682 C   0  0  0  0  0  0  0  0  0  0  0  0
   -1.8691   -6.3493   -1.8478 N   0  0  0  0  0  0  0  0  0  0  0  0
   -1.3331   -7.3364   -2.6706 C   0  0  0  0  0  0  0  0  0  0  0  0
   -0.4375   -8.1756   -1.8065 N   0  0  0  0  0  0  0  0  0  0  0  0
   -1.3393   -7.7720   -3.7738 O   0  0  0  0  0  0  0  0  0  0  0  0
    1.7102  -12.8899    0.6370 O   0  0  0  0  0  0  0  0  0  0  0  0
    0.0775  -12.3516    2.6383 C   0  0  0  0  0  0  0  0  0  0  0  0
    0.5460  -13.7650    2.4497 Cl  0  0  0  0  0  0  0  0  0  0  0  0
    2.7212  -10.8831    0.7208 O   0  0  0  0  0  0  0  0  0  0  0  0
  3  4  1  0
  4  5  1  6
  4  9  1  0
  9 10  1  0
  7 11  1  0
 11 12  2  0
 12 13  1  0
 13 14  1  0
 11 15  1  0
 14 15  1  0
 14 16  2  0
 10 17  1  0
  9 18  1  0
 18 19  1  0
 10 20  2  0
  1  2  2  0
  2  6  1  0
  6  7  2  0
  7  8  1  0
  3  8  2  0
  1  3  1  0
M  END

$$$$
No_252-/export/home/yangzhenyu/potential_scad_32_flow//YTHDC2/2024-12-06-03-22-00/
     RDKit          3D

 18 20  0  0  0  0  0  0  0  0999 V2000
    1.1787   -8.0297    3.5154 C   0  0  0  0  0  0  0  0  0  0  0  0
    1.0491   -6.8434    2.9820 C   0  0  0  0  0  0  0  0  0  0  0  0
    0.2462   -8.9560    3.0873 C   0  0  0  0  0  0  0  0  0  0  0  0
    0.3295   -6.5187    1.9069 C   0  0  0  0  0  0  0  0  0  0  0  0
   -0.5260   -8.7862    2.1368 C   0  0  0  0  0  0  0  0  0  0  0  0
   -0.5458   -7.5614    1.5054 C   0  0  0  0  0  0  0  0  0  0  0  0
    0.3636   -5.3203    1.2895 C   0  0  0  0  0  0  0  0  0  0  0  0
   -0.5231   -4.8795    0.5041 N   0  0  0  0  0  0  0  0  0  0  0  0
    1.5403   -4.5182    1.3822 O   0  0  0  0  0  0  0  0  0  0  0  0
    0.3698  -10.3460    3.6599 C   0  0  0  0  0  0  0  0  0  0  0  0
   -0.7359  -11.1166    3.7547 C   0  0  0  0  0  0  0  0  0  0  0  0
    1.6566  -10.7511    4.2809 C   0  0  0  0  0  0  0  0  0  0  0  0
    1.8966  -12.0372    4.5068 C   0  0  0  0  0  0  0  0  0  0  0  0
   -0.5476  -12.4505    4.0365 C   0  0  0  0  0  0  0  0  0  0  0  0
    0.8062  -12.9449    4.3075 C   0  0  0  0  0  0  0  0  0  0  0  0
    1.0212  -14.2386    4.3717 O   0  0  0  0  0  0  0  0  0  0  0  0
    1.0948   -3.2474    0.9707 C   0  0  0  0  0  0  0  0  0  0  0  0
   -0.0837   -3.5224    0.3273 C   0  0  0  0  0  0  0  0  0  0  0  0
  4  7  1  0
  7  8  2  0
  7  9  1  0
  3 10  1  0
 10 12  1  0
 11 14  1  0
 13 15  1  0
 14 15  1  0
 15 16  2  0
  9 17  1  0
  8 18  1  0
 17 18  2  0
 12 13  1  0
 10 11  1  0
  1  2  2  0
  2  4  1  0
  4  6  2  0
  5  6  1  0
  3  5  2  0
  1  3  1  0
M  END

$$$$
No_253-/export/home/yangzhenyu/potential_scad_32_flow//YTHDC2/2024-12-06-03-22-00/
     RDKit          3D

 18 18  0  0  0  0  0  0  0  0999 V2000
    1.1787   -8.0297    3.5154 C   0  0  0  0  0  0  0  0  0  0  0  0
    1.1048   -9.2215    3.2892 C   0  0  0  0  0  0  0  0  0  0  0  0
    1.3627  -10.1721    4.3044 C   0  0  0  0  0  0  0  0  0  0  0  0
    1.7354  -11.4730    3.9023 C   0  0  0  0  0  0  0  0  0  0  0  0
    1.8080  -11.8127    2.7216 C   0  0  0  0  0  0  0  0  0  0  0  0
    1.5854  -11.0021    1.7249 C   0  0  0  0  0  0  0  0  0  0  0  0
    1.3573   -9.7389    1.9287 C   0  0  0  0  0  0  0  0  0  0  0  0
    1.2865   -8.8078    0.9161 C   0  0  0  0  0  0  0  0  0  0  0  0
    1.6845   -9.1638   -0.2896 C   0  0  0  0  0  0  0  0  0  0  0  0
    2.0771  -13.2284    2.3629 C   0  0  0  0  0  0  0  0  0  0  0  0
    1.8625  -14.2425    3.1385 O   0  0  0  0  0  0  0  0  0  0  0  0
    2.1254  -13.5688    1.0269 O   0  0  0  0  0  0  0  0  0  0  0  0
    1.6261   -8.1253   -1.3717 O   0  0  0  0  0  0  0  0  0  0  0  0
    0.1028   -7.2278    3.3553 O   0  0  0  0  0  0  0  0  0  0  0  0
    2.1918   -7.2145    3.9141 I   0  0  0  0  0  0  0  0  0  0  0  0
    1.9199  -10.2310   -0.7253 O   0  0  0  0  0  0  0  0  0  0  0  0
    1.9906  -15.5329    2.6760 C   0  0  0  0  0  0  0  0  0  0  0  0
    3.2154  -15.9703    2.2979 O   0  0  0  0  0  0  0  0  0  0  0  0
  1  2  1  0
  7  8  1  0
  8  9  2  3
  5 10  1  0
 10 11  1  0
 10 12  2  0
  9 13  1  0
  1 14  2  0
  1 15  1  0
  9 16  1  0
 11 17  1  0
 17 18  2  0
  2  3  2  0
  3  4  1  0
  4  5  2  0
  5  6  1  0
  6  7  2  0
  2  7  1  0
M  END

$$$$
No_254-/export/home/yangzhenyu/potential_scad_32_flow//YTHDC2/2024-12-06-03-22-00/
     RDKit          3D

 18 18  0  0  1  0  0  0  0  0999 V2000
    1.1787   -8.0297    3.5154 C   0  0  0  0  0  0  0  0  0  0  0  0
    1.1048   -9.2215    3.2892 C   0  0  0  0  0  0  0  0  0  0  0  0
    1.2339   -9.7611    2.0189 C   0  0  0  0  0  0  0  0  0  0  0  0
    1.3583   -9.0036    0.9764 C   0  0  0  0  0  0  0  0  0  0  0  0
    1.5996   -7.6362    1.1311 C   0  0  0  0  0  0  0  0  0  0  0  0
    1.4830   -7.0928    2.3626 C   0  0  0  0  0  0  0  0  0  0  0  0
    1.4898   -5.7274    2.6199 C   0  0  1  0  0  0  0  0  0  0  0  0
    1.1681  -11.2222    1.8390 C   0  0  1  0  0  0  0  0  0  0  0  0
    0.7145  -11.5870    0.5424 C   0  0  0  0  0  0  0  0  0  0  0  0
   -0.1922  -10.9837   -0.0791 O   0  0  0  0  0  0  0  0  0  0  0  0
    1.1977  -12.7506    0.1097 O   0  0  0  0  0  0  0  0  0  0  0  0
    1.6816   -5.1770    3.8597 Br  0  0  0  0  0  0  0  0  0  0  0  0
    1.6612  -12.0250    2.6889 C   0  0  0  0  0  0  0  0  0  0  0  0
    0.9016  -12.6619    3.5851 C   0  0  0  0  0  0  0  0  0  0  0  0
   -0.2607  -12.3604    3.6786 O   0  0  0  0  0  0  0  0  0  0  0  0
    1.3270  -13.5929    4.4022 O   0  0  0  0  0  0  0  0  0  0  0  0
    1.7021   -4.9088    1.4327 C   0  0  0  0  0  0  0  0  0  0  0  0
    0.6001   -4.7035    0.7022 O   0  0  0  0  0  0  0  0  0  0  0  0
  6  7  1  0
  3  8  1  0
  8  9  1  0
  9 10  2  0
  9 11  1  0
  7 12  1  1
  8 13  1  6
 13 14  1  0
 14 15  2  0
 14 16  1  0
  7 17  1  0
 17 18  2  0
  1  2  2  0
  2  3  1  0
  3  4  2  0
  4  5  1  0
  5  6  2  0
  1  6  1  0
M  END

$$$$
No_255-/export/home/yangzhenyu/potential_scad_32_flow//YTHDC2/2024-12-06-03-22-00/
     RDKit          3D

 18 18  0  0  1  0  0  0  0  0999 V2000
    1.1787   -8.0297    3.5154 O   0  0  0  0  0  0  0  0  0  0  0  0
    0.9969   -8.9689    3.0048 P   0  0  2  0  0  0  0  0  0  0  0  0
    1.5314  -10.0495    3.7638 O   0  0  0  0  0  0  0  0  0  0  0  0
    1.7916   -9.0870    1.6032 O   0  0  0  0  0  0  0  0  0  0  0  0
   -0.5362   -9.2595    2.7532 C   0  0  0  0  0  0  0  0  0  0  0  0
   -1.3261   -8.6079    3.6980 C   0  0  0  0  0  0  0  0  0  0  0  0
   -2.3299   -7.5594    3.4987 C   0  0  0  0  0  0  0  0  0  0  0  0
   -3.1707   -7.2471    4.5193 O   0  0  0  0  0  0  0  0  0  0  0  0
   -2.2394   -6.8919    2.4684 O   0  0  0  0  0  0  0  0  0  0  0  0
    1.3181  -11.5701    3.8318 C   0  0  0  0  0  0  0  0  0  0  0  0
    1.6244  -12.1645    2.6051 C   0  0  0  0  0  0  0  0  0  0  0  0
    0.9877  -13.3694    2.1749 C   0  0  1  0  0  0  0  0  0  0  0  0
   -0.2070  -13.0565    1.7393 C   0  0  0  0  0  0  0  0  0  0  0  0
   -0.8766  -14.0994    1.1759 C   0  0  0  0  0  0  0  0  0  0  0  0
   -0.3006  -15.2916    0.9767 C   0  0  0  0  0  0  0  0  0  0  0  0
    0.9602  -15.5197    1.4147 C   0  0  0  0  0  0  0  0  0  0  0  0
    1.6651  -14.4949    2.0305 C   0  0  0  0  0  0  0  0  0  0  0  0
    2.9234  -14.6424    2.3483 O   0  0  0  0  0  0  0  0  0  0  0  0
  2  1  1  1
  2  3  1  0
  2  4  2  0
  2  5  1  0
  5  6  1  0
  6  7  1  0
  7  8  1  0
  7  9  2  0
  3 10  1  0
 10 11  1  0
 12 11  1  6
 12 13  1  0
 14 15  1  0
 12 17  1  0
 16 17  1  0
 17 18  2  0
 13 14  1  0
 15 16  1  0
M  END

$$$$
No_256-/export/home/yangzhenyu/potential_scad_32_flow//YTHDC2/2024-12-06-03-22-00/
     RDKit          3D

 19 20  0  0  1  0  0  0  0  0999 V2000
    1.1787   -8.0297    3.5154 C   0  0  0  0  0  0  0  0  0  0  0  0
    1.0491   -6.8434    2.9820 C   0  0  0  0  0  0  0  0  0  0  0  0
    0.0950   -8.8404    3.2292 C   0  0  0  0  0  0  0  0  0  0  0  0
   -0.9173   -8.4596    2.5152 C   0  0  0  0  0  0  0  0  0  0  0  0
   -1.0331   -7.2162    2.0653 C   0  0  0  0  0  0  0  0  0  0  0  0
   -0.0105   -6.3168    2.3081 C   0  0  0  0  0  0  0  0  0  0  0  0
    0.1150   -4.9910    1.8495 C   0  0  0  0  0  0  0  0  0  0  0  0
   -0.5774   -4.1593    2.0596 N   0  0  0  0  0  0  0  0  0  0  0  0
    0.1754  -10.2880    3.6908 C   0  0  2  0  0  0  0  0  0  0  0  0
   -1.0687  -10.9513    3.8353 C   0  0  0  0  0  0  0  0  0  0  0  0
    1.4125  -10.9499    4.0238 C   0  0  1  0  0  0  0  0  0  0  0  0
    1.4837  -12.2981    4.1227 C   0  0  0  0  0  0  0  0  0  0  0  0
    0.3373  -13.0153    3.9467 C   0  0  0  0  0  0  0  0  0  0  0  0
   -0.9170  -12.3508    3.8720 C   0  0  0  0  0  0  0  0  0  0  0  0
    1.1056   -4.6662    0.9326 O   0  0  0  0  0  0  0  0  0  0  0  0
    0.4023  -14.3577    4.1827 O   0  0  0  0  0  0  0  0  0  0  0  0
    2.6218  -10.2433    3.9144 O   0  0  0  0  0  0  0  0  0  0  0  0
    1.4954   -3.4025    1.1598 C   0  0  0  0  0  0  0  0  0  0  0  0
   -1.3629   -4.3002    2.6786 H   0  0  0  0  0  0  0  0  0  0  0  0
  6  7  1  0
  7  8  2  0
  9  3  1  1
  9 11  1  0
 12 13  1  0
 10 14  1  0
 13 14  1  0
  7 15  1  0
 13 16  2  0
 11 17  1  6
 15 18  1  0
 11 12  1  0
  9 10  1  0
  1  2  2  0
  2  6  1  0
  5  6  2  0
  4  5  1  0
  3  4  2  0
  1  3  1  0
  8 19  1  0
M  END

$$$$
No_257-/export/home/yangzhenyu/potential_scad_32_flow//YTHDC2/2024-12-06-03-22-00/
     RDKit          3D

 18 18  0  0  1  0  0  0  0  0999 V2000
    1.1787   -8.0297    3.5154 P   0  0  0  0  0  0  0  0  0  0  0  0
    1.2030   -9.2736    3.3536 O   0  0  0  0  0  0  0  0  0  0  0  0
    2.2726   -7.2253    3.0302 O   0  0  0  0  0  0  0  0  0  0  0  0
    0.7118   -7.4591    4.7811 O   0  0  0  0  0  0  0  0  0  0  0  0
   -0.1351   -7.5837    2.4234 C   0  0  0  0  0  0  0  0  0  0  0  0
   -0.1367   -7.5088    1.3700 C   0  0  0  0  0  0  0  0  0  0  0  0
   -0.6747   -8.1965    0.4776 C   0  0  2  0  0  0  0  0  0  0  0  0
   -0.2267   -8.7631   -0.7554 C   0  0  0  0  0  0  0  0  0  0  0  0
    1.1563   -8.8121   -0.8750 O   0  0  0  0  0  0  0  0  0  0  0  0
   -0.8110   -9.2021   -1.6869 O   0  0  0  0  0  0  0  0  0  0  0  0
   -2.0587   -8.3973    0.6023 C   0  0  0  0  0  0  0  0  0  0  0  0
   -2.6791   -9.5876    0.9902 C   0  0  0  0  0  0  0  0  0  0  0  0
   -2.0387  -10.5090    1.5683 C   0  0  0  0  0  0  0  0  0  0  0  0
   -2.2578  -10.9438    2.7815 C   0  0  0  0  0  0  0  0  0  0  0  0
   -1.5711  -12.0927    3.4075 C   0  0  0  0  0  0  0  0  0  0  0  0
   -0.6798  -12.6967    2.6841 C   0  0  0  0  0  0  0  0  0  0  0  0
   -0.3117  -12.2845    1.4255 C   0  0  0  0  0  0  0  0  0  0  0  0
   -0.9707  -11.2885    0.7836 C   0  0  0  0  0  0  0  0  0  0  0  0
  1  2  1  0
  1  3  1  0
  1  4  2  0
  1  5  1  0
  5  6  1  0
  7  6  1  6
  7  8  1  0
  8  9  2  0
  8 10  1  0
  7 11  1  0
 11 12  1  0
 12 13  1  0
 13 14  2  0
 14 15  1  0
 15 16  2  0
 16 17  1  0
 17 18  2  0
 13 18  1  0
M  END

$$$$
No_258-/export/home/yangzhenyu/potential_scad_32_flow//YTHDC2/2024-12-06-03-22-00/
     RDKit          3D

 18 18  0  0  0  0  0  0  0  0999 V2000
    1.1787   -8.0297    3.5154 C   0  0  0  0  0  0  0  0  0  0  0  0
    1.1048   -9.2215    3.2892 C   0  0  0  0  0  0  0  0  0  0  0  0
    1.3627  -10.1721    4.3044 C   0  0  0  0  0  0  0  0  0  0  0  0
    1.7354  -11.4730    3.9023 C   0  0  0  0  0  0  0  0  0  0  0  0
    1.8080  -11.8127    2.7216 C   0  0  0  0  0  0  0  0  0  0  0  0
    1.5854  -11.0021    1.7249 C   0  0  0  0  0  0  0  0  0  0  0  0
    1.3573   -9.7389    1.9287 C   0  0  0  0  0  0  0  0  0  0  0  0
    1.2865   -8.8078    0.9161 C   0  0  0  0  0  0  0  0  0  0  0  0
    1.6845   -9.1638   -0.2896 C   0  0  0  0  0  0  0  0  0  0  0  0
    2.0771  -13.2284    2.3629 C   0  0  0  0  0  0  0  0  0  0  0  0
    2.4409  -13.5750    1.0743 O   0  0  0  0  0  0  0  0  0  0  0  0
    2.0821  -14.1980    3.2340 O   0  0  0  0  0  0  0  0  0  0  0  0
    1.6355   -8.1272   -1.3715 O   0  0  0  0  0  0  0  0  0  0  0  0
    2.2430   -7.2039    3.6345 N   0  0  0  0  0  0  0  0  0  0  0  0
   -0.0393   -7.3655    3.5865 O   0  0  0  0  0  0  0  0  0  0  0  0
    2.1902  -10.1958   -0.6555 O   0  0  0  0  0  0  0  0  0  0  0  0
    2.1110  -15.4980    2.7618 C   0  0  0  0  0  0  0  0  0  0  0  0
    0.9569  -16.2298    2.8842 C   0  0  0  0  0  0  0  0  0  0  0  0
  1  2  1  0
  7  8  1  0
  8  9  2  3
  5 10  1  0
 10 11  2  0
 10 12  1  0
  9 13  1  0
  1 14  1  0
  1 15  2  0
  9 16  1  0
 12 17  1  0
 17 18  1  0
  2  3  2  0
  3  4  1  0
  4  5  2  0
  5  6  1  0
  6  7  2  0
  2  7  1  0
M  END

$$$$
No_259-/export/home/yangzhenyu/potential_scad_32_flow//YTHDC2/2024-12-06-03-22-00/
     RDKit          3D

 20 21  0  0  0  0  0  0  0  0999 V2000
    1.1787   -8.0297    3.5154 C   0  0  0  0  0  0  0  0  0  0  0  0
    1.0491   -6.8434    2.9820 C   0  0  0  0  0  0  0  0  0  0  0  0
    0.9905   -9.0774    2.6527 C   0  0  0  0  0  0  0  0  0  0  0  0
    0.7897   -8.9519    1.3691 C   0  0  0  0  0  0  0  0  0  0  0  0
    0.7018   -7.7198    0.7892 C   0  0  0  0  0  0  0  0  0  0  0  0
    0.8918   -6.5957    1.6117 C   0  0  0  0  0  0  0  0  0  0  0  0
    1.0600  -10.5680    3.3321 C   0  0  0  0  0  0  0  0  0  0  0  0
    2.1422  -11.0089    3.6867 C   0  0  0  0  0  0  0  0  0  0  0  0
    0.8986   -5.2530    1.1685 S   0  0  0  0  0  0  0  0  0  0  0  0
   -0.0592  -11.2213    3.4627 C   0  0  0  0  0  0  0  0  0  0  0  0
   -0.1852  -12.4526    3.1650 C   0  0  0  0  0  0  0  0  0  0  0  0
    2.2204  -12.4480    3.8164 C   0  0  0  0  0  0  0  0  0  0  0  0
    1.0812  -13.1715    3.5172 C   0  0  0  0  0  0  0  0  0  0  0  0
    1.2095  -14.5574    3.4480 O   0  0  0  0  0  0  0  0  0  0  0  0
   -0.3289   -4.7687    0.6759 O   0  0  0  0  0  0  0  0  0  0  0  0
    1.9857   -5.0389    0.1504 O   0  0  0  0  0  0  0  0  0  0  0  0
    0.6055  -10.0765    0.4425 Cl  0  0  0  0  0  0  0  0  0  0  0  0
    3.2885  -10.3481    3.9076 O   0  0  0  0  0  0  0  0  0  0  0  0
   -1.4503  -10.5804    3.2617 O   0  0  0  0  0  0  0  0  0  0  0  0
   -2.0437  -10.1758    4.5268 C   0  0  0  0  0  0  0  0  0  0  0  0
  1  2  1  0
  1  3  2  0
  3  4  1  0
  4  5  2  0
  2  6  1  0
  5  6  1  0
  3  7  1  0
  7  8  1  0
  6  9  2  0
  7 10  1  0
 10 11  2  0
  8 12  1  0
 11 13  1  0
 12 13  1  0
 13 14  2  0
  9 15  2  0
  9 16  2  0
  4 17  1  0
  8 18  2  0
 10 19  1  0
 19 20  1  0
M  END

$$$$
No_260-/export/home/yangzhenyu/potential_scad_32_flow//YTHDC2/2024-12-06-03-22-00/
     RDKit          3D

 20 21  0  0  1  0  0  0  0  0999 V2000
    1.1787   -8.0297    3.5154 C   0  0  0  0  0  0  0  0  0  0  0  0
    1.0491   -6.8434    2.9820 C   0  0  0  0  0  0  0  0  0  0  0  0
    0.0950   -8.8404    3.2292 C   0  0  0  0  0  0  0  0  0  0  0  0
   -0.9173   -8.4596    2.5152 C   0  0  0  0  0  0  0  0  0  0  0  0
   -1.0331   -7.2162    2.0653 C   0  0  0  0  0  0  0  0  0  0  0  0
   -0.0105   -6.3168    2.3081 C   0  0  0  0  0  0  0  0  0  0  0  0
    0.1465  -10.2446    3.6981 C   0  0  0  0  0  0  0  0  0  0  0  0
    1.2433  -10.8239    4.0166 C   0  0  0  0  0  0  0  0  0  0  0  0
    1.0790  -12.2885    4.3779 N   0  0  0  0  0  0  0  0  0  0  0  0
    0.0124  -12.7573    3.8993 C   0  0  0  0  0  0  0  0  0  0  0  0
   -0.6559  -11.3969    3.4669 N   0  0  0  0  0  0  0  0  0  0  0  0
   -0.0469   -4.8285    1.7881 O   0  0  0  0  0  0  0  0  0  0  0  0
    0.8693   -4.0003    2.3267 C   0  0  0  0  0  0  0  0  0  0  0  0
    2.5027  -10.2768    4.5069 N   0  0  0  0  0  0  0  0  0  0  0  0
   -2.3508   -6.6166    1.3503 C   0  0  0  0  0  0  0  0  0  0  0  0
   -2.0976   -6.5180   -0.0534 C   0  0  2  0  0  0  0  0  0  0  0  0
   -2.4580   -5.3269   -0.4927 C   0  0  0  0  0  0  0  0  0  0  0  0
   -2.9015   -4.4164    0.3551 O   0  0  0  0  0  0  0  0  0  0  0  0
   -2.0855   -4.9047   -1.7412 O   0  0  0  0  0  0  0  0  0  0  0  0
   -1.7256   -7.5394   -0.8618 C   0  0  0  0  0  0  0  0  0  0  0  0
  3  7  1  0
  7  8  2  0
  8  9  1  0
  9 10  2  0
  7 11  1  0
 10 11  1  0
  6 12  1  0
 12 13  1  0
  8 14  1  0
  5 15  1  0
 15 16  1  0
 16 17  1  0
 17 18  1  0
 17 19  2  0
 16 20  1  6
  1  2  2  0
  2  6  1  0
  5  6  2  0
  4  5  1  0
  3  4  2  0
  1  3  1  0
M  END

$$$$
No_261-/export/home/yangzhenyu/potential_scad_32_flow//YTHDC2/2024-12-06-03-22-00/
     RDKit          3D

 17 17  0  0  1  0  0  0  0  0999 V2000
    1.1787   -8.0297    3.5154 C   0  0  0  0  0  0  0  0  0  0  0  0
    1.0491   -6.8434    2.9820 C   0  0  0  0  0  0  0  0  0  0  0  0
    0.0950   -8.8404    3.2292 C   0  0  0  0  0  0  0  0  0  0  0  0
   -0.9173   -8.4596    2.5152 C   0  0  0  0  0  0  0  0  0  0  0  0
   -1.0331   -7.2162    2.0653 C   0  0  0  0  0  0  0  0  0  0  0  0
   -0.0105   -6.3168    2.3081 C   0  0  0  0  0  0  0  0  0  0  0  0
    0.1465  -10.2446    3.6981 C   0  0  1  0  0  0  0  0  0  0  0  0
    1.2433  -10.8239    4.0166 C   0  0  0  0  0  0  0  0  0  0  0  0
    1.1033  -12.2936    4.0346 P   0  0  1  0  0  0  0  0  0  0  0  0
    0.6730  -12.5662    2.4523 O   0  0  0  0  0  0  0  0  0  0  0  0
    2.4800  -12.9767    4.0656 O   0  0  0  0  0  0  0  0  0  0  0  0
   -0.0169   -4.8551    1.7710 O   0  0  0  0  0  0  0  0  0  0  0  0
   -0.8804   -4.4627    1.0939 C   0  0  0  0  0  0  0  0  0  0  0  0
   -0.4878   -3.0982    0.6320 C   0  0  0  0  0  0  0  0  0  0  0  0
   -0.5063   -2.7943   -0.6822 O   0  0  0  0  0  0  0  0  0  0  0  0
   -0.0351   -2.1522    1.4483 O   0  0  0  0  0  0  0  0  0  0  0  0
   -1.1080  -10.6966    4.2796 C   0  0  0  0  0  0  0  0  0  0  0  0
  3  7  1  0
  7  8  1  0
  8  9  1  0
  9 10  2  0
  9 11  1  6
  6 12  1  0
 12 13  1  0
 13 14  1  0
 14 15  2  0
 14 16  1  0
  7 17  1  1
  1  2  2  0
  2  6  1  0
  5  6  2  0
  4  5  1  0
  3  4  2  0
  1  3  1  0
M  END

$$$$
No_262-/export/home/yangzhenyu/potential_scad_32_flow//YTHDC2/2024-12-06-03-22-00/
     RDKit          3D

 18 17  0  0  1  0  0  0  0  0999 V2000
    1.1787   -8.0297    3.5154 O   0  0  0  0  0  0  0  0  0  0  0  0
    0.6747   -7.4019    2.7838 C   0  0  0  0  0  0  0  0  0  0  0  0
    0.7594   -8.0032    1.4295 C   0  0  0  0  0  0  0  0  0  0  0  0
    0.3459   -9.1500    1.3581 C   0  0  2  0  0  0  0  0  0  0  0  0
    1.1876  -10.0065    2.0240 C   0  0  0  0  0  0  0  0  0  0  0  0
    1.0116  -11.4692    2.0236 C   0  0  0  0  0  0  0  0  0  0  0  0
    1.8830  -12.3152    2.6151 C   0  0  0  0  0  0  0  0  0  0  0  0
    1.3161  -13.2055    3.3781 C   0  0  0  0  0  0  0  0  0  0  0  0
    1.5994  -14.6011    2.7541 C   0  0  0  0  0  0  0  0  0  0  0  0
    2.5472  -14.6349    1.7779 O   0  0  0  0  0  0  0  0  0  0  0  0
    1.1708  -15.7472    3.1613 O   0  0  0  0  0  0  0  0  0  0  0  0
    0.4246   -6.1807    3.1073 O   0  0  0  0  0  0  0  0  0  0  0  0
    0.1224   -9.5419   -0.1922 C   0  0  0  0  0  0  0  0  0  0  0  0
    0.7029   -9.5551   -1.0894 C   0  0  0  0  0  0  0  0  0  0  0  0
    0.2355   -9.1799   -2.3182 O   0  0  0  0  0  0  0  0  0  0  0  0
    2.0435   -9.5249   -1.0805 O   0  0  0  0  0  0  0  0  0  0  0  0
   -1.3390   -9.9136   -0.2539 C   0  0  0  0  0  0  0  0  0  0  0  0
   -1.7400  -11.2154   -0.4437 C   0  0  0  0  0  0  0  0  0  0  0  0
  1  2  1  0
  2  3  1  0
  4  3  1  6
  4  5  1  0
  5  6  1  0
  6  7  1  0
  7  8  1  0
  8  9  1  0
  9 10  1  0
  9 11  2  0
  2 12  2  0
  4 13  1  0
 13 14  1  0
 14 15  2  0
 14 16  1  0
 13 17  1  0
 17 18  1  0
M  END

$$$$
No_263-/export/home/yangzhenyu/potential_scad_32_flow//YTHDC2/2024-12-06-03-22-00/
     RDKit          3D

 18 19  0  0  0  0  0  0  0  0999 V2000
    1.1787   -8.0297    3.5154 C   0  0  0  0  0  0  0  0  0  0  0  0
    1.0491   -6.8434    2.9820 C   0  0  0  0  0  0  0  0  0  0  0  0
    0.9905   -9.0774    2.6527 C   0  0  0  0  0  0  0  0  0  0  0  0
    0.7897   -8.9519    1.3691 C   0  0  0  0  0  0  0  0  0  0  0  0
    0.6550  -10.0985    0.4848 C   0  0  0  0  0  0  0  0  0  0  0  0
    0.7849   -6.5836    1.6043 C   0  0  0  0  0  0  0  0  0  0  0  0
    0.6652   -7.6671    0.8008 C   0  0  0  0  0  0  0  0  0  0  0  0
    0.0083   -9.7878   -0.7706 O   0  0  0  0  0  0  0  0  0  0  0  0
    0.9726  -11.1738    0.6321 O   0  0  0  0  0  0  0  0  0  0  0  0
    1.2335  -10.6240    3.2999 N   0  0  0  0  0  0  0  0  0  0  0  0
    2.6053  -10.9799    3.5557 C   0  0  0  0  0  0  0  0  0  0  0  0
    0.1465  -11.2344    3.6920 C   0  0  0  0  0  0  0  0  0  0  0  0
    2.6762  -12.0253    4.5596 C   0  0  0  0  0  0  0  0  0  0  0  0
    0.7329   -5.2610    1.1196 Cl  0  0  0  0  0  0  0  0  0  0  0  0
    0.3292  -12.6482    3.8797 C   0  0  0  0  0  0  0  0  0  0  0  0
    1.7028  -13.0542    4.3086 N   0  0  0  0  0  0  0  0  0  0  0  0
   -0.5064  -13.4322    3.5182 O   0  0  0  0  0  0  0  0  0  0  0  0
   -1.1398  -10.8799    3.3684 O   0  0  0  0  0  0  0  0  0  0  0  0
  4  5  1  0
  5  8  1  0
  5  9  2  0
  3 10  1  0
 10 11  1  0
 10 12  1  0
 11 13  1  0
  6 14  1  0
 12 15  1  0
 13 16  1  0
 15 16  1  0
 15 17  2  0
 12 18  2  0
  1  2  2  0
  2  6  1  0
  6  7  2  0
  4  7  1  0
  3  4  2  0
  1  3  1  0
M  END

$$$$
No_264-/export/home/yangzhenyu/potential_scad_32_flow//YTHDC2/2024-12-06-03-22-00/
     RDKit          3D

 19 19  0  0  1  0  0  0  0  0999 V2000
    1.1787   -8.0297    3.5154 C   0  0  0  0  0  0  0  0  0  0  0  0
    1.0491   -6.8434    2.9820 C   0  0  0  0  0  0  0  0  0  0  0  0
    0.0950   -8.8404    3.2292 C   0  0  0  0  0  0  0  0  0  0  0  0
   -0.7663   -8.2602    2.4375 C   0  0  0  0  0  0  0  0  0  0  0  0
   -0.3589   -6.8665    2.1913 C   0  0  0  0  0  0  0  0  0  0  0  0
    0.1065  -10.2381    3.6126 C   0  0  2  0  0  0  0  0  0  0  0  0
   -1.1911  -10.7747    3.7647 C   0  0  0  0  0  0  0  0  0  0  0  0
    1.1673  -10.8300    4.1969 C   0  0  0  0  0  0  0  0  0  0  0  0
    1.9745  -11.5962    3.3626 C   0  0  0  0  0  0  0  0  0  0  0  0
    1.9750  -11.0437    2.0473 C   0  0  0  0  0  0  0  0  0  0  0  0
    1.2541  -11.1389    1.2492 C   0  0  0  0  0  0  0  0  0  0  0  0
    1.3599  -10.5181   -0.0757 C   0  0  0  0  0  0  0  0  0  0  0  0
    2.1751   -9.3662   -0.2298 N   0  0  0  0  0  0  0  0  0  0  0  0
    1.8885   -8.5845   -1.3163 C   0  0  0  0  0  0  0  0  0  0  0  0
    0.3641  -12.3154    1.0346 C   0  0  0  0  0  0  0  0  0  0  0  0
   -0.7928   -5.9585    1.3241 Cl  0  0  0  0  0  0  0  0  0  0  0  0
    0.5851   -8.3867   -1.6343 O   0  0  0  0  0  0  0  0  0  0  0  0
    2.7986   -7.7082   -1.6106 O   0  0  0  0  0  0  0  0  0  0  0  0
   -0.8918  -12.2869    0.7242 C   0  0  0  0  0  0  0  0  0  0  0  0
  1  2  1  0
  1  3  2  0
  3  4  1  0
  2  5  2  0
  4  5  1  0
  3  6  1  0
  6  7  1  1
  6  8  1  0
  8  9  1  0
  9 10  1  0
 10 11  2  3
 11 12  1  0
 12 13  2  3
 13 14  1  0
 11 15  1  0
  5 16  1  0
 14 17  2  0
 14 18  1  0
 15 19  1  0
M  END

$$$$
No_265-/export/home/yangzhenyu/potential_scad_32_flow//YTHDC2/2024-12-06-03-22-00/
     RDKit          3D

 18 18  0  0  0  0  0  0  0  0999 V2000
    1.1787   -8.0297    3.5154 C   0  0  0  0  0  0  0  0  0  0  0  0
    1.0491   -6.8434    2.9820 C   0  0  0  0  0  0  0  0  0  0  0  0
    1.0690   -9.1150    2.7206 C   0  0  0  0  0  0  0  0  0  0  0  0
    0.9689   -6.6391    1.6260 C   0  0  0  0  0  0  0  0  0  0  0  0
    0.9670   -9.0334    1.3824 C   0  0  0  0  0  0  0  0  0  0  0  0
    0.8189   -7.7113    0.8022 C   0  0  0  0  0  0  0  0  0  0  0  0
    1.2114  -10.5217    3.2468 S   0  0  0  0  0  0  0  0  0  0  0  0
    0.1230  -11.0515    3.7893 P   0  0  0  0  0  0  0  0  0  0  0  0
   -1.1016  -10.9816    2.9320 O   0  0  0  0  0  0  0  0  0  0  0  0
   -0.0004  -12.4620    4.3633 O   0  0  0  0  0  0  0  0  0  0  0  0
   -0.4991  -10.2167    5.1457 O   0  0  0  0  0  0  0  0  0  0  0  0
    1.8720  -11.5088    2.0354 O   0  0  0  0  0  0  0  0  0  0  0  0
    2.3393  -10.5332    4.3929 O   0  0  0  0  0  0  0  0  0  0  0  0
    0.8701   -5.3320    1.1056 O   0  0  0  0  0  0  0  0  0  0  0  0
    0.4419   -4.2476    1.8049 C   0  0  0  0  0  0  0  0  0  0  0  0
   -0.8660   -4.0417    1.7498 C   0  0  0  0  0  0  0  0  0  0  0  0
   -1.4473   -3.6556    2.9936 O   0  0  0  0  0  0  0  0  0  0  0  0
   -1.5617   -4.2675    0.7035 O   0  0  0  0  0  0  0  0  0  0  0  0
  3  7  1  0
  7  8  1  0
  8  9  2  0
  8 10  1  0
  8 11  1  0
  7 12  2  0
  7 13  2  0
  4 14  1  0
 14 15  1  0
 15 16  1  0
 16 17  1  0
 16 18  2  0
  1  2  2  0
  2  4  1  0
  4  6  2  0
  5  6  1  0
  3  5  2  0
  1  3  1  0
M  END

$$$$
No_266-/export/home/yangzhenyu/potential_scad_32_flow//YTHDC2/2024-12-06-03-22-00/
     RDKit          3D

 20 19  0  0  1  0  0  0  0  0999 V2000
    1.1787   -8.0297    3.5154 C   0  0  0  0  0  0  0  0  0  0  0  0
    1.1048   -9.2215    3.2892 C   0  0  0  0  0  0  0  0  0  0  0  0
    1.3627  -10.1721    4.3044 C   0  0  2  0  0  0  0  0  0  0  0  0
    2.3720  -10.8948    4.2468 C   0  0  0  0  0  0  0  0  0  0  0  0
    1.0579   -7.0441    2.4219 C   0  0  0  0  0  0  0  0  0  0  0  0
    0.8578   -7.4970    1.1686 C   0  0  0  0  0  0  0  0  0  0  0  0
    0.7382   -8.7683    0.8754 Cl  0  0  0  0  0  0  0  0  0  0  0  0
    3.3670  -10.6957    4.8537 C   0  0  0  0  0  0  0  0  0  0  0  0
    3.1489  -10.1806    6.2792 N   0  0  0  0  0  0  0  0  0  0  0  0
    0.7334   -6.4968    0.2134 O   0  0  0  0  0  0  0  0  0  0  0  0
    4.6319  -11.3952    5.0058 O   0  0  0  0  0  0  0  0  0  0  0  0
    1.3056   -5.5268    2.8934 C   0  0  0  0  0  0  0  0  0  0  0  0
    0.0546  -11.1220    4.2701 C   0  0  0  0  0  0  0  0  0  0  0  0
   -1.1921  -10.4841    4.4185 O   0  0  0  0  0  0  0  0  0  0  0  0
    0.1215  -12.3199    4.0992 O   0  0  0  0  0  0  0  0  0  0  0  0
    0.8281   -4.6852    1.9846 O   0  0  0  0  0  0  0  0  0  0  0  0
    1.8292   -5.2039    3.9211 O   0  0  0  0  0  0  0  0  0  0  0  0
   -2.3101  -10.9579    4.0030 C   0  0  0  0  0  0  0  0  0  0  0  0
   -3.1064   -9.9169    3.5418 C   0  0  0  0  0  0  0  0  0  0  0  0
   -2.9376   -9.7735    2.2531 C   0  0  0  0  0  0  0  0  0  0  0  0
  1  2  1  0
  3  2  1  6
  3  4  1  0
  1  5  2  3
  5  6  1  0
  6  7  1  0
  4  8  1  0
  8  9  1  0
  6 10  2  0
  8 11  2  0
  5 12  1  0
  3 13  1  0
 13 14  1  0
 13 15  2  0
 12 16  2  0
 12 17  1  0
 14 18  1  0
 18 19  1  0
 19 20  1  0
M  END

$$$$
No_267-/export/home/yangzhenyu/potential_scad_32_flow//YTHDC2/2024-12-06-03-22-00/
     RDKit          3D

 18 19  0  0  1  0  0  0  0  0999 V2000
    1.1787   -8.0297    3.5154 C   0  0  0  0  0  0  0  0  0  0  0  0
    1.0491   -6.8434    2.9820 C   0  0  0  0  0  0  0  0  0  0  0  0
    1.9985   -8.9840    2.8958 C   0  0  2  0  0  0  0  0  0  0  0  0
    1.7297   -9.2108    1.6335 C   0  0  0  0  0  0  0  0  0  0  0  0
    1.7343   -8.0566    0.8408 C   0  0  0  0  0  0  0  0  0  0  0  0
    1.0269   -6.8892    1.4456 C   0  0  0  0  0  0  0  0  0  0  0  0
    1.7596   -8.0979   -0.4723 C   0  0  0  0  0  0  0  0  0  0  0  0
    1.8128   -9.1679   -1.0978 C   0  0  0  0  0  0  0  0  0  0  0  0
    2.1079  -10.3883    0.9552 C   0  0  0  0  0  0  0  0  0  0  0  0
    2.0591  -10.4549   -0.4776 C   0  0  0  0  0  0  0  0  0  0  0  0
    1.8989  -10.2833    3.6744 C   0  0  0  0  0  0  0  0  0  0  0  0
    0.9097  -11.1629    3.8714 C   0  0  0  0  0  0  0  0  0  0  0  0
   -0.3483  -10.5822    4.0488 O   0  0  0  0  0  0  0  0  0  0  0  0
    0.9294  -12.4227    3.8853 O   0  0  0  0  0  0  0  0  0  0  0  0
    0.8378   -5.7695    0.8813 O   0  0  0  0  0  0  0  0  0  0  0  0
    0.7622   -5.7474    3.4749 O   0  0  0  0  0  0  0  0  0  0  0  0
    3.0525  -10.7006    4.3881 O   0  0  0  0  0  0  0  0  0  0  0  0
   -1.4438  -10.7905    3.2501 C   0  0  0  0  0  0  0  0  0  0  0  0
  1  2  1  0
  1  3  1  0
  3  4  1  0
  2  6  1  0
  5  6  1  0
  3 11  1  1
 11 12  1  0
 12 13  1  0
 12 14  2  0
  6 15  2  0
  2 16  2  0
 11 17  2  0
 13 18  1  0
  4  5  2  0
  5  7  1  0
  7  8  2  0
  8 10  1  0
  9 10  2  0
  4  9  1  0
M  END

$$$$
No_268-/export/home/yangzhenyu/potential_scad_32_flow//YTHDC2/2024-12-06-03-22-00/
     RDKit          3D

 20 20  0  0  0  0  0  0  0  0999 V2000
    1.1787   -8.0297    3.5154 C   0  0  0  0  0  0  0  0  0  0  0  0
    1.1048   -9.2215    3.2892 C   0  0  0  0  0  0  0  0  0  0  0  0
    1.3627  -10.1721    4.3044 C   0  0  0  0  0  0  0  0  0  0  0  0
    1.7354  -11.4730    3.9024 C   0  0  0  0  0  0  0  0  0  0  0  0
    1.8080  -11.8127    2.7216 C   0  0  0  0  0  0  0  0  0  0  0  0
    1.5854  -11.0021    1.7249 C   0  0  0  0  0  0  0  0  0  0  0  0
    1.3573   -9.7389    1.9287 C   0  0  0  0  0  0  0  0  0  0  0  0
    1.1102   -8.8712    0.9017 C   0  0  0  0  0  0  0  0  0  0  0  0
    0.5299   -7.6926    1.0325 O   0  0  0  0  0  0  0  0  0  0  0  0
    1.3970   -9.2634   -0.4035 O   0  0  0  0  0  0  0  0  0  0  0  0
    2.1581  -13.4121    2.2886 O   0  0  0  0  0  0  0  0  0  0  0  0
    1.6814  -13.8304    1.1382 C   0  0  0  0  0  0  0  0  0  0  0  0
    1.8071  -14.9878    1.0389 C   0  0  0  0  0  0  0  0  0  0  0  0
    2.4429  -15.8205    1.9426 O   0  0  0  0  0  0  0  0  0  0  0  0
    1.2047  -15.8287    0.3134 O   0  0  0  0  0  0  0  0  0  0  0  0
    2.4853   -7.2941    3.5331 O   0  0  0  0  0  0  0  0  0  0  0  0
    0.1703   -7.2638    3.7445 O   0  0  0  0  0  0  0  0  0  0  0  0
    2.3342  -17.1777    2.2486 C   0  0  0  0  0  0  0  0  0  0  0  0
    1.1589  -17.5520    2.8213 C   0  0  0  0  0  0  0  0  0  0  0  0
    0.5477  -18.5065    2.2154 C   0  0  0  0  0  0  0  0  0  0  0  0
  1  2  1  0
  7  8  1  0
  8  9  2  0
  8 10  1  0
  5 11  1  0
 11 12  1  0
 12 13  1  0
 13 14  1  0
 13 15  2  0
  1 16  1  0
  1 17  2  0
 14 18  1  0
 18 19  1  0
 19 20  2  0
  2  3  2  0
  3  4  1  0
  4  5  2  0
  5  6  1  0
  6  7  2  0
  2  7  1  0
M  END

$$$$
No_269-/export/home/yangzhenyu/potential_scad_32_flow//YTHDC2/2024-12-06-03-22-00/
     RDKit          3D

 20 20  0  0  0  0  0  0  0  0999 V2000
    1.1787   -8.0297    3.5154 C   0  0  0  0  0  0  0  0  0  0  0  0
    1.1048   -9.2215    3.2892 C   0  0  0  0  0  0  0  0  0  0  0  0
    1.3627  -10.1721    4.3044 C   0  0  0  0  0  0  0  0  0  0  0  0
    2.3720  -10.8948    4.2468 C   0  0  0  0  0  0  0  0  0  0  0  0
    1.0579   -7.0441    2.4219 C   0  0  0  0  0  0  0  0  0  0  0  0
    0.8578   -7.4970    1.1686 C   0  0  0  0  0  0  0  0  0  0  0  0
    0.7382   -8.7683    0.8754 C   0  0  0  0  0  0  0  0  0  0  0  0
    0.8882   -9.7347    1.9238 C   0  0  0  0  0  0  0  0  0  0  0  0
    0.5634  -10.9884    1.7836 C   0  0  0  0  0  0  0  0  0  0  0  0
    1.5466  -11.8078    1.1926 C   0  0  0  0  0  0  0  0  0  0  0  0
    1.3383  -13.1797    0.9311 O   0  0  0  0  0  0  0  0  0  0  0  0
    2.4301  -11.8865    3.6810 N   0  0  0  0  0  0  0  0  0  0  0  0
    3.2951  -10.8325    5.5318 N   0  0  0  0  0  0  0  0  0  0  0  0
    0.4686   -9.2032   -0.4172 O   0  0  0  0  0  0  0  0  0  0  0  0
    1.1872   -5.5721    2.6512 Cl  0  0  0  0  0  0  0  0  0  0  0  0
    2.7004  -11.4161    0.7359 O   0  0  0  0  0  0  0  0  0  0  0  0
   -0.5679  -11.6079    2.0053 C   0  0  0  0  0  0  0  0  0  0  0  0
   -1.6070  -11.4470    1.0566 O   0  0  0  0  0  0  0  0  0  0  0  0
   -1.0173  -12.1363    3.1512 O   0  0  0  0  0  0  0  0  0  0  0  0
    4.4002  -11.4543    5.3026 N   0  0  0  0  0  0  0  0  0  0  0  0
  2  3  1  0
  3  4  1  0
  8  9  1  0
  9 10  1  0
 10 11  1  0
  4 12  1  0
  4 13  2  3
  7 14  1  0
  5 15  1  0
 10 16  2  0
  9 17  1  0
 17 18  2  0
 17 19  1  0
 13 20  1  0
  1  2  2  0
  2  8  1  0
  7  8  2  0
  6  7  1  0
  5  6  2  0
  1  5  1  0
M  END

$$$$
No_270-/export/home/yangzhenyu/potential_scad_32_flow//YTHDC2/2024-12-06-03-22-00/
     RDKit          3D

 19 20  0  0  1  0  0  0  0  0999 V2000
    1.1787   -8.0297    3.5154 C   0  0  2  0  0  0  0  0  0  0  0  0
    1.0491   -6.8434    2.9820 Cl  0  0  0  0  0  0  0  0  0  0  0  0
    2.1643   -8.9961    3.0118 C   0  0  0  0  0  0  0  0  0  0  0  0
    2.0542  -10.3454    3.7325 C   0  0  2  0  0  0  0  0  0  0  0  0
    1.0539  -10.6340    4.5979 C   0  0  0  0  0  0  0  0  0  0  0  0
   -0.0044   -9.7649    4.6652 C   0  0  1  0  0  0  0  0  0  0  0  0
   -0.0119   -8.5383    4.1066 C   0  0  0  0  0  0  0  0  0  0  0  0
   -0.9915   -7.7180    4.4309 O   0  0  0  0  0  0  0  0  0  0  0  0
    3.1953  -11.1690    3.5519 P   0  0  0  0  0  0  0  0  0  0  0  0
    3.0612  -12.3070    4.7513 O   0  0  0  0  0  0  0  0  0  0  0  0
    4.4882  -10.4532    3.9338 O   0  0  0  0  0  0  0  0  0  0  0  0
    3.2062  -11.7819    2.2756 O   0  0  0  0  0  0  0  0  0  0  0  0
   -1.1546  -10.2474    5.2959 O   0  0  0  0  0  0  0  0  0  0  0  0
   -1.9170  -11.1752    4.5430 C   0  0  0  0  0  0  0  0  0  0  0  0
   -3.3352  -10.9877    4.6164 C   0  0  0  0  0  0  0  0  0  0  0  0
   -4.0818  -12.0247    4.0364 C   0  0  0  0  0  0  0  0  0  0  0  0
   -3.5453  -12.9797    3.2960 C   0  0  0  0  0  0  0  0  0  0  0  0
   -2.2191  -13.0531    3.1278 C   0  0  0  0  0  0  0  0  0  0  0  0
   -1.3722  -12.1281    3.7558 C   0  0  0  0  0  0  0  0  0  0  0  0
  1  2  1  6
  1  3  1  0
  4  5  1  0
  1  7  1  0
  6  7  1  0
  7  8  2  0
  4  9  1  1
  9 10  1  0
  9 11  1  0
  9 12  2  0
  6 13  1  6
 13 14  1  0
  3  4  1  0
  5  6  1  0
 14 15  2  0
 15 16  1  0
 16 17  2  0
 17 18  1  0
 18 19  2  0
 14 19  1  0
M  END

$$$$
No_271-/export/home/yangzhenyu/potential_scad_32_flow//YTHDC2/2024-12-06-03-22-00/
     RDKit          3D

 18 18  0  0  1  0  0  0  0  0999 V2000
    1.1787   -8.0297    3.5154 O   0  0  0  0  0  0  0  0  0  0  0  0
    0.6747   -7.4019    2.7838 C   0  0  2  0  0  0  0  0  0  0  0  0
    0.7594   -8.0032    1.4295 C   0  0  0  0  0  0  0  0  0  0  0  0
    1.4743   -7.4398    0.6034 O   0  0  0  0  0  0  0  0  0  0  0  0
   -0.0209   -9.0047    1.2338 N   0  0  0  0  0  0  0  0  0  0  0  0
    0.1076   -9.6236   -0.1256 C   0  0  0  0  0  0  0  0  0  0  0  0
   -1.0740   -9.0739   -0.9746 C   0  0  1  0  0  0  0  0  0  0  0  0
   -2.0545   -8.5661   -0.4106 C   0  0  0  0  0  0  0  0  0  0  0  0
   -2.9658   -9.1590    0.2295 C   0  0  0  0  0  0  0  0  0  0  0  0
   -0.5151   -9.0511   -2.1878 C   0  0  0  0  0  0  0  0  0  0  0  0
    0.3435   -9.2660   -2.7241 O   0  0  0  0  0  0  0  0  0  0  0  0
   -1.5352   -8.3707   -3.1124 O   0  0  0  0  0  0  0  0  0  0  0  0
   -3.3460  -10.4183   -0.0262 C   0  0  0  0  0  0  0  0  0  0  0  0
   -4.2220  -10.9569    0.7337 C   0  0  0  0  0  0  0  0  0  0  0  0
   -4.8038  -10.3355    1.8180 C   0  0  0  0  0  0  0  0  0  0  0  0
   -4.1395   -8.9183    1.9867 C   0  0  0  0  0  0  0  0  0  0  0  0
   -3.3451   -8.3713    1.2850 C   0  0  0  0  0  0  0  0  0  0  0  0
    1.0321   -5.9117    2.7597 C   0  0  0  0  0  0  0  0  0  0  0  0
  1  2  1  0
  2  3  1  0
  3  4  2  0
  3  5  1  0
  5  6  1  0
  7  6  1  1
  7  8  1  0
  8  9  1  0
  7 10  1  0
 10 11  2  0
 10 12  1  0
  2 18  1  6
  9 13  2  0
 13 14  1  0
 14 15  2  0
 15 16  1  0
 16 17  2  0
  9 17  1  0
M  END

$$$$
No_272-/export/home/yangzhenyu/potential_scad_32_flow//YTHDC2/2024-12-06-03-22-00/
     RDKit          3D

 20 21  0  0  1  0  0  0  0  0999 V2000
    1.1787   -8.0297    3.5154 C   0  0  0  0  0  0  0  0  0  0  0  0
    1.1048   -9.2215    3.2892 C   0  0  0  0  0  0  0  0  0  0  0  0
    1.4683  -10.2314    4.1915 C   0  0  0  0  0  0  0  0  0  0  0  0
    0.8445   -6.9865    2.5175 C   0  0  0  0  0  0  0  0  0  0  0  0
    0.3587   -7.3973    1.3953 C   0  0  0  0  0  0  0  0  0  0  0  0
    0.1901   -8.6971    1.0711 C   0  0  2  0  0  0  0  0  0  0  0  0
    0.5759   -9.6648    1.9442 C   0  0  0  0  0  0  0  0  0  0  0  0
    0.6934  -11.4709    4.1321 O   0  0  0  0  0  0  0  0  0  0  0  0
    2.4960  -10.2235    5.0078 O   0  0  0  0  0  0  0  0  0  0  0  0
   -0.2229   -9.1658   -0.1552 C   0  0  0  0  0  0  0  0  0  0  0  0
   -1.0564  -10.2608   -0.2314 O   0  0  0  0  0  0  0  0  0  0  0  0
    0.0175   -8.5037   -1.2724 O   0  0  0  0  0  0  0  0  0  0  0  0
    1.0490   -5.2860    2.8075 Cl  0  0  0  0  0  0  0  0  0  0  0  0
    0.6223  -10.9736    1.6337 O   0  0  0  0  0  0  0  0  0  0  0  0
   -2.3856  -10.0621   -0.3722 C   0  0  0  0  0  0  0  0  0  0  0  0
   -2.8175   -9.4594   -1.3326 C   0  0  0  0  0  0  0  0  0  0  0  0
   -3.8933   -9.5084   -1.7730 C   0  0  0  0  0  0  0  0  0  0  0  0
   -4.8650  -10.1406   -1.0327 C   0  0  0  0  0  0  0  0  0  0  0  0
   -4.4576  -10.8567    0.0811 C   0  0  0  0  0  0  0  0  0  0  0  0
   -3.0861  -10.8319    0.4405 C   0  0  0  0  0  0  0  0  0  0  0  0
  2  3  1  0
  1  4  1  0
  5  6  1  0
  2  7  1  0
  6  7  1  0
  3  8  2  0
  3  9  1  0
  6 10  1  6
 10 11  1  0
 10 12  2  0
  4 13  1  0
  7 14  2  0
 11 15  1  0
  1  2  1  0
  4  5  1  0
 15 16  2  0
 16 17  1  0
 17 18  2  0
 18 19  1  0
 19 20  2  0
 15 20  1  0
M  END

$$$$
No_273-/export/home/yangzhenyu/potential_scad_32_flow//YTHDC2/2024-12-06-03-22-00/
     RDKit          3D

 18 18  0  0  1  0  0  0  0  0999 V2000
    1.1787   -8.0297    3.5154 C   0  0  0  0  0  0  0  0  0  0  0  0
    1.1048   -9.2215    3.2892 C   0  0  0  0  0  0  0  0  0  0  0  0
    1.4683  -10.2314    4.1915 C   0  0  2  0  0  0  0  0  0  0  0  0
    0.8445   -6.9865    2.5175 C   0  0  1  0  0  0  0  0  0  0  0  0
    0.3587   -7.3973    1.3953 C   0  0  0  0  0  0  0  0  0  0  0  0
    0.1901   -8.6971    1.0711 C   0  0  0  0  0  0  0  0  0  0  0  0
    0.5759   -9.6647    1.9442 C   0  0  0  0  0  0  0  0  0  0  0  0
    2.7055  -10.5235    4.4262 C   0  0  0  0  0  0  0  0  0  0  0  0
   -0.3172   -9.1228   -0.1102 C   0  0  0  0  0  0  0  0  0  0  0  0
    0.1278   -8.7520   -1.3214 C   0  0  0  0  0  0  0  0  0  0  0  0
    1.4247   -8.4140   -1.4841 O   0  0  0  0  0  0  0  0  0  0  0  0
   -0.5590   -8.3790   -2.3382 O   0  0  0  0  0  0  0  0  0  0  0  0
    0.5837  -10.9760    1.6968 O   0  0  0  0  0  0  0  0  0  0  0  0
    3.1133  -11.2217    5.4685 O   0  0  0  0  0  0  0  0  0  0  0  0
    3.6261  -10.5143    3.5717 O   0  0  0  0  0  0  0  0  0  0  0  0
    1.0029   -5.5485    2.8355 Br  0  0  0  0  0  0  0  0  0  0  0  0
    0.5838  -11.2591    4.4689 C   0  0  0  0  0  0  0  0  0  0  0  0
   -0.8275  -10.8403    4.5561 O   0  0  0  0  0  0  0  0  0  0  0  0
  2  3  1  0
  1  4  1  0
  5  6  1  0
  2  7  1  0
  6  7  1  0
  3  8  1  0
  6  9  1  0
  9 10  1  0
 10 11  1  0
 10 12  2  0
  7 13  2  0
  8 14  1  0
  8 15  2  0
  4 16  1  1
  3 17  1  6
 17 18  1  0
  1  2  1  0
  4  5  1  0
M  END

$$$$
No_274-/export/home/yangzhenyu/potential_scad_32_flow//YTHDC2/2024-12-06-03-22-00/
     RDKit          3D

 19 19  0  0  1  0  0  0  0  0999 V2000
    1.1787   -8.0297    3.5154 C   0  0  0  0  0  0  0  0  0  0  0  0
    1.0491   -6.8434    2.9820 C   0  0  0  0  0  0  0  0  0  0  0  0
    0.2462   -8.9560    3.0873 C   0  0  0  0  0  0  0  0  0  0  0  0
    0.3295   -6.5187    1.9069 C   0  0  0  0  0  0  0  0  0  0  0  0
   -0.4721   -8.3607    2.1144 C   0  0  0  0  0  0  0  0  0  0  0  0
   -0.4735   -7.2853    1.5417 C   0  0  0  0  0  0  0  0  0  0  0  0
    0.4403   -5.1289    1.4428 C   0  0  0  0  0  0  0  0  0  0  0  0
    0.2766  -10.4233    3.6583 C   0  0  1  0  0  0  0  0  0  0  0  0
    1.3712  -10.9977    3.9344 C   0  0  0  0  0  0  0  0  0  0  0  0
    1.9574  -11.8083    2.9472 C   0  0  1  0  0  0  0  0  0  0  0  0
    1.6271  -13.1403    3.0663 Cl  0  0  0  0  0  0  0  0  0  0  0  0
    1.3463   -4.2527    1.9661 O   0  0  0  0  0  0  0  0  0  0  0  0
   -0.2832   -4.6367    0.4811 O   0  0  0  0  0  0  0  0  0  0  0  0
    1.4979  -11.1128    1.5671 C   0  0  0  0  0  0  0  0  0  0  0  0
    0.6802  -11.8417    0.7657 O   0  0  0  0  0  0  0  0  0  0  0  0
    2.3392  -10.2113    1.0811 O   0  0  0  0  0  0  0  0  0  0  0  0
   -0.6823  -10.1721    5.0601 C   0  0  0  0  0  0  0  0  0  0  0  0
   -1.7444   -9.4002    4.8759 O   0  0  0  0  0  0  0  0  0  0  0  0
   -0.9955  -11.1719    5.6474 I   0  0  0  0  0  0  0  0  0  0  0  0
  4  7  1  0
  3  8  1  0
  8  9  1  1
  9 10  1  0
 10 11  1  6
  7 12  2  0
  7 13  1  0
 10 14  1  0
 14 15  2  0
 14 16  1  0
  8 17  1  0
 17 18  2  0
 17 19  1  0
  1  2  2  0
  2  4  1  0
  4  6  2  0
  5  6  1  0
  3  5  2  0
  1  3  1  0
M  END

$$$$
No_275-/export/home/yangzhenyu/potential_scad_32_flow//YTHDC2/2024-12-06-03-22-00/
     RDKit          3D

 18 18  0  0  0  0  0  0  0  0999 V2000
    1.1787   -8.0297    3.5154 C   0  0  0  0  0  0  0  0  0  0  0  0
    1.1048   -9.2215    3.2892 C   0  0  0  0  0  0  0  0  0  0  0  0
    1.3627  -10.1721    4.3044 C   0  0  0  0  0  0  0  0  0  0  0  0
    1.7354  -11.4730    3.9023 C   0  0  0  0  0  0  0  0  0  0  0  0
    1.8080  -11.8127    2.7216 C   0  0  0  0  0  0  0  0  0  0  0  0
    1.5854  -11.0021    1.7249 C   0  0  0  0  0  0  0  0  0  0  0  0
    1.3573   -9.7389    1.9287 C   0  0  0  0  0  0  0  0  0  0  0  0
    1.1102   -8.8712    0.9017 C   0  0  0  0  0  0  0  0  0  0  0  0
    0.5299   -7.6926    1.0325 O   0  0  0  0  0  0  0  0  0  0  0  0
    1.3970   -9.2634   -0.4035 O   0  0  0  0  0  0  0  0  0  0  0  0
    2.1059  -13.2053    2.3252 O   0  0  0  0  0  0  0  0  0  0  0  0
    1.7313  -14.2829    3.0089 C   0  0  0  0  0  0  0  0  0  0  0  0
    1.1309  -15.2767    2.1449 C   0  0  0  0  0  0  0  0  0  0  0  0
    1.3423  -16.4804    2.3803 O   0  0  0  0  0  0  0  0  0  0  0  0
    0.3353  -14.8637    1.2382 N   0  0  0  0  0  0  0  0  0  0  0  0
   -0.3955  -13.6562    1.2686 C   0  0  0  0  0  0  0  0  0  0  0  0
   -0.4577  -12.9840    0.0458 C   0  0  0  0  0  0  0  0  0  0  0  0
   -1.3069  -11.7023    0.0595 C   0  0  0  0  0  0  0  0  0  0  0  0
  1  2  1  0
  7  8  1  0
  8  9  2  0
  8 10  1  0
  5 11  1  0
 11 12  1  0
 12 13  1  0
 13 14  2  0
 13 15  1  0
 15 16  1  0
 16 17  1  0
 17 18  2  0
  2  3  2  0
  3  4  1  0
  4  5  2  0
  5  6  1  0
  6  7  2  0
  2  7  1  0
M  END

$$$$
No_276-/export/home/yangzhenyu/potential_scad_32_flow//YTHDC2/2024-12-06-03-22-00/
     RDKit          3D

 19 19  0  0  1  0  0  0  0  0999 V2000
    1.1787   -8.0297    3.5154 C   0  0  0  0  0  0  0  0  0  0  0  0
    1.0491   -6.8434    2.9820 C   0  0  0  0  0  0  0  0  0  0  0  0
    0.9905   -9.0774    2.6527 C   0  0  0  0  0  0  0  0  0  0  0  0
    0.7897   -8.9519    1.3691 C   0  0  0  0  0  0  0  0  0  0  0  0
    0.7018   -7.7198    0.7892 C   0  0  0  0  0  0  0  0  0  0  0  0
    0.8918   -6.5957    1.6117 C   0  0  0  0  0  0  0  0  0  0  0  0
    1.0711  -10.4814    3.2282 C   0  0  2  0  0  0  0  0  0  0  0  0
    2.1432  -11.0138    3.5962 C   0  0  0  0  0  0  0  0  0  0  0  0
   -0.0553  -11.2345    3.2840 C   0  0  1  0  0  0  0  0  0  0  0  0
   -1.2156  -10.5474    3.8659 N   0  0  0  0  0  0  0  0  0  0  0  0
    2.0600  -11.9848    4.6895 O   0  0  0  0  0  0  0  0  0  0  0  0
    0.8506   -5.0752    1.0606 Cl  0  0  0  0  0  0  0  0  0  0  0  0
   -1.1339   -9.8899    5.0827 S   0  0  0  0  0  0  0  0  0  0  0  0
   -0.2131   -9.4921    5.5060 O   0  0  0  0  0  0  0  0  0  0  0  0
   -2.4343   -9.1975    4.7087 O   0  0  0  0  0  0  0  0  0  0  0  0
    3.3758  -10.3608    3.7273 O   0  0  0  0  0  0  0  0  0  0  0  0
   -0.1264  -12.2979    2.4614 C   0  0  0  0  0  0  0  0  0  0  0  0
   -0.3211  -13.4952    2.8271 C   0  0  0  0  0  0  0  0  0  0  0  0
    0.0905  -14.4183    2.0552 C   0  0  0  0  0  0  0  0  0  0  0  0
  3  7  1  0
  7  8  1  6
  7  9  1  0
  9 10  1  0
  8 11  2  0
  6 12  1  0
 10 13  1  0
 13 14  2  0
 13 15  2  0
  8 16  1  0
  9 17  1  6
 17 18  1  0
 18 19  2  0
  1  2  2  0
  2  6  1  0
  5  6  2  0
  4  5  1  0
  3  4  2  0
  1  3  1  0
M  END

$$$$
No_277-/export/home/yangzhenyu/potential_scad_32_flow//YTHDC2/2024-12-06-03-22-00/
     RDKit          3D

 19 19  0  0  1  0  0  0  0  0999 V2000
    1.1787   -8.0297    3.5154 C   0  0  0  0  0  0  0  0  0  0  0  0
    1.0491   -6.8434    2.9820 C   0  0  0  0  0  0  0  0  0  0  0  0
    1.9985   -8.9840    2.8958 C   0  0  2  0  0  0  0  0  0  0  0  0
    1.7297   -9.2108    1.6335 C   0  0  0  0  0  0  0  0  0  0  0  0
    1.7343   -8.0566    0.8408 C   0  0  2  0  0  0  0  0  0  0  0  0
    1.0269   -6.8892    1.4456 C   0  0  2  0  0  0  0  0  0  0  0  0
    2.0740   -7.9416   -0.3682 C   0  0  0  0  0  0  0  0  0  0  0  0
    3.0714   -8.7358   -0.8759 N   0  0  0  0  0  0  0  0  0  0  0  0
    1.9442  -10.3850    3.5576 C   0  0  0  0  0  0  0  0  0  0  0  0
    0.9810  -10.9026    3.8409 O   0  0  0  0  0  0  0  0  0  0  0  0
    3.1498  -10.8413    3.9803 N   0  0  0  0  0  0  0  0  0  0  0  0
    3.2074  -11.8893    4.9370 N   0  0  0  0  0  0  0  0  0  0  0  0
    0.6817   -5.6855    3.4785 O   0  0  0  0  0  0  0  0  0  0  0  0
    2.2855  -10.2992    0.8793 O   0  0  0  0  0  0  0  0  0  0  0  0
    0.8108   -5.7598    0.8736 P   0  0  0  0  0  0  0  0  0  0  0  0
   -0.6556   -5.5048    0.6666 O   0  0  0  0  0  0  0  0  0  0  0  0
    1.3739   -5.3605   -0.2611 O   0  0  0  0  0  0  0  0  0  0  0  0
    0.8985   -4.4524    1.9338 O   0  0  0  0  0  0  0  0  0  0  0  0
    3.5315   -9.4105   -0.2816 H   0  0  0  0  0  0  0  0  0  0  0  0
  1  2  1  0
  1  3  1  0
  3  4  1  0
  4  5  1  0
  2  6  1  0
  5  6  1  0
  5  7  1  6
  7  8  2  0
  3  9  1  1
  9 10  2  0
  9 11  1  0
 11 12  1  0
  2 13  2  0
  4 14  2  0
  6 15  1  6
 15 16  1  0
 15 17  2  0
 15 18  1  0
  8 19  1  0
M  END

$$$$
No_278-/export/home/yangzhenyu/potential_scad_32_flow//YTHDC2/2024-12-06-03-22-00/
     RDKit          3D

 21 21  0  0  0  0  0  0  0  0999 V2000
    1.1787   -8.0297    3.5154 C   0  0  0  0  0  0  0  0  0  0  0  0
    1.0491   -6.8434    2.9820 C   0  0  0  0  0  0  0  0  0  0  0  0
    0.9905   -9.0774    2.6527 C   0  0  0  0  0  0  0  0  0  0  0  0
    0.7897   -8.9519    1.3691 C   0  0  0  0  0  0  0  0  0  0  0  0
    0.7018   -7.7198    0.7892 C   0  0  0  0  0  0  0  0  0  0  0  0
    0.8918   -6.5957    1.6117 C   0  0  0  0  0  0  0  0  0  0  0  0
    1.0774  -10.6059    3.3145 C   0  0  0  0  0  0  0  0  0  0  0  0
    2.1444  -11.0408    3.6446 N   0  0  0  0  0  0  0  0  0  0  0  0
    0.0247  -11.2534    3.3483 O   0  0  0  0  0  0  0  0  0  0  0  0
    0.8094   -5.1011    1.0397 Br  0  0  0  0  0  0  0  0  0  0  0  0
    2.2593  -12.2857    4.2708 C   0  0  0  0  0  0  0  0  0  0  0  0
    1.9638  -13.3383    3.1711 C   0  0  0  0  0  0  0  0  0  0  0  0
    1.4500  -14.5488    3.5526 O   0  0  0  0  0  0  0  0  0  0  0  0
    1.2408  -15.4237    2.6281 C   0  0  0  0  0  0  0  0  0  0  0  0
    0.8637  -16.5653    3.1658 C   0  0  0  0  0  0  0  0  0  0  0  0
   -0.1677  -16.4835    4.0647 O   0  0  0  0  0  0  0  0  0  0  0  0
    0.6606  -10.0741    0.4339 C   0  0  0  0  0  0  0  0  0  0  0  0
    1.7241  -10.7952    0.1407 N   0  0  0  0  0  0  0  0  0  0  0  0
   -0.5164  -10.3732   -0.0521 I   0  0  0  0  0  0  0  0  0  0  0  0
   -0.6895  -17.7242    4.4908 C   0  0  0  0  0  0  0  0  0  0  0  0
    2.6202  -10.5602    0.5430 H   0  0  0  0  0  0  0  0  0  0  0  0
  3  7  1  0
  7  8  1  0
  7  9  2  0
  6 10  1  0
  8 11  1  0
 11 12  1  0
 12 13  1  0
 13 14  1  0
 14 15  1  0
 15 16  1  0
  4 17  1  0
 17 18  2  0
 17 19  1  0
 16 20  1  0
  1  2  2  0
  2  6  1  0
  5  6  2  0
  4  5  1  0
  3  4  2  0
  1  3  1  0
 18 21  1  0
M  END

$$$$
No_279-/export/home/yangzhenyu/potential_scad_32_flow//YTHDC2/2024-12-06-03-22-00/
     RDKit          3D

 20 21  0  0  0  0  0  0  0  0999 V2000
    1.1787   -8.0297    3.5154 C   0  0  0  0  0  0  0  0  0  0  0  0
    1.0491   -6.8434    2.9820 C   0  0  0  0  0  0  0  0  0  0  0  0
    0.0950   -8.8404    3.2292 C   0  0  0  0  0  0  0  0  0  0  0  0
   -0.9173   -8.4596    2.5152 C   0  0  0  0  0  0  0  0  0  0  0  0
   -1.0331   -7.2162    2.0653 C   0  0  0  0  0  0  0  0  0  0  0  0
   -0.0105   -6.3168    2.3081 C   0  0  0  0  0  0  0  0  0  0  0  0
    0.1935  -10.3737    3.7416 C   0  0  0  0  0  0  0  0  0  0  0  0
    1.2406  -10.8901    4.0986 C   0  0  0  0  0  0  0  0  0  0  0  0
    2.3224  -10.5943    4.1692 O   0  0  0  0  0  0  0  0  0  0  0  0
    0.9824  -12.1686    4.7125 O   0  0  0  0  0  0  0  0  0  0  0  0
    0.0218   -4.7900    1.7729 O   0  0  0  0  0  0  0  0  0  0  0  0
   -0.8741   -4.4602    1.0779 C   0  0  0  0  0  0  0  0  0  0  0  0
   -1.6647   -3.6823    1.6922 C   0  0  0  0  0  0  0  0  0  0  0  0
   -2.8625   -3.7121    1.6864 C   0  0  0  0  0  0  0  0  0  0  0  0
   -3.4520   -4.4817    0.5922 C   0  0  0  0  0  0  0  0  0  0  0  0
   -2.7403   -5.2917   -0.1052 C   0  0  0  0  0  0  0  0  0  0  0  0
   -1.3580   -5.3373    0.1119 C   0  0  0  0  0  0  0  0  0  0  0  0
   -3.2803   -6.1341   -1.0744 C   0  0  0  0  0  0  0  0  0  0  0  0
   -2.4192   -6.4015   -2.2800 N   0  0  0  0  0  0  0  0  0  0  0  0
   -2.0495   -7.5127   -2.4494 C   0  0  0  0  0  0  0  0  0  0  0  0
  3  7  1  0
  7  8  1  0
  8  9  2  0
  8 10  1  0
  6 11  1  0
 11 12  1  0
 16 18  1  0
 18 19  1  0
 19 20  1  0
 12 13  2  0
 13 14  1  0
 14 15  2  0
 15 16  1  0
 16 17  2  0
 12 17  1  0
  1  2  2  0
  2  6  1  0
  5  6  2  0
  4  5  1  0
  3  4  2  0
  1  3  1  0
M  END

$$$$
No_280-/export/home/yangzhenyu/potential_scad_32_flow//YTHDC2/2024-12-06-03-22-00/
     RDKit          3D

 18 18  0  0  1  0  0  0  0  0999 V2000
    1.1787   -8.0297    3.5154 C   0  0  0  0  0  0  0  0  0  0  0  0
    1.0491   -6.8434    2.9820 C   0  0  1  0  0  0  0  0  0  0  0  0
    1.9985   -8.9840    2.8958 C   0  0  2  0  0  0  0  0  0  0  0  0
    1.7297   -9.2108    1.6335 C   0  0  0  0  0  0  0  0  0  0  0  0
    1.7343   -8.0566    0.8408 C   0  0  2  0  0  0  0  0  0  0  0  0
    1.0269   -6.8892    1.4456 C   0  0  0  0  0  0  0  0  0  0  0  0
    2.0740   -7.9416   -0.3682 C   0  0  0  0  0  0  0  0  0  0  0  0
    2.2588   -9.0634   -1.1089 O   0  0  0  0  0  0  0  0  0  0  0  0
    2.3444  -10.1962    3.6191 C   0  0  0  0  0  0  0  0  0  0  0  0
    2.4941  -11.3172    3.1723 O   0  0  0  0  0  0  0  0  0  0  0  0
    2.9759  -10.1029    4.8731 O   0  0  0  0  0  0  0  0  0  0  0  0
    1.1413   -5.6623    0.8793 O   0  0  0  0  0  0  0  0  0  0  0  0
    0.7624   -5.7478    3.5158 Cl  0  0  0  0  0  0  0  0  0  0  0  0
    2.4504   -7.0185   -1.0772 O   0  0  0  0  0  0  0  0  0  0  0  0
    1.7601  -10.3241    1.1044 O   0  0  0  0  0  0  0  0  0  0  0  0
    3.4756  -11.3711    5.4445 C   0  0  0  0  0  0  0  0  0  0  0  0
    4.9052  -10.8401    5.7604 C   0  0  0  0  0  0  0  0  0  0  0  0
    5.6847  -10.9178    4.3832 O   0  0  0  0  0  0  0  0  0  0  0  0
  1  2  1  0
  1  3  1  0
  3  4  1  0
  4  5  1  0
  2  6  1  0
  5  6  1  0
  5  7  1  6
  7  8  2  0
  3  9  1  1
  9 10  2  0
  9 11  1  0
  6 12  2  0
  2 13  1  1
  7 14  1  0
  4 15  2  0
 11 16  1  0
 16 17  1  0
 17 18  1  0
M  END

$$$$
No_281-/export/home/yangzhenyu/potential_scad_32_flow//YTHDC2/2024-12-06-03-22-00/
     RDKit          3D

 18 18  0  0  1  0  0  0  0  0999 V2000
    1.1787   -8.0297    3.5154 C   0  0  0  0  0  0  0  0  0  0  0  0
    1.0491   -6.8434    2.9820 C   0  0  0  0  0  0  0  0  0  0  0  0
    0.2462   -8.9560    3.0873 C   0  0  0  0  0  0  0  0  0  0  0  0
    0.3295   -6.5187    1.9069 C   0  0  0  0  0  0  0  0  0  0  0  0
   -0.5260   -8.7862    2.1368 C   0  0  0  0  0  0  0  0  0  0  0  0
   -0.5458   -7.5614    1.5054 C   0  0  0  0  0  0  0  0  0  0  0  0
    0.2879   -5.2870    1.3175 C   0  0  0  0  0  0  0  0  0  0  0  0
    0.3538  -10.3272    3.6802 C   0  0  0  0  0  0  0  0  0  0  0  0
   -0.8518  -11.0220    3.8257 O   0  0  0  0  0  0  0  0  0  0  0  0
    1.2202  -10.6558    4.6484 N   0  0  0  0  0  0  0  0  0  0  0  0
    1.2915   -4.3983    1.8176 C   0  0  0  0  0  0  0  0  0  0  0  0
    2.0763  -11.6992    4.4363 C   0  0  0  0  0  0  0  0  0  0  0  0
    2.5683  -11.5681    3.0084 C   0  0  2  0  0  0  0  0  0  0  0  0
    3.0061  -10.4248    2.5116 C   0  0  0  0  0  0  0  0  0  0  0  0
    1.4895  -12.2127    2.0918 C   0  0  0  0  0  0  0  0  0  0  0  0
    1.3237  -11.5967    0.8872 N   0  0  0  0  0  0  0  0  0  0  0  0
    0.2144  -12.3011    0.3225 C   0  0  0  0  0  0  0  0  0  0  0  0
    0.0646  -13.4793    0.8498 N   0  0  0  0  0  0  0  0  0  0  0  0
  4  7  1  0
  3  8  1  0
  8  9  2  0
  8 10  1  0
  7 11  2  0
 10 12  1  0
 12 13  1  0
 13 14  1  6
 13 15  1  0
 15 16  1  0
 16 17  2  3
 17 18  1  0
  1  2  2  0
  2  4  1  0
  4  6  2  0
  5  6  1  0
  3  5  2  0
  1  3  1  0
M  END

$$$$
No_282-/export/home/yangzhenyu/potential_scad_32_flow//YTHDC2/2024-12-06-03-22-00/
     RDKit          3D

 18 19  0  0  1  0  0  0  0  0999 V2000
    1.1787   -8.0297    3.5154 C   0  0  0  0  0  0  0  0  0  0  0  0
    1.0491   -6.8434    2.9820 C   0  0  2  0  0  0  0  0  0  0  0  0
    1.9985   -8.9840    2.8958 C   0  0  0  0  0  0  0  0  0  0  0  0
    1.9135  -10.3404    3.6266 C   0  0  0  0  0  0  0  0  0  0  0  0
    0.7479  -10.9191    3.7202 C   0  0  0  0  0  0  0  0  0  0  0  0
    0.2782   -6.7158    1.8352 N   0  0  0  0  0  0  0  0  0  0  0  0
   -0.2948  -10.1826    3.6918 O   0  0  0  0  0  0  0  0  0  0  0  0
    0.7602  -12.2215    3.9353 O   0  0  0  0  0  0  0  0  0  0  0  0
    0.1043   -5.7390    1.1945 C   0  0  0  0  0  0  0  0  0  0  0  0
    1.0009   -4.6205    1.8307 N   0  0  0  0  0  0  0  0  0  0  0  0
    1.5743   -5.4699    2.9574 C   0  0  0  0  0  0  0  0  0  0  0  0
   -0.6691   -5.1950    0.2750 C   0  0  0  0  0  0  0  0  0  0  0  0
   -0.9385   -3.8846   -0.0447 C   0  0  0  0  0  0  0  0  0  0  0  0
   -1.6676   -3.5932   -1.2268 C   0  0  0  0  0  0  0  0  0  0  0  0
   -1.7973   -2.2596   -1.5471 C   0  0  0  0  0  0  0  0  0  0  0  0
   -1.3033   -1.2189   -1.0600 C   0  0  0  0  0  0  0  0  0  0  0  0
   -0.4545   -1.4932    0.1697 C   0  0  0  0  0  0  0  0  0  0  0  0
   -0.2183   -2.7508    0.5697 C   0  0  0  0  0  0  0  0  0  0  0  0
  2  1  1  6
  1  3  1  0
  3  4  1  0
  4  5  1  0
  2  6  1  0
  5  7  2  0
  5  8  1  0
  6  9  2  0
  9 10  1  0
  2 11  1  0
 10 11  1  0
  9 12  1  0
 12 13  1  0
 13 14  2  0
 14 15  1  0
 15 16  2  0
 16 17  1  0
 17 18  2  0
 13 18  1  0
M  END

$$$$
No_283-/export/home/yangzhenyu/potential_scad_32_flow//YTHDC2/2024-12-06-03-22-00/
     RDKit          3D

 17 17  0  0  0  0  0  0  0  0999 V2000
    1.1787   -8.0297    3.5154 C   0  0  0  0  0  0  0  0  0  0  0  0
    1.1048   -9.2215    3.2892 C   0  0  0  0  0  0  0  0  0  0  0  0
    1.3627  -10.1721    4.3044 C   0  0  0  0  0  0  0  0  0  0  0  0
    1.7354  -11.4730    3.9023 C   0  0  0  0  0  0  0  0  0  0  0  0
    1.8080  -11.8127    2.7216 C   0  0  0  0  0  0  0  0  0  0  0  0
    1.5854  -11.0021    1.7249 C   0  0  0  0  0  0  0  0  0  0  0  0
    1.3573   -9.7389    1.9287 C   0  0  0  0  0  0  0  0  0  0  0  0
    1.2865   -8.8078    0.9161 C   0  0  0  0  0  0  0  0  0  0  0  0
    1.6845   -9.1638   -0.2896 C   0  0  0  0  0  0  0  0  0  0  0  0
    1.0768   -8.8580   -1.3382 O   0  0  0  0  0  0  0  0  0  0  0  0
    2.9730   -9.5145   -0.5934 O   0  0  0  0  0  0  0  0  0  0  0  0
    2.0318  -13.2452    2.4010 Cl  0  0  0  0  0  0  0  0  0  0  0  0
    2.3005   -7.1968    3.6688 O   0  0  0  0  0  0  0  0  0  0  0  0
    0.0233   -7.3888    3.4824 O   0  0  0  0  0  0  0  0  0  0  0  0
    0.8100   -7.5861    0.9861 C   0  0  0  0  0  0  0  0  0  0  0  0
    1.6001   -6.3627    1.0392 O   0  0  0  0  0  0  0  0  0  0  0  0
   -0.4747   -7.2394    0.9067 O   0  0  0  0  0  0  0  0  0  0  0  0
  1  2  1  0
  7  8  1  0
  8  9  1  0
  9 10  1  0
  9 11  2  0
  5 12  1  0
  1 13  1  0
  1 14  2  0
  8 15  1  0
 15 16  1  0
 15 17  2  0
  2  3  2  0
  3  4  1  0
  4  5  2  0
  5  6  1  0
  6  7  2  0
  2  7  1  0
M  END

$$$$
No_284-/export/home/yangzhenyu/potential_scad_32_flow//YTHDC2/2024-12-06-03-22-00/
     RDKit          3D

 18 20  0  0  0  0  0  0  0  0999 V2000
    1.1787   -8.0297    3.5154 C   0  0  0  0  0  0  0  0  0  0  0  0
    1.1048   -9.2215    3.2892 C   0  0  0  0  0  0  0  0  0  0  0  0
    1.2339   -9.7611    2.0189 C   0  0  0  0  0  0  0  0  0  0  0  0
    1.3583   -9.0036    0.9764 C   0  0  0  0  0  0  0  0  0  0  0  0
    1.5996   -7.6362    1.1311 C   0  0  0  0  0  0  0  0  0  0  0  0
    1.2231   -7.3836    4.5094 C   0  0  0  0  0  0  0  0  0  0  0  0
    1.4788   -7.0893    2.3422 C   0  0  0  0  0  0  0  0  0  0  0  0
    1.4518   -5.7430    2.5901 C   0  0  0  0  0  0  0  0  0  0  0  0
    1.1340  -11.2250    1.8313 C   0  0  0  0  0  0  0  0  0  0  0  0
    1.8977  -12.0777    2.4229 C   0  0  0  0  0  0  0  0  0  0  0  0
    1.6779  -13.4237    2.1076 C   0  0  0  0  0  0  0  0  0  0  0  0
    0.6567  -13.8155    1.3546 C   0  0  0  0  0  0  0  0  0  0  0  0
   -0.1011  -12.8969    0.6536 C   0  0  0  0  0  0  0  0  0  0  0  0
    0.1702  -11.5218    0.9063 C   0  0  0  0  0  0  0  0  0  0  0  0
    1.0583   -6.2322    4.8078 C   0  0  0  0  0  0  0  0  0  0  0  0
    1.3508   -5.2150    3.8040 C   0  0  0  0  0  0  0  0  0  0  0  0
    2.4723  -14.4059    2.8288 O   0  0  0  0  0  0  0  0  0  0  0  0
   -0.7065  -10.7051    0.3332 C   0  0  0  0  0  0  0  0  0  0  0  0
  3  9  1  0
 11 17  1  0
 14 18  1  0
  1  2  2  0
  2  3  1  0
  3  4  2  0
  4  5  1  0
  5  7  2  0
  9 10  2  0
 10 11  1  0
 11 12  2  0
 12 13  1  0
 13 14  2  0
  9 14  1  0
  1  6  1  0
  6 15  2  0
 15 16  1  0
  8 16  2  0
  7  8  1  0
  1  7  1  0
M  END

$$$$
No_285-/export/home/yangzhenyu/potential_scad_32_flow//YTHDC2/2024-12-06-03-22-00/
     RDKit          3D

 17 17  0  0  1  0  0  0  0  0999 V2000
    1.1787   -8.0297    3.5154 C   0  0  0  0  0  0  0  0  0  0  0  0
    1.0491   -6.8434    2.9820 C   0  0  0  0  0  0  0  0  0  0  0  0
    1.9985   -8.9840    2.8958 C   0  0  2  0  0  0  0  0  0  0  0  0
    1.7297   -9.2108    1.6335 C   0  0  0  0  0  0  0  0  0  0  0  0
    1.7343   -8.0566    0.8408 C   0  0  2  0  0  0  0  0  0  0  0  0
    1.0269   -6.8892    1.4456 C   0  0  0  0  0  0  0  0  0  0  0  0
    1.7596   -8.0979   -0.4723 C   0  0  0  0  0  0  0  0  0  0  0  0
    2.7309   -8.8718   -1.0817 C   0  0  0  0  0  0  0  0  0  0  0  0
    2.4234  -10.1661    3.6309 C   0  0  0  0  0  0  0  0  0  0  0  0
    3.4195  -10.3892    4.0584 N   0  0  0  0  0  0  0  0  0  0  0  0
    1.4676  -11.1009    3.9206 O   0  0  0  0  0  0  0  0  0  0  0  0
    3.8370  -11.4139    4.9937 C   0  0  0  0  0  0  0  0  0  0  0  0
    3.8691   -8.4701   -1.6335 O   0  0  0  0  0  0  0  0  0  0  0  0
    2.7774  -10.0490   -1.0779 O   0  0  0  0  0  0  0  0  0  0  0  0
    4.7877  -10.5955    5.9685 C   0  0  0  0  0  0  0  0  0  0  0  0
    0.8519   -5.7404    0.8415 O   0  0  0  0  0  0  0  0  0  0  0  0
    0.8001   -5.6845    3.5024 O   0  0  0  0  0  0  0  0  0  0  0  0
  1  2  1  0
  1  3  1  0
  3  4  1  0
  4  5  1  0
  2  6  1  0
  5  6  1  0
  5  7  1  6
  7  8  1  0
  3  9  1  1
  9 10  1  0
  9 11  2  0
 10 12  1  0
  8 13  2  0
  8 14  1  0
 12 15  1  0
  6 16  2  0
  2 17  2  0
M  END

$$$$
No_286-/export/home/yangzhenyu/potential_scad_32_flow//YTHDC2/2024-12-06-03-22-00/
     RDKit          3D

 18 18  0  0  1  0  0  0  0  0999 V2000
    1.1787   -8.0297    3.5154 C   0  0  0  0  0  0  0  0  0  0  0  0
    1.0491   -6.8434    2.9820 C   0  0  0  0  0  0  0  0  0  0  0  0
    1.9985   -8.9840    2.8958 C   0  0  0  0  0  0  0  0  0  0  0  0
    1.1815  -10.1889    2.5497 C   0  0  0  0  0  0  0  0  0  0  0  0
    0.9817  -11.1388    2.8134 C   0  0  2  0  0  0  0  0  0  0  0  0
    1.6854  -11.5768    4.1035 C   0  0  0  0  0  0  0  0  0  0  0  0
    1.3832   -6.6295    1.8080 C   0  0  0  0  0  0  0  0  0  0  0  0
    1.0510   -5.2427    1.3489 N   0  0  0  0  0  0  0  0  0  0  0  0
    0.5722   -4.6954    2.4979 C   0  0  0  0  0  0  0  0  0  0  0  0
    0.5746   -5.7159    3.5214 N   0  0  0  0  0  0  0  0  0  0  0  0
    1.2862  -12.3172    2.0778 C   0  0  0  0  0  0  0  0  0  0  0  0
    1.2601  -12.0467    0.7789 O   0  0  0  0  0  0  0  0  0  0  0  0
    1.6667  -13.5125    2.5023 N   0  0  0  0  0  0  0  0  0  0  0  0
    1.2113  -14.2586    3.3369 C   0  0  0  0  0  0  0  0  0  0  0  0
    1.3163  -15.6727    3.2339 C   0  0  2  0  0  0  0  0  0  0  0  0
    2.1474  -16.2404    2.3460 C   0  0  0  0  0  0  0  0  0  0  0  0
    0.5545  -16.5964    3.9206 C   0  0  0  0  0  0  0  0  0  0  0  0
    3.1023  -15.5561    1.6982 C   0  0  0  0  0  0  0  0  0  0  0  0
  1  2  1  0
  1  3  1  0
  3  4  1  0
  4  5  1  0
  5  6  1  1
  2  7  1  0
  7  8  2  0
  8  9  1  0
  2 10  2  0
  9 10  1  0
  5 11  1  0
 11 12  2  0
 11 13  1  0
 13 14  1  0
 14 15  1  0
 15 16  1  0
 15 17  1  6
 16 18  1  0
M  END

$$$$
No_287-/export/home/yangzhenyu/potential_scad_32_flow//YTHDC2/2024-12-06-03-22-00/
     RDKit          3D

 21 21  0  0  1  0  0  0  0  0999 V2000
    1.1787   -8.0297    3.5154 C   0  0  0  0  0  0  0  0  0  0  0  0
    1.0491   -6.8434    2.9820 C   0  0  0  0  0  0  0  0  0  0  0  0
    1.9985   -8.9840    2.8958 C   0  0  0  0  0  0  0  0  0  0  0  0
    1.9135  -10.3404    3.6266 C   0  0  0  0  0  0  0  0  0  0  0  0
    0.9460  -10.6347    4.5748 C   0  0  0  0  0  0  0  0  0  0  0  0
   -0.0977   -9.6850    4.6652 C   0  0  0  0  0  0  0  0  0  0  0  0
   -0.0465   -8.4791    4.1040 C   0  0  0  0  0  0  0  0  0  0  0  0
    0.3395   -6.3173    2.3392 O   0  0  0  0  0  0  0  0  0  0  0  0
    2.1553   -5.9943    3.3413 O   0  0  0  0  0  0  0  0  0  0  0  0
    0.8504  -11.9293    4.8154 O   0  0  0  0  0  0  0  0  0  0  0  0
    3.1330  -11.4215    3.3678 C   0  0  0  0  0  0  0  0  0  0  0  0
    2.7121  -12.1394    2.4148 N   0  0  0  0  0  0  0  0  0  0  0  0
    1.9783  -11.9553    1.2950 C   0  0  0  0  0  0  0  0  0  0  0  0
    1.8154  -10.7847    0.7542 O   0  0  0  0  0  0  0  0  0  0  0  0
    1.6106  -13.1553    0.5169 C   0  0  0  0  0  0  0  0  0  0  0  0
    1.8941  -14.3955    1.0601 C   0  0  0  0  0  0  0  0  0  0  0  0
    1.1101  -14.8366    1.7815 C   0  0  0  0  0  0  0  0  0  0  0  0
   -0.1906  -14.5636    1.9523 O   0  0  0  0  0  0  0  0  0  0  0  0
    1.4492  -15.8642    2.7178 P   0  0  1  0  0  0  0  0  0  0  0  0
    0.5333  -16.0425    4.0434 O   0  0  0  0  0  0  0  0  0  0  0  0
    1.3522  -17.4765    2.2552 O   0  0  0  0  0  0  0  0  0  0  0  0
  1  2  1  0
  2  8  2  0
  2  9  1  0
  5 10  1  0
  4 11  1  0
 11 12  1  0
 12 13  1  0
 13 14  2  0
 13 15  1  0
 15 16  1  0
 16 17  1  0
 17 18  2  0
 17 19  1  0
 19 20  1  1
 19 21  2  0
  1  3  2  0
  3  4  1  0
  4  5  2  0
  5  6  1  0
  6  7  2  0
  1  7  1  0
M  END

$$$$
No_288-/export/home/yangzhenyu/potential_scad_32_flow//YTHDC2/2024-12-06-03-22-00/
     RDKit          3D

 18 17  0  0  1  0  0  0  0  0999 V2000
    1.1787   -8.0297    3.5154 C   0  0  0  0  0  0  0  0  0  0  0  0
    1.0491   -6.8434    2.9820 C   0  0  1  0  0  0  0  0  0  0  0  0
    0.0950   -8.8404    3.2292 C   0  0  0  0  0  0  0  0  0  0  0  0
    0.0602  -10.1764    3.8231 C   0  0  0  0  0  0  0  0  0  0  0  0
    1.5923   -5.7013    3.3969 C   0  0  0  0  0  0  0  0  0  0  0  0
    1.2587  -10.7931    4.3169 C   0  0  0  0  0  0  0  0  0  0  0  0
    0.6908   -6.7763    1.5660 C   0  0  0  0  0  0  0  0  0  0  0  0
    2.4454  -10.6211    3.8937 C   0  0  0  0  0  0  0  0  0  0  0  0
    1.2555   -7.5521    0.6380 N   0  0  0  0  0  0  0  0  0  0  0  0
    0.6047   -8.3454   -0.1589 C   0  0  0  0  0  0  0  0  0  0  0  0
   -0.7294   -8.2294   -0.2764 O   0  0  0  0  0  0  0  0  0  0  0  0
    1.1738   -9.1270   -1.1895 C   0  0  0  0  0  0  0  0  0  0  0  0
    2.1892   -9.2032   -1.2891 O   0  0  0  0  0  0  0  0  0  0  0  0
    2.7103  -10.5076    2.5832 F   0  0  0  0  0  0  0  0  0  0  0  0
    3.5280  -11.5469    4.2880 F   0  0  0  0  0  0  0  0  0  0  0  0
    1.4000   -4.4738    2.8225 O   0  0  0  0  0  0  0  0  0  0  0  0
    1.9827   -5.7025    4.6560 O   0  0  0  0  0  0  0  0  0  0  0  0
    0.6913  -10.2516   -1.3942 O   0  0  0  0  0  0  0  0  0  0  0  0
  1  2  1  0
  1  3  2  3
  3  4  1  0
  2  5  1  0
  4  6  2  3
  2  7  1  6
  6  8  1  0
  7  9  1  0
  9 10  1  0
 10 11  2  0
 10 12  1  0
 12 13  2  0
  8 14  1  0
  8 15  1  0
  5 16  2  0
  5 17  1  0
 12 18  1  0
M  END

$$$$
No_289-/export/home/yangzhenyu/potential_scad_32_flow//YTHDC2/2024-12-06-03-22-00/
     RDKit          3D

 19 19  0  0  0  0  0  0  0  0999 V2000
    1.1787   -8.0297    3.5154 C   0  0  0  0  0  0  0  0  0  0  0  0
    1.0491   -6.8434    2.9820 N   0  0  0  0  0  0  0  0  0  0  0  0
    2.0155   -8.9614    2.9776 C   0  0  0  0  0  0  0  0  0  0  0  0
    1.9967   -9.1783    1.7307 C   0  0  0  0  0  0  0  0  0  0  0  0
    1.8014   -8.0876    0.9798 C   0  0  0  0  0  0  0  0  0  0  0  0
    1.3150   -6.9842    1.5322 C   0  0  0  0  0  0  0  0  0  0  0  0
    2.1728   -8.1811   -0.3739 C   0  0  0  0  0  0  0  0  0  0  0  0
    1.2957   -8.6016   -1.1883 O   0  0  0  0  0  0  0  0  0  0  0  0
    3.4144   -7.9971   -0.8667 O   0  0  0  0  0  0  0  0  0  0  0  0
    2.1137  -10.3002    3.7760 C   0  0  0  0  0  0  0  0  0  0  0  0
    3.1302  -10.3892    4.5093 N   0  0  0  0  0  0  0  0  0  0  0  0
    1.2946  -11.2787    3.6925 O   0  0  0  0  0  0  0  0  0  0  0  0
    3.3919  -11.6098    5.3653 N   0  0  0  0  0  0  0  0  0  0  0  0
    4.7454  -11.6921    5.5279 C   0  0  0  0  0  0  0  0  0  0  0  0
    1.0915   -5.7385    0.7950 F   0  0  0  0  0  0  0  0  0  0  0  0
    5.5117  -10.5487    5.3459 O   0  0  0  0  0  0  0  0  0  0  0  0
    2.6385  -10.2878    1.1106 C   0  0  0  0  0  0  0  0  0  0  0  0
    1.8077  -11.1481    0.4180 O   0  0  0  0  0  0  0  0  0  0  0  0
    3.8011  -10.6794    1.2139 O   0  0  0  0  0  0  0  0  0  0  0  0
  5  7  1  0
  7  8  2  0
  7  9  1  0
  3 10  1  0
 10 11  1  0
 10 12  2  0
 11 13  1  0
 13 14  1  0
  6 15  1  0
 14 16  2  0
  4 17  1  0
 17 18  2  0
 17 19  1  0
  1  2  2  0
  2  6  1  0
  5  6  2  0
  4  5  1  0
  3  4  2  0
  1  3  1  0
M  END

$$$$
No_290-/export/home/yangzhenyu/potential_scad_32_flow//YTHDC2/2024-12-06-03-22-00/
     RDKit          3D

 19 19  0  0  0  0  0  0  0  0999 V2000
    1.1787   -8.0297    3.5154 C   0  0  0  0  0  0  0  0  0  0  0  0
    1.1048   -9.2215    3.2892 C   0  0  0  0  0  0  0  0  0  0  0  0
    1.3627  -10.1721    4.3044 C   0  0  0  0  0  0  0  0  0  0  0  0
    1.7354  -11.4730    3.9023 C   0  0  0  0  0  0  0  0  0  0  0  0
    1.8080  -11.8127    2.7216 C   0  0  0  0  0  0  0  0  0  0  0  0
    1.5854  -11.0021    1.7249 C   0  0  0  0  0  0  0  0  0  0  0  0
    1.3573   -9.7389    1.9287 C   0  0  0  0  0  0  0  0  0  0  0  0
    1.2865   -8.8078    0.9161 C   0  0  0  0  0  0  0  0  0  0  0  0
    1.6845   -9.1638   -0.2896 C   0  0  0  0  0  0  0  0  0  0  0  0
    2.0771  -13.2284    2.3629 C   0  0  0  0  0  0  0  0  0  0  0  0
    2.4409  -13.5750    1.0743 O   0  0  0  0  0  0  0  0  0  0  0  0
    2.0821  -14.1980    3.2340 O   0  0  0  0  0  0  0  0  0  0  0  0
    1.6355   -8.1272   -1.3715 O   0  0  0  0  0  0  0  0  0  0  0  0
    0.1070   -7.2246    3.3468 O   0  0  0  0  0  0  0  0  0  0  0  0
    2.1922   -7.1925    3.9122 O   0  0  0  0  0  0  0  0  0  0  0  0
    2.1836  -10.1971   -0.6508 O   0  0  0  0  0  0  0  0  0  0  0  0
    1.6160  -15.4242    2.8800 C   0  0  0  0  0  0  0  0  0  0  0  0
    0.2459  -15.6075    2.9216 C   0  0  0  0  0  0  0  0  0  0  0  0
   -0.3678  -16.6027    3.2863 C   0  0  0  0  0  0  0  0  0  0  0  0
  1  2  1  0
  7  8  1  0
  8  9  2  3
  5 10  1  0
 10 11  2  0
 10 12  1  0
  9 13  1  0
  1 14  1  0
  1 15  2  0
  9 16  1  0
 12 17  1  0
 17 18  1  0
 18 19  2  0
  2  3  2  0
  3  4  1  0
  4  5  2  0
  5  6  1  0
  6  7  2  0
  2  7  1  0
M  END

$$$$
No_291-/export/home/yangzhenyu/potential_scad_32_flow//YTHDC2/2024-12-06-03-22-00/
     RDKit          3D

 20 20  0  0  1  0  0  0  0  0999 V2000
    1.1787   -8.0297    3.5154 C   0  0  0  0  0  0  0  0  0  0  0  0
    1.0491   -6.8434    2.9820 C   0  0  0  0  0  0  0  0  0  0  0  0
    1.9985   -8.9840    2.8958 C   0  0  2  0  0  0  0  0  0  0  0  0
    1.7297   -9.2108    1.6335 C   0  0  0  0  0  0  0  0  0  0  0  0
    1.7343   -8.0566    0.8408 C   0  0  2  0  0  0  0  0  0  0  0  0
    1.0269   -6.8892    1.4456 C   0  0  0  0  0  0  0  0  0  0  0  0
    2.0740   -7.9416   -0.3682 C   0  0  0  0  0  0  0  0  0  0  0  0
    2.2588   -9.0634   -1.1089 O   0  0  0  0  0  0  0  0  0  0  0  0
    2.8493   -9.6992    3.5301 C   0  0  0  0  0  0  0  0  0  0  0  0
    2.2153  -10.5755    4.5978 O   0  0  0  0  0  0  0  0  0  0  0  0
    2.7314   -7.1900   -0.8131 O   0  0  0  0  0  0  0  0  0  0  0  0
    3.9824  -10.3020    3.3638 O   0  0  0  0  0  0  0  0  0  0  0  0
    0.8840   -5.6236    3.4752 O   0  0  0  0  0  0  0  0  0  0  0  0
    0.6285   -5.8091    0.9163 O   0  0  0  0  0  0  0  0  0  0  0  0
    1.6245  -10.3907    1.1715 O   0  0  0  0  0  0  0  0  0  0  0  0
    0.5372   -8.1396    4.5393 O   0  0  0  0  0  0  0  0  0  0  0  0
    4.6872  -10.9035    4.2465 C   0  0  0  0  0  0  0  0  0  0  0  0
    4.0590  -11.2414    5.4131 C   0  0  0  0  0  0  0  0  0  0  0  0
    4.4279  -10.1556    6.5743 O   0  0  0  0  0  0  0  0  0  0  0  0
    3.2409  -10.3464    7.4193 C   0  0  0  0  0  0  0  0  0  0  0  0
  1  2  1  0
  1  3  1  0
  3  4  1  0
  4  5  1  0
  2  6  1  0
  5  6  1  0
  5  7  1  6
  7  8  1  0
  3  9  1  1
  9 10  2  0
  7 11  2  0
  9 12  1  0
  2 13  2  0
  6 14  2  0
  4 15  2  0
  1 16  2  0
 12 17  1  0
 17 18  1  0
 18 19  1  0
 19 20  1  0
M  END

$$$$
No_292-/export/home/yangzhenyu/potential_scad_32_flow//YTHDC2/2024-12-06-03-22-00/
     RDKit          3D

 18 18  0  0  1  0  0  0  0  0999 V2000
    1.1787   -8.0297    3.5154 C   0  0  0  0  0  0  0  0  0  0  0  0
    1.0491   -6.8434    2.9820 C   0  0  0  0  0  0  0  0  0  0  0  0
    0.9905   -9.0774    2.6527 C   0  0  0  0  0  0  0  0  0  0  0  0
    0.7897   -8.9519    1.3691 C   0  0  0  0  0  0  0  0  0  0  0  0
    0.7018   -7.7198    0.7892 C   0  0  0  0  0  0  0  0  0  0  0  0
    0.8918   -6.5957    1.6117 C   0  0  0  0  0  0  0  0  0  0  0  0
    1.0711  -10.4814    3.2282 C   0  0  1  0  0  0  0  0  0  0  0  0
    1.1227  -11.5770    2.4616 Cl  0  0  0  0  0  0  0  0  0  0  0  0
    1.2570  -10.5660    4.6279 C   0  0  0  0  0  0  0  0  0  0  0  0
    0.8312   -5.2622    1.1399 F   0  0  0  0  0  0  0  0  0  0  0  0
    0.4886  -11.0493    5.3018 C   0  0  0  0  0  0  0  0  0  0  0  0
    2.7405  -10.4674    5.1085 N   0  0  0  0  0  0  0  0  0  0  0  0
    3.4336  -11.1198    5.7743 N   0  0  0  0  0  0  0  0  0  0  0  0
    4.7413  -10.5597    5.8196 C   0  0  0  0  0  0  0  0  0  0  0  0
    5.4821  -10.7106    4.5699 N   0  0  0  0  0  0  0  0  0  0  0  0
    0.6404  -10.0945    0.2319 Cl  0  0  0  0  0  0  0  0  0  0  0  0
    1.2997   -5.7247    3.8162 O   0  0  0  0  0  0  0  0  0  0  0  0
    6.0472   -9.9587    3.9814 C   0  0  0  0  0  0  0  0  0  0  0  0
  3  7  1  0
  7  8  1  6
  7  9  1  0
  6 10  1  0
  9 11  2  0
  9 12  1  0
 12 13  1  0
 13 14  2  3
 14 15  1  0
  4 16  1  0
  2 17  1  0
 15 18  1  0
  1  2  2  0
  2  6  1  0
  5  6  2  0
  4  5  1  0
  3  4  2  0
  1  3  1  0
M  END

$$$$
No_293-/export/home/yangzhenyu/potential_scad_32_flow//YTHDC2/2024-12-06-03-22-00/
     RDKit          3D

 19 19  0  0  0  0  0  0  0  0999 V2000
    1.1787   -8.0297    3.5154 C   0  0  0  0  0  0  0  0  0  0  0  0
    1.0491   -6.8434    2.9820 C   0  0  0  0  0  0  0  0  0  0  0  0
    0.9905   -9.0774    2.6527 C   0  0  0  0  0  0  0  0  0  0  0  0
    0.7897   -8.9519    1.3691 C   0  0  0  0  0  0  0  0  0  0  0  0
    0.7018   -7.7198    0.7892 C   0  0  0  0  0  0  0  0  0  0  0  0
    1.4312   -5.5794    3.7443 C   0  0  0  0  0  0  0  0  0  0  0  0
    0.9426   -6.6664    1.5322 C   0  0  0  0  0  0  0  0  0  0  0  0
    0.9111   -5.4001    1.0251 N   0  0  0  0  0  0  0  0  0  0  0  0
    1.1151  -10.5048    3.1747 C   0  0  0  0  0  0  0  0  0  0  0  0
    0.1927  -11.2794    3.3745 C   0  0  0  0  0  0  0  0  0  0  0  0
    0.5049  -12.6711    3.4820 C   0  0  0  0  0  0  0  0  0  0  0  0
    1.8066  -13.1096    3.4771 C   0  0  0  0  0  0  0  0  0  0  0  0
    1.9261  -14.5851    3.1679 C   0  0  0  0  0  0  0  0  0  0  0  0
    0.9832  -15.4378    3.3184 O   0  0  0  0  0  0  0  0  0  0  0  0
    3.0402  -14.9726    2.4502 O   0  0  0  0  0  0  0  0  0  0  0  0
    1.2580   -4.3695    3.1400 Cl  0  0  0  0  0  0  0  0  0  0  0  0
    0.6581  -10.0630    0.4395 O   0  0  0  0  0  0  0  0  0  0  0  0
    2.5786  -10.6372    3.6005 O   0  0  0  0  0  0  0  0  0  0  0  0
    0.0276  -10.0009   -0.5902 C   0  0  0  0  0  0  0  0  0  0  0  0
  2  6  1  0
  3  9  1  0
  9 10  1  0
 10 11  2  3
 11 12  1  0
 12 13  1  0
 13 14  2  0
 13 15  1  0
  6 16  1  0
  4 17  1  0
  9 18  2  0
 17 19  1  0
  7  8  1  0
  1  2  2  0
  2  7  1  0
  5  7  2  0
  4  5  1  0
  3  4  2  0
  1  3  1  0
M  END

$$$$
No_294-/export/home/yangzhenyu/potential_scad_32_flow//YTHDC2/2024-12-06-03-22-00/
     RDKit          3D

 20 20  0  0  1  0  0  0  0  0999 V2000
    1.1787   -8.0297    3.5154 F   0  0  0  0  0  0  0  0  0  0  0  0
    0.5289   -7.6579    2.7015 C   0  0  2  0  0  0  0  0  0  0  0  0
   -0.0336   -8.5744    1.9903 C   0  0  0  0  0  0  0  0  0  0  0  0
    0.6623   -9.1912    1.3325 O   0  0  0  0  0  0  0  0  0  0  0  0
   -1.3368   -8.8075    2.1540 N   0  0  0  0  0  0  0  0  0  0  0  0
    1.3130   -6.6567    1.6890 C   0  0  0  0  0  0  0  0  0  0  0  0
   -2.0472   -9.7811    1.5789 C   0  0  0  0  0  0  0  0  0  0  0  0
   -1.8188  -10.9984    1.8632 C   0  0  2  0  0  0  0  0  0  0  0  0
   -1.6664  -11.3229    3.1059 C   0  0  0  0  0  0  0  0  0  0  0  0
   -0.9862  -12.5470    3.4798 C   0  0  0  0  0  0  0  0  0  0  0  0
   -0.7219  -13.4648    2.5588 C   0  0  1  0  0  0  0  0  0  0  0  0
   -0.8853  -13.2325    1.2703 C   0  0  0  0  0  0  0  0  0  0  0  0
   -1.4023  -12.0126    0.8412 C   0  0  0  0  0  0  0  0  0  0  0  0
   -1.4915  -11.6529   -0.4598 O   0  0  0  0  0  0  0  0  0  0  0  0
    1.0164   -5.2501    2.0375 O   0  0  0  0  0  0  0  0  0  0  0  0
   -0.0909  -14.9537    2.9580 C   0  0  0  0  0  0  0  0  0  0  0  0
    1.2757  -14.9573    3.0095 C   0  0  2  0  0  0  0  0  0  0  0  0
    2.1212  -13.9560    2.6677 C   0  0  0  0  0  0  0  0  0  0  0  0
    1.7811  -16.2990    3.1579 C   0  0  0  0  0  0  0  0  0  0  0  0
    2.9129  -16.7671    2.5728 C   0  0  0  0  0  0  0  0  0  0  0  0
  2  1  1  1
  2  3  1  0
  3  4  2  0
  3  5  1  0
  2  6  1  0
  5  7  1  0
  8  7  1  6
  8  9  1  0
 10 11  1  0
  8 13  1  0
 12 13  1  0
 13 14  2  0
  6 15  1  0
 11 16  1  6
 16 17  1  0
 17 18  1  6
 17 19  1  0
 19 20  1  0
  9 10  1  0
 11 12  1  0
M  END

$$$$
No_295-/export/home/yangzhenyu/potential_scad_32_flow//YTHDC2/2024-12-06-03-22-00/
     RDKit          3D

 18 18  0  0  0  0  0  0  0  0999 V2000
    1.1787   -8.0297    3.5154 C   0  0  0  0  0  0  0  0  0  0  0  0
    1.0491   -6.8434    2.9820 C   0  0  0  0  0  0  0  0  0  0  0  0
    0.9905   -9.0774    2.6527 C   0  0  0  0  0  0  0  0  0  0  0  0
    0.7897   -8.9519    1.3691 C   0  0  0  0  0  0  0  0  0  0  0  0
    0.6550  -10.0985    0.4848 C   0  0  0  0  0  0  0  0  0  0  0  0
    0.7849   -6.5836    1.6043 C   0  0  0  0  0  0  0  0  0  0  0  0
    0.6652   -7.6671    0.8008 C   0  0  0  0  0  0  0  0  0  0  0  0
    1.2441  -11.1828    0.5777 O   0  0  0  0  0  0  0  0  0  0  0  0
   -0.7197  -10.3036    0.0501 O   0  0  0  0  0  0  0  0  0  0  0  0
    1.2016  -10.4369    3.2263 N   0  0  0  0  0  0  0  0  0  0  0  0
    2.5533  -10.9305    3.5325 C   0  0  0  0  0  0  0  0  0  0  0  0
    3.1814  -10.2973    4.4750 C   0  0  0  0  0  0  0  0  0  0  0  0
    4.2761  -11.1158    5.0412 O   0  0  0  0  0  0  0  0  0  0  0  0
    0.7093   -5.2753    1.0849 P   0  0  0  0  0  0  0  0  0  0  0  0
    0.1122   -4.9826   -0.1981 O   0  0  0  0  0  0  0  0  0  0  0  0
   -0.0322   -4.2492    2.1548 O   0  0  0  0  0  0  0  0  0  0  0  0
    2.0799   -4.4843    1.2184 O   0  0  0  0  0  0  0  0  0  0  0  0
    0.1448  -11.2647    3.5882 C   0  0  0  0  0  0  0  0  0  0  0  0
  4  5  1  0
  5  8  1  0
  5  9  2  0
  3 10  1  0
 10 11  1  0
 11 12  1  0
 12 13  1  0
  6 14  1  0
 14 15  1  0
 14 16  1  0
 14 17  2  0
 10 18  1  0
  1  2  2  0
  2  6  1  0
  6  7  2  0
  4  7  1  0
  3  4  2  0
  1  3  1  0
M  END

$$$$
No_296-/export/home/yangzhenyu/potential_scad_32_flow//YTHDC2/2024-12-06-03-22-00/
     RDKit          3D

 20 20  0  0  1  0  0  0  0  0999 V2000
    1.1787   -8.0297    3.5154 C   0  0  0  0  0  0  0  0  0  0  0  0
    1.0491   -6.8434    2.9820 C   0  0  0  0  0  0  0  0  0  0  0  0
    0.9905   -9.0774    2.6527 C   0  0  1  0  0  0  0  0  0  0  0  0
    0.7897   -8.9519    1.3691 C   0  0  0  0  0  0  0  0  0  0  0  0
    0.7018   -7.7198    0.7892 C   0  0  0  0  0  0  0  0  0  0  0  0
    0.8918   -6.5957    1.6117 C   0  0  0  0  0  0  0  0  0  0  0  0
    1.0998  -10.4710    3.2437 C   0  0  0  0  0  0  0  0  0  0  0  0
    2.1917  -10.8879    3.7399 C   0  0  0  0  0  0  0  0  0  0  0  0
    0.8983   -5.2566    1.2088 O   0  0  0  0  0  0  0  0  0  0  0  0
   -0.0820  -10.6635    4.2423 C   0  0  0  0  0  0  0  0  0  0  0  0
    2.3607  -12.2154    4.0359 O   0  0  0  0  0  0  0  0  0  0  0  0
   -0.9917  -11.4534    3.6789 O   0  0  0  0  0  0  0  0  0  0  0  0
   -0.3312   -9.8907    5.2021 O   0  0  0  0  0  0  0  0  0  0  0  0
    0.6380  -10.0373    0.3953 C   0  0  0  0  0  0  0  0  0  0  0  0
    1.7172  -10.7661    0.1581 O   0  0  0  0  0  0  0  0  0  0  0  0
   -0.4417  -10.4611   -0.0709 O   0  0  0  0  0  0  0  0  0  0  0  0
    1.3447   -5.7332    3.7772 O   0  0  0  0  0  0  0  0  0  0  0  0
    3.2891  -10.2765    3.8738 O   0  0  0  0  0  0  0  0  0  0  0  0
   -1.3491   -9.4309   -0.6346 C   0  0  0  0  0  0  0  0  0  0  0  0
   -1.1676   -9.4591   -2.1070 C   0  0  0  0  0  0  0  0  0  0  0  0
  1  2  1  0
  3  4  1  0
  2  6  1  0
  5  6  1  0
  3  7  1  6
  7  8  1  0
  6  9  2  0
  7 10  1  0
  8 11  1  0
 10 12  2  0
 10 13  1  0
  4 14  1  0
 14 15  2  0
 14 16  1  0
  2 17  2  0
  8 18  2  0
 16 19  1  0
 19 20  1  0
  1  3  1  0
  4  5  1  0
M  END

$$$$
No_297-/export/home/yangzhenyu/potential_scad_32_flow//YTHDC2/2024-12-06-03-22-00/
     RDKit          3D

 17 18  0  0  0  0  0  0  0  0999 V2000
    1.1787   -8.0297    3.5154 C   0  0  0  0  0  0  0  0  0  0  0  0
    1.0491   -6.8434    2.9820 C   0  0  0  0  0  0  0  0  0  0  0  0
    0.2462   -8.9560    3.0873 C   0  0  0  0  0  0  0  0  0  0  0  0
    0.3295   -6.5187    1.9069 C   0  0  0  0  0  0  0  0  0  0  0  0
   -0.5260   -8.7862    2.1368 C   0  0  0  0  0  0  0  0  0  0  0  0
   -0.5458   -7.5614    1.5054 C   0  0  0  0  0  0  0  0  0  0  0  0
    0.2879   -5.2870    1.3175 C   0  0  0  0  0  0  0  0  0  0  0  0
    0.3538  -10.3272    3.6802 C   0  0  0  0  0  0  0  0  0  0  0  0
   -0.8518  -11.0220    3.8256 C   0  0  0  0  0  0  0  0  0  0  0  0
    1.5024  -10.7635    4.3820 C   0  0  0  0  0  0  0  0  0  0  0  0
    1.6221  -12.0886    4.6324 C   0  0  0  0  0  0  0  0  0  0  0  0
   -0.7897  -12.3279    4.1402 C   0  0  0  0  0  0  0  0  0  0  0  0
    0.5118  -12.9015    4.4167 C   0  0  0  0  0  0  0  0  0  0  0  0
    1.2659   -4.3668    1.8296 O   0  0  0  0  0  0  0  0  0  0  0  0
   -0.4217   -4.8622    0.4667 O   0  0  0  0  0  0  0  0  0  0  0  0
    0.6716  -14.2690    4.4386 O   0  0  0  0  0  0  0  0  0  0  0  0
   -0.6744   -7.6665    0.2530 C   0  0  0  0  0  0  0  0  0  0  0  0
  4  7  1  0
  3  8  1  0
  8 10  1  0
  9 12  1  0
 11 13  1  0
 12 13  1  0
  7 14  1  0
  7 15  2  0
 13 16  2  0
  6 17  1  0
 10 11  1  0
  8  9  1  0
  1  2  2  0
  2  4  1  0
  4  6  2  0
  5  6  1  0
  3  5  2  0
  1  3  1  0
M  END

$$$$
No_298-/export/home/yangzhenyu/potential_scad_32_flow//YTHDC2/2024-12-06-03-22-00/
     RDKit          3D

 17 17  0  0  1  0  0  0  0  0999 V2000
    1.1787   -8.0297    3.5154 O   0  0  0  0  0  0  0  0  0  0  0  0
    0.9969   -8.9689    3.0048 C   0  0  1  0  0  0  0  0  0  0  0  0
    0.9976   -8.9567    1.6341 C   0  0  0  0  0  0  0  0  0  0  0  0
    0.7663   -7.7728    1.0082 C   0  0  1  0  0  0  0  0  0  0  0  0
    1.1468   -6.5619    1.6541 C   0  0  0  0  0  0  0  0  0  0  0  0
    1.3592   -6.6155    3.0007 C   0  0  0  0  0  0  0  0  0  0  0  0
    0.9781  -10.1276    3.6866 C   0  0  0  0  0  0  0  0  0  0  0  0
   -0.1772  -10.7865    4.0343 C   0  0  0  0  0  0  0  0  0  0  0  0
    2.1937  -10.7840    4.0491 C   0  0  0  0  0  0  0  0  0  0  0  0
    0.7595   -7.7652   -0.3802 C   0  0  0  0  0  0  0  0  0  0  0  0
    1.6092   -8.1040   -1.1393 O   0  0  0  0  0  0  0  0  0  0  0  0
   -0.4712   -7.5421   -0.9259 O   0  0  0  0  0  0  0  0  0  0  0  0
    1.1810  -10.1305    0.9182 O   0  0  0  0  0  0  0  0  0  0  0  0
    3.3095  -10.0876    4.5440 O   0  0  0  0  0  0  0  0  0  0  0  0
   -1.2059  -10.7691    3.2302 C   0  0  0  0  0  0  0  0  0  0  0  0
   -1.4045  -11.8471    2.3978 C   0  0  0  0  0  0  0  0  0  0  0  0
   -0.7510  -13.0761    2.5395 C   0  0  0  0  0  0  0  0  0  0  0  0
  1  2  1  0
  2  3  1  0
  3  4  1  0
  4  5  1  0
  1  6  1  0
  5  6  1  0
  2  7  1  6
  7  8  1  0
  7  9  1  0
  4 10  1  6
 10 11  2  0
 10 12  1  0
  3 13  2  0
  9 14  2  0
  8 15  1  0
 15 16  1  0
 16 17  1  0
M  END

$$$$
No_299-/export/home/yangzhenyu/potential_scad_32_flow//YTHDC2/2024-12-06-03-22-00/
     RDKit          3D

 20 20  0  0  0  0  0  0  0  0999 V2000
    1.1787   -8.0297    3.5154 N   0  0  0  0  0  0  0  0  0  0  0  0
    1.0818   -9.0751    3.2053 C   0  0  0  0  0  0  0  0  0  0  0  0
    0.7576   -9.3725    1.9159 C   0  0  0  0  0  0  0  0  0  0  0  0
    0.8823   -8.4917    1.0547 C   0  0  0  0  0  0  0  0  0  0  0  0
    1.4631   -7.3107    1.2451 C   0  0  0  0  0  0  0  0  0  0  0  0
    1.6470   -6.9326    2.5669 C   0  0  0  0  0  0  0  0  0  0  0  0
    0.8161  -10.1250    4.2446 C   0  0  0  0  0  0  0  0  0  0  0  0
   -0.4877  -10.6098    4.4191 O   0  0  0  0  0  0  0  0  0  0  0  0
    1.8007  -10.7241    4.8272 N   0  0  0  0  0  0  0  0  0  0  0  0
    0.8047   -8.9284   -0.3939 C   0  0  0  0  0  0  0  0  0  0  0  0
   -0.5192   -9.0730   -0.7134 O   0  0  0  0  0  0  0  0  0  0  0  0
    1.4918   -8.6365   -1.3604 O   0  0  0  0  0  0  0  0  0  0  0  0
    3.1986  -10.6080    4.4811 N   0  0  0  0  0  0  0  0  0  0  0  0
    1.8746   -5.6199    3.0681 Cl  0  0  0  0  0  0  0  0  0  0  0  0
    3.9693  -11.1834    5.4930 N   0  0  0  0  0  0  0  0  0  0  0  0
    0.4304  -10.8023    1.5242 C   0  0  0  0  0  0  0  0  0  0  0  0
    1.3427  -11.7924    1.4007 C   0  0  0  0  0  0  0  0  0  0  0  0
    2.7025  -11.5158    1.1659 O   0  0  0  0  0  0  0  0  0  0  0  0
    1.0855  -13.0896    1.4669 O   0  0  0  0  0  0  0  0  0  0  0  0
    3.5197  -11.5908    6.3005 H   0  0  0  0  0  0  0  0  0  0  0  0
  2  7  1  0
  7  8  2  0
  7  9  1  0
  4 10  1  0
 10 11  2  0
 10 12  1  0
  9 13  1  0
  6 14  1  0
 13 15  2  0
  3 16  1  0
 16 17  1  0
 17 18  2  0
 17 19  1  0
  1  2  2  0
  2  3  1  0
  3  4  2  0
  4  5  1  0
  5  6  2  0
  1  6  1  0
 15 20  1  0
M  END

$$$$
No_300-/export/home/yangzhenyu/potential_scad_32_flow//YTHDC2/2024-12-06-03-22-00/
     RDKit          3D

 20 21  0  0  1  0  0  0  0  0999 V2000
    1.1787   -8.0297    3.5154 C   0  0  0  0  0  0  0  0  0  0  0  0
    1.0491   -6.8434    2.9820 C   0  0  1  0  0  0  0  0  0  0  0  0
    0.9905   -9.0774    2.6527 C   0  0  1  0  0  0  0  0  0  0  0  0
    0.7897   -8.9519    1.3691 C   0  0  0  0  0  0  0  0  0  0  0  0
    0.7018   -7.7198    0.7892 C   0  0  0  0  0  0  0  0  0  0  0  0
    1.4312   -5.5794    3.7443 C   0  0  0  0  0  0  0  0  0  0  0  0
    0.9426   -6.6664    1.5322 C   0  0  0  0  0  0  0  0  0  0  0  0
    0.9111   -5.4001    1.0251 O   0  0  0  0  0  0  0  0  0  0  0  0
    1.1071  -10.5041    3.1810 C   0  0  1  0  0  0  0  0  0  0  0  0
    0.0578  -11.1835    3.4950 C   0  0  0  0  0  0  0  0  0  0  0  0
    0.1521  -12.5286    3.5159 C   0  0  0  0  0  0  0  0  0  0  0  0
    1.3785  -13.1863    3.3108 C   0  0  0  0  0  0  0  0  0  0  0  0
    2.0341  -13.0581    2.5070 C   0  0  0  0  0  0  0  0  0  0  0  0
    2.4134  -11.6119    2.1316 C   0  0  0  0  0  0  0  0  0  0  0  0
    2.0806  -10.6033    2.2180 C   0  0  0  0  0  0  0  0  0  0  0  0
    2.8038  -14.1786    2.1039 O   0  0  0  0  0  0  0  0  0  0  0  0
    0.9466  -14.6813    3.5555 O   0  0  0  0  0  0  0  0  0  0  0  0
    2.6914   -5.2691    3.9979 O   0  0  0  0  0  0  0  0  0  0  0  0
    0.4769   -4.6782    3.7567 O   0  0  0  0  0  0  0  0  0  0  0  0
   -0.9339  -10.5286    4.2414 O   0  0  0  0  0  0  0  0  0  0  0  0
  1  2  1  0
  3  4  1  6
  2  6  1  6
  2  7  1  0
  5  7  1  0
  7  8  2  0
  3  9  1  0
  9 10  1  0
 10 11  2  0
 11 12  1  0
 12 13  2  0
 13 14  1  0
  9 15  1  6
 14 15  1  0
 13 16  1  0
 12 17  1  0
  6 18  2  0
  6 19  1  0
 10 20  1  0
  1  3  1  0
  4  5  1  0
M  END

$$$$
No_301-/export/home/yangzhenyu/potential_scad_32_flow//YTHDC2/2024-12-06-03-22-00/
     RDKit          3D

 20 21  0  0  0  0  0  0  0  0999 V2000
    1.1787   -8.0297    3.5154 C   0  0  0  0  0  0  0  0  0  0  0  0
    1.1048   -9.2215    3.2892 Br  0  0  0  0  0  0  0  0  0  0  0  0
    2.0134   -7.0635    2.7666 C   0  0  0  0  0  0  0  0  0  0  0  0
    1.0842   -6.3174    1.8292 C   0  0  0  0  0  0  0  0  0  0  0  0
   -0.1670   -6.0593    2.0965 O   0  0  0  0  0  0  0  0  0  0  0  0
   -0.8636   -5.2391    1.2095 C   0  0  0  0  0  0  0  0  0  0  0  0
   -0.7035   -3.9652    1.1525 C   0  0  0  0  0  0  0  0  0  0  0  0
   -0.9135   -3.2825   -0.0327 C   0  0  0  0  0  0  0  0  0  0  0  0
   -1.4892   -3.8748   -1.0508 C   0  0  0  0  0  0  0  0  0  0  0  0
   -1.6849   -5.2790   -1.0731 C   0  0  0  0  0  0  0  0  0  0  0  0
   -1.4195   -5.9657    0.0782 C   0  0  0  0  0  0  0  0  0  0  0  0
   -1.6419   -7.2885    0.1460 C   0  0  0  0  0  0  0  0  0  0  0  0
   -2.4883   -7.8731    0.9722 C   0  0  0  0  0  0  0  0  0  0  0  0
   -2.7037   -9.2810    1.1077 C   0  0  0  0  0  0  0  0  0  0  0  0
   -1.9368  -10.0486    0.2680 C   0  0  0  0  0  0  0  0  0  0  0  0
   -1.0186   -9.6141   -0.6024 C   0  0  0  0  0  0  0  0  0  0  0  0
   -0.8096   -8.2065   -0.6417 C   0  0  0  0  0  0  0  0  0  0  0  0
   -2.1026  -11.4769    0.4006 Cl  0  0  0  0  0  0  0  0  0  0  0  0
   -1.7918   -3.2250   -2.2335 S   0  0  0  0  0  0  0  0  0  0  0  0
   -1.1979   -2.0089   -2.3667 O   0  0  0  0  0  0  0  0  0  0  0  0
  1  2  1  0
  1  3  1  0
  3  4  1  0
  4  5  1  0
  5  6  1  0
 11 12  1  0
 15 18  1  0
  9 19  1  0
 19 20  2  0
 12 13  2  0
 13 14  1  0
 14 15  2  0
 15 16  1  0
 16 17  2  0
 12 17  1  0
  6  7  2  0
  7  8  1  0
  8  9  2  0
  9 10  1  0
 10 11  2  0
  6 11  1  0
M  END

$$$$
No_302-/export/home/yangzhenyu/potential_scad_32_flow//YTHDC2/2024-12-06-03-22-00/
     RDKit          3D

 17 17  0  0  1  0  0  0  0  0999 V2000
    1.1787   -8.0297    3.5154 C   0  0  2  0  0  0  0  0  0  0  0  0
    1.0491   -6.8434    2.9820 C   0  0  0  0  0  0  0  0  0  0  0  0
    1.9985   -8.9840    2.8958 C   0  0  0  0  0  0  0  0  0  0  0  0
    1.9135  -10.3404    3.6266 C   0  0  0  0  0  0  0  0  0  0  0  0
    0.9460  -10.6347    4.5748 C   0  0  1  0  0  0  0  0  0  0  0  0
   -0.0977   -9.6850    4.6652 C   0  0  0  0  0  0  0  0  0  0  0  0
   -0.0465   -8.4791    4.1040 C   0  0  0  0  0  0  0  0  0  0  0  0
    0.3395   -6.3173    2.3392 F   0  0  0  0  0  0  0  0  0  0  0  0
    1.5093   -5.9305    4.0589 F   0  0  0  0  0  0  0  0  0  0  0  0
    2.1873   -6.6436    2.0944 F   0  0  0  0  0  0  0  0  0  0  0  0
    0.8704  -12.1075    4.8663 P   0  0  0  0  0  0  0  0  0  0  0  0
    0.0143  -12.2057    5.7358 O   0  0  0  0  0  0  0  0  0  0  0  0
    0.2200  -12.9346    3.6269 O   0  0  0  0  0  0  0  0  0  0  0  0
    2.1613  -12.6212    5.1424 O   0  0  0  0  0  0  0  0  0  0  0  0
   -0.9742   -7.6240    4.3928 O   0  0  0  0  0  0  0  0  0  0  0  0
    2.9564  -11.1498    3.2144 O   0  0  0  0  0  0  0  0  0  0  0  0
   -1.1989  -10.0083    5.3975 O   0  0  0  0  0  0  0  0  0  0  0  0
  1  2  1  6
  1  3  1  0
  4  5  1  0
  1  7  1  0
  6  7  1  0
  2  8  1  0
  2  9  1  0
  2 10  1  0
  5 11  1  6
 11 12  1  0
 11 13  2  0
 11 14  1  0
  7 15  2  0
  4 16  1  0
  6 17  1  0
  3  4  1  0
  5  6  1  0
M  END

$$$$
No_303-/export/home/yangzhenyu/potential_scad_32_flow//YTHDC2/2024-12-06-03-22-00/
     RDKit          3D

 19 18  0  0  1  0  0  0  0  0999 V2000
    1.1787   -8.0297    3.5154 C   0  0  0  0  0  0  0  0  0  0  0  0
    1.1048   -9.2215    3.2892 Cl  0  0  0  0  0  0  0  0  0  0  0  0
    2.0534   -7.0960    2.7571 C   0  0  0  0  0  0  0  0  0  0  0  0
    1.1155   -6.3990    1.7806 C   0  0  0  0  0  0  0  0  0  0  0  0
    0.8206   -5.0071    1.9938 O   0  0  0  0  0  0  0  0  0  0  0  0
    0.7852   -6.8725    0.7049 O   0  0  0  0  0  0  0  0  0  0  0  0
    0.0550   -4.2373    1.2160 C   0  0  1  0  0  0  0  0  0  0  0  0
   -1.2346   -4.5552    1.2892 C   0  0  0  0  0  0  0  0  0  0  0  0
   -1.8480   -4.9568    0.1798 C   0  0  0  0  0  0  0  0  0  0  0  0
   -2.9018   -5.0308    0.2035 O   0  0  0  0  0  0  0  0  0  0  0  0
   -1.1484   -5.4635   -0.8878 O   0  0  0  0  0  0  0  0  0  0  0  0
    0.3926   -2.7659    1.8043 C   0  0  0  0  0  0  0  0  0  0  0  0
    1.9051   -2.5717    1.6840 C   0  0  2  0  0  0  0  0  0  0  0  0
    2.4954   -2.6277    0.8364 C   0  0  0  0  0  0  0  0  0  0  0  0
    2.6053   -3.2135    2.9032 C   0  0  0  0  0  0  0  0  0  0  0  0
    1.5851   -2.1491   -0.4190 C   0  0  0  0  0  0  0  0  0  0  0  0
    0.5603   -1.4750   -0.3649 C   0  0  0  0  0  0  0  0  0  0  0  0
   -0.2543   -1.3609   -1.5646 C   0  0  0  0  0  0  0  0  0  0  0  0
   -0.3507   -2.2426   -2.4849 C   0  0  0  0  0  0  0  0  0  0  0  0
  1  2  1  0
  1  3  1  0
  3  4  1  0
  4  5  1  0
  4  6  2  0
  5  7  1  0
  7  8  1  1
  8  9  1  0
  9 10  2  0
  9 11  1  0
  7 12  1  0
 12 13  1  0
 13 14  1  0
 13 15  1  1
 14 16  1  0
 16 17  2  3
 17 18  1  0
 18 19  1  0
M  END

$$$$
No_304-/export/home/yangzhenyu/potential_scad_32_flow//YTHDC2/2024-12-06-03-22-00/
     RDKit          3D

 19 18  0  0  1  0  0  0  0  0999 V2000
    1.1787   -8.0297    3.5154 C   0  0  0  0  0  0  0  0  0  0  0  0
    1.1048   -9.2215    3.2892 Cl  0  0  0  0  0  0  0  0  0  0  0  0
    2.0534   -7.0960    2.7571 C   0  0  0  0  0  0  0  0  0  0  0  0
    1.1155   -6.3990    1.7806 C   0  0  2  0  0  0  0  0  0  0  0  0
    0.5527   -7.0768    0.7268 C   0  0  0  0  0  0  0  0  0  0  0  0
    1.2750   -8.0707    0.1357 C   0  0  0  0  0  0  0  0  0  0  0  0
    2.6612   -8.2866    0.1655 C   0  0  0  0  0  0  0  0  0  0  0  0
    0.6102   -8.7953   -0.8020 C   0  0  0  0  0  0  0  0  0  0  0  0
   -0.3584   -9.1725   -0.5498 O   0  0  0  0  0  0  0  0  0  0  0  0
    1.1368   -9.1824   -1.8105 O   0  0  0  0  0  0  0  0  0  0  0  0
    3.1170   -9.4394    0.7568 O   0  0  0  0  0  0  0  0  0  0  0  0
    1.0596   -4.9911    2.0633 C   0  0  0  0  0  0  0  0  0  0  0  0
    1.8553   -4.3333    2.7629 O   0  0  0  0  0  0  0  0  0  0  0  0
    0.2958   -4.2758    1.0002 O   0  0  0  0  0  0  0  0  0  0  0  0
    3.6062   -7.5187   -0.3409 O   0  0  0  0  0  0  0  0  0  0  0  0
   -0.1639   -3.0176    1.4268 C   0  0  0  0  0  0  0  0  0  0  0  0
   -1.2826   -2.8906    2.1415 C   0  0  0  0  0  0  0  0  0  0  0  0
   -2.3838   -3.3673    1.5865 C   0  0  0  0  0  0  0  0  0  0  0  0
   -3.1246   -4.2543    2.1405 C   0  0  0  0  0  0  0  0  0  0  0  0
  1  2  1  0
  1  3  1  0
  4  3  1  6
  4  5  1  0
  5  6  1  0
  6  7  1  0
  6  8  1  0
  8  9  1  0
  8 10  2  0
  7 11  2  0
  4 12  1  0
 12 13  2  0
 12 14  1  0
  7 15  1  0
 14 16  1  0
 16 17  1  0
 17 18  1  0
 18 19  2  0
M  END

$$$$
No_305-/export/home/yangzhenyu/potential_scad_32_flow//YTHDC2/2024-12-06-03-22-00/
     RDKit          3D

 20 21  0  0  1  0  0  0  0  0999 V2000
    1.1787   -8.0297    3.5154 C   0  0  0  0  0  0  0  0  0  0  0  0
    1.0491   -6.8434    2.9820 C   0  0  0  0  0  0  0  0  0  0  0  0
    0.0950   -8.8404    3.2292 C   0  0  1  0  0  0  0  0  0  0  0  0
   -0.9173   -8.4596    2.5152 C   0  0  0  0  0  0  0  0  0  0  0  0
   -1.0331   -7.2162    2.0653 C   0  0  1  0  0  0  0  0  0  0  0  0
   -0.0105   -6.3168    2.3081 C   0  0  2  0  0  0  0  0  0  0  0  0
    0.1150   -4.9910    1.8495 C   0  0  0  0  0  0  0  0  0  0  0  0
   -0.5774   -4.1593    2.0596 O   0  0  0  0  0  0  0  0  0  0  0  0
    0.8278   -4.8161    0.6721 O   0  0  0  0  0  0  0  0  0  0  0  0
    0.1883  -10.2848    3.6502 C   0  0  0  0  0  0  0  0  0  0  0  0
   -1.0248  -10.9872    3.7667 C   0  0  0  0  0  0  0  0  0  0  0  0
    1.4410  -10.9197    4.0780 C   0  0  0  0  0  0  0  0  0  0  0  0
    1.5258  -12.2727    4.1604 C   0  0  0  0  0  0  0  0  0  0  0  0
    0.3944  -13.0155    3.9396 C   0  0  0  0  0  0  0  0  0  0  0  0
   -0.8580  -12.4032    3.7719 C   0  0  0  0  0  0  0  0  0  0  0  0
    0.4870  -14.3570    4.0883 Cl  0  0  0  0  0  0  0  0  0  0  0  0
    2.8754  -10.0999    4.0710 F   0  0  0  0  0  0  0  0  0  0  0  0
    2.1855   -5.9326    3.1756 O   0  0  0  0  0  0  0  0  0  0  0  0
   -2.1613   -6.7830    1.2129 C   0  0  0  0  0  0  0  0  0  0  0  0
   -3.2408   -6.4297    1.9388 C   0  0  0  0  0  0  0  0  0  0  0  0
  1  2  1  0
  3  4  1  0
  2  6  1  0
  5  6  1  0
  6  7  1  6
  7  8  2  0
  7  9  1  0
  3 10  1  6
 14 16  1  0
 12 17  1  0
  2 18  2  0
  5 19  1  6
 19 20  2  0
  1  3  1  0
  4  5  1  0
 10 11  2  0
 11 15  1  0
 14 15  2  0
 13 14  1  0
 12 13  2  0
 10 12  1  0
M  END

$$$$
No_306-/export/home/yangzhenyu/potential_scad_32_flow//YTHDC2/2024-12-06-03-22-00/
     RDKit          3D

 17 17  0  0  0  0  0  0  0  0999 V2000
    1.1787   -8.0297    3.5154 C   0  0  0  0  0  0  0  0  0  0  0  0
    1.1048   -9.2215    3.2892 C   0  0  0  0  0  0  0  0  0  0  0  0
    1.3627  -10.1721    4.3044 C   0  0  0  0  0  0  0  0  0  0  0  0
    1.7354  -11.4730    3.9023 C   0  0  0  0  0  0  0  0  0  0  0  0
    1.8080  -11.8127    2.7216 C   0  0  0  0  0  0  0  0  0  0  0  0
    1.5854  -11.0021    1.7249 C   0  0  0  0  0  0  0  0  0  0  0  0
    1.3573   -9.7389    1.9287 C   0  0  0  0  0  0  0  0  0  0  0  0
    1.1102   -8.8712    0.9017 C   0  0  0  0  0  0  0  0  0  0  0  0
    1.5724   -9.1697   -0.3048 C   0  0  0  0  0  0  0  0  0  0  0  0
    1.2378   -8.2159   -1.4226 O   0  0  0  0  0  0  0  0  0  0  0  0
    2.1031  -13.4009    2.2918 C   0  0  0  0  0  0  0  0  0  0  0  0
    2.2848  -13.6763    1.0600 O   0  0  0  0  0  0  0  0  0  0  0  0
    2.2007  -14.3200    3.1850 O   0  0  0  0  0  0  0  0  0  0  0  0
    0.8875   -7.0670    2.9849 O   0  0  0  0  0  0  0  0  0  0  0  0
    2.5221   -9.9853   -0.6789 O   0  0  0  0  0  0  0  0  0  0  0  0
    1.8238   -7.6230    4.6784 O   0  0  0  0  0  0  0  0  0  0  0  0
    1.8154  -15.5831    2.9159 C   0  0  0  0  0  0  0  0  0  0  0  0
  1  2  1  0
  7  8  1  0
  8  9  2  3
  9 10  1  0
  5 11  1  0
 11 12  2  0
 11 13  1  0
  1 14  2  0
  9 15  1  0
  1 16  1  0
 13 17  1  0
  2  3  2  0
  3  4  1  0
  4  5  2  0
  5  6  1  0
  6  7  2  0
  2  7  1  0
M  END

$$$$
No_307-/export/home/yangzhenyu/potential_scad_32_flow//YTHDC2/2024-12-06-03-22-00/
     RDKit          3D

 18 18  0  0  1  0  0  0  0  0999 V2000
    1.1787   -8.0297    3.5154 C   0  0  0  0  0  0  0  0  0  0  0  0
    1.1048   -9.2215    3.2892 C   0  0  0  0  0  0  0  0  0  0  0  0
    1.2339   -9.7611    2.0189 C   0  0  0  0  0  0  0  0  0  0  0  0
    1.3583   -9.0036    0.9764 C   0  0  0  0  0  0  0  0  0  0  0  0
    1.5996   -7.6362    1.1311 C   0  0  0  0  0  0  0  0  0  0  0  0
    1.4830   -7.0928    2.3626 C   0  0  0  0  0  0  0  0  0  0  0  0
    1.4898   -5.7274    2.6199 C   0  0  0  0  0  0  0  0  0  0  0  0
    1.1681  -11.2222    1.8390 C   0  0  0  0  0  0  0  0  0  0  0  0
    0.7145  -11.5870    0.5424 O   0  0  0  0  0  0  0  0  0  0  0  0
    1.6537  -12.0580    2.6183 N   0  0  0  0  0  0  0  0  0  0  0  0
    1.6651  -13.4392    2.3517 C   0  0  1  0  0  0  0  0  0  0  0  0
    2.7106  -14.1509    1.7548 C   0  0  0  0  0  0  0  0  0  0  0  0
    1.0048  -14.2481    3.4221 C   0  0  0  0  0  0  0  0  0  0  0  0
    1.0572  -15.6567    3.0784 O   0  0  0  0  0  0  0  0  0  0  0  0
    1.2417   -4.8542    1.6252 O   0  0  0  0  0  0  0  0  0  0  0  0
    1.7695   -5.1404    3.7989 O   0  0  0  0  0  0  0  0  0  0  0  0
    2.9174  -13.5928    0.4159 O   0  0  0  0  0  0  0  0  0  0  0  0
    3.3675  -15.0601    2.0035 O   0  0  0  0  0  0  0  0  0  0  0  0
  6  7  1  0
  3  8  1  0
  8  9  2  0
  8 10  1  0
 11 10  1  1
 11 12  1  0
 11 13  1  0
 13 14  2  0
  7 15  2  0
  7 16  1  0
 12 17  2  0
 12 18  1  0
  1  2  2  0
  2  3  1  0
  3  4  2  0
  4  5  1  0
  5  6  2  0
  1  6  1  0
M  END

$$$$
No_308-/export/home/yangzhenyu/potential_scad_32_flow//YTHDC2/2024-12-06-03-22-00/
     RDKit          3D

 19 19  0  0  1  0  0  0  0  0999 V2000
    1.1787   -8.0297    3.5154 C   0  0  1  0  0  0  0  0  0  0  0  0
    1.0491   -6.8434    2.9820 C   0  0  0  0  0  0  0  0  0  0  0  0
    0.0950   -8.8404    3.2292 Cl  0  0  0  0  0  0  0  0  0  0  0  0
    0.0852   -6.2872    2.6797 O   0  0  0  0  0  0  0  0  0  0  0  0
   -0.0627   -4.9454    2.2543 C   0  0  2  0  0  0  0  0  0  0  0  0
   -0.8065   -4.6426    1.2335 C   0  0  0  0  0  0  0  0  0  0  0  0
   -1.6507   -5.6104    0.8617 O   0  0  0  0  0  0  0  0  0  0  0  0
    0.6757   -3.9279    2.9266 C   0  0  0  0  0  0  0  0  0  0  0  0
   -0.5356   -3.5419    0.5330 O   0  0  0  0  0  0  0  0  0  0  0  0
    2.1128   -3.8684    2.7737 C   0  0  0  0  0  0  0  0  0  0  0  0
    2.4426   -8.7783    3.6415 C   0  0  0  0  0  0  0  0  0  0  0  0
    2.3662  -10.1337    4.2100 N   0  0  0  0  0  0  0  0  0  0  0  0
    1.3720  -10.8770    3.9808 C   0  0  0  0  0  0  0  0  0  0  0  0
    1.6219  -11.8246    2.8307 C   0  0  0  0  0  0  0  0  0  0  0  0
    1.0506  -13.0419    2.8265 C   0  0  0  0  0  0  0  0  0  0  0  0
    0.0673  -13.3067    3.8381 C   0  0  0  0  0  0  0  0  0  0  0  0
   -0.1725  -12.4477    4.7470 C   0  0  0  0  0  0  0  0  0  0  0  0
    0.4465  -11.2318    4.8731 C   0  0  0  0  0  0  0  0  0  0  0  0
    1.4353  -14.0460    1.6165 C   0  0  0  0  0  0  0  0  0  0  0  0
  1  2  1  0
  1  3  1  6
  2  4  1  0
  4  5  1  0
  5  6  1  0
  6  7  1  0
  5  8  1  6
  6  9  2  0
  8 10  1  0
  1 11  1  0
 11 12  2  3
 12 13  1  0
 15 19  1  0
 13 14  2  0
 14 15  1  0
 15 16  2  0
 16 17  1  0
 17 18  2  0
 13 18  1  0
M  END

$$$$
No_309-/export/home/yangzhenyu/potential_scad_32_flow//YTHDC2/2024-12-06-03-22-00/
     RDKit          3D

 18 19  0  0  1  0  0  0  0  0999 V2000
    1.1787   -8.0297    3.5154 O   0  0  0  0  0  0  0  0  0  0  0  0
    0.9969   -8.9689    3.0048 C   0  0  0  0  0  0  0  0  0  0  0  0
    1.4315  -10.1310    3.5523 C   0  0  0  0  0  0  0  0  0  0  0  0
    1.3751  -11.3715    2.9098 C   0  0  0  0  0  0  0  0  0  0  0  0
    1.8428  -12.5547    3.5261 C   0  0  0  0  0  0  0  0  0  0  0  0
    0.4111   -9.0115    1.7644 N   0  0  0  0  0  0  0  0  0  0  0  0
    1.6339  -13.7754    2.8866 C   0  0  0  0  0  0  0  0  0  0  0  0
    0.9648  -13.8541    1.7705 C   0  0  0  0  0  0  0  0  0  0  0  0
    0.6589  -12.7338    1.0783 C   0  0  0  0  0  0  0  0  0  0  0  0
    0.8408  -11.5103    1.6564 C   0  0  0  0  0  0  0  0  0  0  0  0
    0.3472  -10.2541    1.0292 C   0  0  0  0  0  0  0  0  0  0  0  0
   -0.1239  -10.1350   -0.1776 C   0  0  0  0  0  0  0  0  0  0  0  0
    0.3537   -9.3273   -1.1392 C   0  0  2  0  0  0  0  0  0  0  0  0
    1.5398   -8.8091   -0.9661 C   0  0  0  0  0  0  0  0  0  0  0  0
    2.7218   -9.6256   -0.7960 O   0  0  0  0  0  0  0  0  0  0  0  0
    1.8793   -7.6084   -0.9184 O   0  0  0  0  0  0  0  0  0  0  0  0
   -0.3338   -8.8988   -2.1869 C   0  0  0  0  0  0  0  0  0  0  0  0
   -1.3062   -9.3063   -2.6403 O   0  0  0  0  0  0  0  0  0  0  0  0
  1  2  2  0
  2  3  1  0
  2  6  1  0
  6 11  1  0
 10 11  1  0
 11 12  1  0
 13 12  1  1
 13 14  1  0
 14 15  1  0
 14 16  2  0
 13 17  1  0
 17 18  2  0
  3  4  1  0
  4  5  2  0
  5  7  1  0
  7  8  2  0
  8  9  1  0
  9 10  2  0
  4 10  1  0
M  END

$$$$
No_310-/export/home/yangzhenyu/potential_scad_32_flow//YTHDC2/2024-12-06-03-22-00/
     RDKit          3D

 19 20  0  0  1  0  0  0  0  0999 V2000
    1.1787   -8.0297    3.5154 O   0  0  0  0  0  0  0  0  0  0  0  0
    0.6747   -7.4019    2.7838 C   0  0  0  0  0  0  0  0  0  0  0  0
    0.7594   -8.0032    1.4295 C   0  0  1  0  0  0  0  0  0  0  0  0
    0.3459   -9.1500    1.3581 C   0  0  0  0  0  0  0  0  0  0  0  0
    1.1876  -10.0065    2.0239 C   0  0  1  0  0  0  0  0  0  0  0  0
    1.2267   -9.5257    3.5507 C   0  0  1  0  0  0  0  0  0  0  0  0
    1.9919  -10.3918    4.3814 C   0  0  0  0  0  0  0  0  0  0  0  0
    1.3664  -11.6452    4.6708 O   0  0  0  0  0  0  0  0  0  0  0  0
    3.2547  -10.4069    4.6306 O   0  0  0  0  0  0  0  0  0  0  0  0
    0.1066   -6.9616    0.5079 C   0  0  0  0  0  0  0  0  0  0  0  0
    0.0913   -5.6288    0.8831 O   0  0  0  0  0  0  0  0  0  0  0  0
   -0.3241   -7.2403   -0.5632 O   0  0  0  0  0  0  0  0  0  0  0  0
    1.6962  -11.1814    1.8172 C   0  0  0  0  0  0  0  0  0  0  0  0
    1.4553  -11.8610    1.0028 C   0  0  0  0  0  0  0  0  0  0  0  0
    1.9835  -13.2780    0.8229 O   0  0  0  0  0  0  0  0  0  0  0  0
    0.2606  -11.7864    0.2632 O   0  0  0  0  0  0  0  0  0  0  0  0
    1.2566  -14.2886    0.5298 C   0  0  0  0  0  0  0  0  0  0  0  0
    0.4849  -14.2122   -0.2606 C   0  0  0  0  0  0  0  0  0  0  0  0
   -0.4841  -13.1840   -0.4297 C   0  0  0  0  0  0  0  0  0  0  0  0
  1  2  1  0
  2  3  1  0
  3  4  1  0
  5  4  1  1
  1  6  1  0
  5  6  1  0
  6  7  1  6
  7  8  1  0
  7  9  2  0
  3 10  1  6
 10 11  1  0
 10 12  2  0
  5 13  1  0
 13 14  2  3
 14 15  1  0
 14 16  1  0
 15 17  1  0
 17 18  1  0
 16 19  1  0
 18 19  1  0
M  END

$$$$
No_311-/export/home/yangzhenyu/potential_scad_32_flow//YTHDC2/2024-12-06-03-22-00/
     RDKit          3D

 19 20  0  0  0  0  0  0  0  0999 V2000
    1.1787   -8.0297    3.5154 C   0  0  0  0  0  0  0  0  0  0  0  0
    1.0491   -6.8434    2.9820 C   0  0  0  0  0  0  0  0  0  0  0  0
    0.0950   -8.8404    3.2292 C   0  0  0  0  0  0  0  0  0  0  0  0
   -0.9173   -8.4596    2.5152 C   0  0  0  0  0  0  0  0  0  0  0  0
   -1.0331   -7.2162    2.0653 C   0  0  0  0  0  0  0  0  0  0  0  0
   -0.0105   -6.3168    2.3081 C   0  0  0  0  0  0  0  0  0  0  0  0
    0.0485   -4.9783    1.8782 C   0  0  0  0  0  0  0  0  0  0  0  0
   -0.6974   -4.6139    0.8644 N   0  0  0  0  0  0  0  0  0  0  0  0
    1.1225   -4.1435    2.1836 O   0  0  0  0  0  0  0  0  0  0  0  0
    0.1681  -10.2798    3.6512 Cl  0  0  0  0  0  0  0  0  0  0  0  0
   -0.7021   -3.2592    0.3726 C   0  0  0  0  0  0  0  0  0  0  0  0
   -0.2939   -3.0629   -0.8725 C   0  0  0  0  0  0  0  0  0  0  0  0
   -0.0677   -1.7404   -1.3517 C   0  0  0  0  0  0  0  0  0  0  0  0
   -0.3632   -0.6500   -0.5144 C   0  0  0  0  0  0  0  0  0  0  0  0
   -0.6066   -0.8520    0.8092 C   0  0  0  0  0  0  0  0  0  0  0  0
   -0.7973   -2.0561    1.2457 C   0  0  0  0  0  0  0  0  0  0  0  0
   -0.1288    0.7996   -1.2773 Cl  0  0  0  0  0  0  0  0  0  0  0  0
   -1.3070   -2.2782    2.5267 C   0  0  0  0  0  0  0  0  0  0  0  0
   -2.5160   -3.0300    2.8923 C   0  0  0  0  0  0  0  0  0  0  0  0
  6  7  1  0
  7  8  1  0
  7  9  2  0
  3 10  1  0
  8 11  1  0
 14 17  1  0
 16 18  1  0
 18 19  2  0
 11 12  2  0
 12 13  1  0
 13 14  2  0
 14 15  1  0
 15 16  2  0
 11 16  1  0
  1  2  2  0
  2  6  1  0
  5  6  2  0
  4  5  1  0
  3  4  2  0
  1  3  1  0
M  END

$$$$
No_312-/export/home/yangzhenyu/potential_scad_32_flow//YTHDC2/2024-12-06-03-22-00/
     RDKit          3D

 20 21  0  0  1  0  0  0  0  0999 V2000
    1.1787   -8.0297    3.5154 N   0  0  0  0  0  0  0  0  0  0  0  0
    0.8669   -7.0905    2.8589 C   0  0  0  0  0  0  0  0  0  0  0  0
    1.0447   -7.3244    1.4123 C   0  0  0  0  0  0  0  0  0  0  0  0
    1.3746   -8.4389    1.0864 C   0  0  1  0  0  0  0  0  0  0  0  0
    1.8185   -8.7923   -0.3129 C   0  0  0  0  0  0  0  0  0  0  0  0
    1.7714   -9.1001    2.3120 C   0  0  2  0  0  0  0  0  0  0  0  0
    2.1345  -10.3511    2.5694 C   0  0  0  0  0  0  0  0  0  0  0  0
    1.0023   -9.6812   -0.6103 O   0  0  0  0  0  0  0  0  0  0  0  0
    2.7617   -8.4401   -0.9182 O   0  0  0  0  0  0  0  0  0  0  0  0
    2.0584  -11.2915    1.5691 O   0  0  0  0  0  0  0  0  0  0  0  0
    2.3343  -10.7987    3.7454 N   0  0  0  0  0  0  0  0  0  0  0  0
    2.6887  -12.0899    4.1431 C   0  0  0  0  0  0  0  0  0  0  0  0
    1.3063  -12.8721    3.9402 C   0  0  0  0  0  0  0  0  0  0  0  0
    1.4842  -14.1738    3.3264 O   0  0  0  0  0  0  0  0  0  0  0  0
    0.3620  -14.9036    3.1985 C   0  0  0  0  0  0  0  0  0  0  0  0
   -0.5125  -14.2937    2.3657 C   0  0  0  0  0  0  0  0  0  0  0  0
   -1.6995  -15.0860    2.3702 C   0  0  0  0  0  0  0  0  0  0  0  0
   -1.8126  -16.3017    2.9079 C   0  0  0  0  0  0  0  0  0  0  0  0
   -0.7827  -16.8180    3.6833 C   0  0  0  0  0  0  0  0  0  0  0  0
    0.3855  -16.0575    3.8285 C   0  0  0  0  0  0  0  0  0  0  0  0
  1  2  1  0
  2  3  2  0
  3  4  1  0
  4  5  1  6
  1  6  1  0
  4  6  1  0
  6  7  1  1
  5  8  1  0
  5  9  2  0
  7 10  2  0
  7 11  1  0
 11 12  1  0
 12 13  1  0
 13 14  1  0
 14 15  1  0
 15 16  2  0
 16 17  1  0
 17 18  2  0
 18 19  1  0
 19 20  2  0
 15 20  1  0
M  END

$$$$
No_313-/export/home/yangzhenyu/potential_scad_32_flow//YTHDC2/2024-12-06-03-22-00/
     RDKit          3D

 18 18  0  0  0  0  0  0  0  0999 V2000
    1.1787   -8.0297    3.5154 C   0  0  0  0  0  0  0  0  0  0  0  0
    1.1048   -9.2215    3.2892 C   0  0  0  0  0  0  0  0  0  0  0  0
    1.3627  -10.1721    4.3044 C   0  0  0  0  0  0  0  0  0  0  0  0
    1.7354  -11.4730    3.9023 C   0  0  0  0  0  0  0  0  0  0  0  0
    1.8080  -11.8127    2.7216 C   0  0  0  0  0  0  0  0  0  0  0  0
    1.5854  -11.0021    1.7249 C   0  0  0  0  0  0  0  0  0  0  0  0
    1.7689  -11.5851    0.3632 C   0  0  0  0  0  0  0  0  0  0  0  0
    1.3152   -9.6753    1.9048 C   0  0  0  0  0  0  0  0  0  0  0  0
    1.1580   -8.8186    0.9568 C   0  0  0  0  0  0  0  0  0  0  0  0
    0.0189   -8.3926    0.5468 C   0  0  0  0  0  0  0  0  0  0  0  0
   -0.1284   -7.5305   -0.6737 O   0  0  0  0  0  0  0  0  0  0  0  0
   -1.1654   -9.0769    0.9386 C   0  0  0  0  0  0  0  0  0  0  0  0
    2.1472  -13.2671    2.4005 O   0  0  0  0  0  0  0  0  0  0  0  0
   -2.0120   -8.3643    1.5485 O   0  0  0  0  0  0  0  0  0  0  0  0
   -1.5885  -10.2537    0.5035 O   0  0  0  0  0  0  0  0  0  0  0  0
    2.3484   -8.1658    0.4782 C   0  0  0  0  0  0  0  0  0  0  0  0
    1.5544  -14.2566    2.9382 C   0  0  0  0  0  0  0  0  0  0  0  0
    0.2394  -14.3687    2.9394 C   0  0  0  0  0  0  0  0  0  0  0  0
  1  2  1  0
  6  7  1  0
  8  9  1  0
  9 10  2  3
 10 11  1  0
 10 12  1  0
  5 13  1  0
 12 14  2  0
 12 15  1  0
  9 16  1  0
 13 17  1  0
 17 18  1  0
  2  3  2  0
  3  4  1  0
  4  5  2  0
  5  6  1  0
  6  8  2  0
  2  8  1  0
M  END

$$$$
No_314-/export/home/yangzhenyu/potential_scad_32_flow//YTHDC2/2024-12-06-03-22-00/
     RDKit          3D

 20 19  0  0  1  0  0  0  0  0999 V2000
    1.1787   -8.0297    3.5154 O   0  0  0  0  0  0  0  0  0  0  0  0
    0.6747   -7.4019    2.7838 C   0  0  0  0  0  0  0  0  0  0  0  0
    0.5570   -6.0797    2.8560 O   0  0  0  0  0  0  0  0  0  0  0  0
   -0.1948   -8.0413    1.7489 C   0  0  0  0  0  0  0  0  0  0  0  0
    0.6577   -8.5818    0.7828 C   0  0  1  0  0  0  0  0  0  0  0  0
    0.9925   -9.8489    0.8363 C   0  0  2  0  0  0  0  0  0  0  0  0
    2.2472  -10.3213    0.6304 C   0  0  0  0  0  0  0  0  0  0  0  0
    3.1030   -9.3854    0.3336 O   0  0  0  0  0  0  0  0  0  0  0  0
    2.6038  -11.4258    1.2257 O   0  0  0  0  0  0  0  0  0  0  0  0
   -0.2210   -8.4907   -0.6139 C   0  0  0  0  0  0  0  0  0  0  0  0
   -0.0644   -7.5914   -1.3747 O   0  0  0  0  0  0  0  0  0  0  0  0
   -1.2755   -9.3661   -0.6493 O   0  0  0  0  0  0  0  0  0  0  0  0
    0.0002  -10.9438    0.9854 C   0  0  0  0  0  0  0  0  0  0  0  0
   -0.4685  -11.1703    2.2762 C   0  0  0  0  0  0  0  0  0  0  0  0
    0.4320  -11.6525    3.2470 C   0  0  0  0  0  0  0  0  0  0  0  0
    0.7292  -13.0386    3.5004 C   0  0  0  0  0  0  0  0  0  0  0  0
    1.0273  -13.6678    2.2766 C   0  0  1  0  0  0  0  0  0  0  0  0
    2.2493  -14.2501    2.1807 C   0  0  0  0  0  0  0  0  0  0  0  0
    2.2445  -15.5945    1.7520 O   0  0  0  0  0  0  0  0  0  0  0  0
   -0.0103  -14.0445    1.5212 C   0  0  0  0  0  0  0  0  0  0  0  0
  1  2  1  0
  2  3  2  0
  2  4  1  0
  5  4  1  1
  5  6  1  0
  6  7  1  0
  7  8  1  0
  7  9  2  0
  5 10  1  0
 10 11  2  0
 10 12  1  0
  6 13  1  6
 13 14  1  0
 14 15  1  0
 15 16  1  0
 16 17  1  0
 17 18  1  0
 18 19  2  0
 17 20  1  1
M  END

$$$$
No_315-/export/home/yangzhenyu/potential_scad_32_flow//YTHDC2/2024-12-06-03-22-00/
     RDKit          3D

 18 18  0  0  1  0  0  0  0  0999 V2000
    1.1787   -8.0297    3.5154 C   0  0  0  0  0  0  0  0  0  0  0  0
    1.0491   -6.8434    2.9820 C   0  0  0  0  0  0  0  0  0  0  0  0
    1.9985   -8.9840    2.8958 C   0  0  2  0  0  0  0  0  0  0  0  0
    1.7297   -9.2108    1.6335 C   0  0  1  0  0  0  0  0  0  0  0  0
    1.7343   -8.0566    0.8408 C   0  0  0  0  0  0  0  0  0  0  0  0
    1.0269   -6.8892    1.4456 C   0  0  0  0  0  0  0  0  0  0  0  0
    2.0740   -7.9416   -0.3682 O   0  0  0  0  0  0  0  0  0  0  0  0
    1.9646  -10.3580    3.5767 C   0  0  0  0  0  0  0  0  0  0  0  0
    1.1665  -11.3332    3.3170 O   0  0  0  0  0  0  0  0  0  0  0  0
    3.0332  -10.6438    4.4023 O   0  0  0  0  0  0  0  0  0  0  0  0
    0.8400   -5.6717    3.5070 O   0  0  0  0  0  0  0  0  0  0  0  0
    1.0878   -5.6721    0.8706 O   0  0  0  0  0  0  0  0  0  0  0  0
    1.8972  -10.3256    0.9259 C   0  0  0  0  0  0  0  0  0  0  0  0
    0.8093  -10.8236    0.2506 O   0  0  0  0  0  0  0  0  0  0  0  0
    2.8435  -11.1847    0.9408 O   0  0  0  0  0  0  0  0  0  0  0  0
    0.4917   -8.1423    4.5289 O   0  0  0  0  0  0  0  0  0  0  0  0
    3.4517  -11.7775    4.8976 C   0  0  0  0  0  0  0  0  0  0  0  0
    4.6134  -11.7523    4.5929 C   0  0  0  0  0  0  0  0  0  0  0  0
  1  2  1  0
  1  3  1  0
  3  4  1  0
  4  5  1  0
  2  6  1  0
  5  6  1  0
  5  7  2  0
  3  8  1  1
  8  9  2  0
  8 10  1  0
  2 11  2  0
  6 12  2  0
  4 13  1  6
 13 14  2  0
 13 15  1  0
  1 16  2  0
 10 17  1  0
 17 18  1  0
M  END

$$$$
No_316-/export/home/yangzhenyu/potential_scad_32_flow//YTHDC2/2024-12-06-03-22-00/
     RDKit          3D

 20 20  0  0  1  0  0  0  0  0999 V2000
    1.1787   -8.0297    3.5154 C   0  0  0  0  0  0  0  0  0  0  0  0
    1.0491   -6.8434    2.9820 C   0  0  0  0  0  0  0  0  0  0  0  0
    1.9985   -8.9840    2.8958 C   0  0  2  0  0  0  0  0  0  0  0  0
    1.7297   -9.2108    1.6335 C   0  0  0  0  0  0  0  0  0  0  0  0
    1.7343   -8.0566    0.8408 C   0  0  2  0  0  0  0  0  0  0  0  0
    1.0269   -6.8892    1.4456 C   0  0  1  0  0  0  0  0  0  0  0  0
    1.7596   -8.0979   -0.4723 C   0  0  0  0  0  0  0  0  0  0  0  0
    1.8128   -9.1679   -1.0978 O   0  0  0  0  0  0  0  0  0  0  0  0
    1.9341  -10.3806    3.5659 C   0  0  0  0  0  0  0  0  0  0  0  0
    1.2179  -10.6075    4.5522 O   0  0  0  0  0  0  0  0  0  0  0  0
    3.2204  -10.7545    3.8133 O   0  0  0  0  0  0  0  0  0  0  0  0
    2.1736   -7.2258   -1.2133 O   0  0  0  0  0  0  0  0  0  0  0  0
    0.7386   -5.7067    3.5116 O   0  0  0  0  0  0  0  0  0  0  0  0
    0.2826   -5.9863    0.8688 C   0  0  0  0  0  0  0  0  0  0  0  0
   -0.6100   -5.3524    1.3039 C   0  0  0  0  0  0  0  0  0  0  0  0
   -1.4641   -4.6626    0.6508 O   0  0  0  0  0  0  0  0  0  0  0  0
   -1.2438   -5.6138    2.4111 O   0  0  0  0  0  0  0  0  0  0  0  0
   -2.6723   -5.4598    2.6969 C   0  0  0  0  0  0  0  0  0  0  0  0
   -3.0207   -4.3070    3.2367 C   0  0  0  0  0  0  0  0  0  0  0  0
   -2.0766   -3.5437    3.7096 C   0  0  0  0  0  0  0  0  0  0  0  0
  1  2  1  0
  1  3  1  0
  3  4  1  0
  4  5  1  0
  2  6  1  0
  5  6  1  0
  5  7  1  6
  7  8  1  0
  3  9  1  1
  9 10  1  0
  9 11  2  0
  7 12  2  0
  2 13  2  0
  6 14  1  1
 14 15  1  0
 15 16  2  0
 15 17  1  0
 17 18  1  0
 18 19  1  0
 19 20  1  0
M  END

$$$$
No_317-/export/home/yangzhenyu/potential_scad_32_flow//YTHDC2/2024-12-06-03-22-00/
     RDKit          3D

 18 18  0  0  1  0  0  0  0  0999 V2000
    1.1787   -8.0297    3.5154 C   0  0  0  0  0  0  0  0  0  0  0  0
    1.0491   -6.8434    2.9820 C   0  0  1  0  0  0  0  0  0  0  0  0
    1.9985   -8.9840    2.8958 C   0  0  2  0  0  0  0  0  0  0  0  0
    1.7297   -9.2108    1.6335 C   0  0  0  0  0  0  0  0  0  0  0  0
    1.7343   -8.0566    0.8408 C   0  0  0  0  0  0  0  0  0  0  0  0
    1.0269   -6.8892    1.4456 C   0  0  0  0  0  0  0  0  0  0  0  0
    2.0740   -7.9416   -0.3682 O   0  0  0  0  0  0  0  0  0  0  0  0
    1.9646  -10.3580    3.5767 C   0  0  0  0  0  0  0  0  0  0  0  0
    1.7328  -11.3336    3.3895 O   0  0  0  0  0  0  0  0  0  0  0  0
    3.2965  -10.3890    4.4288 I   0  0  0  0  0  0  0  0  0  0  0  0
    0.5046   -5.7339    3.4052 C   0  0  0  0  0  0  0  0  0  0  0  0
    1.3175   -4.5468    3.6345 O   0  0  0  0  0  0  0  0  0  0  0  0
   -0.7143   -5.4688    3.4778 O   0  0  0  0  0  0  0  0  0  0  0  0
    2.0956  -10.2737    0.9004 O   0  0  0  0  0  0  0  0  0  0  0  0
    0.8705   -5.8577    0.7197 O   0  0  0  0  0  0  0  0  0  0  0  0
    0.9143   -3.2751    3.4044 C   0  0  0  0  0  0  0  0  0  0  0  0
    1.1670   -2.9262    1.9359 C   0  0  0  0  0  0  0  0  0  0  0  0
    2.4749   -2.6870    1.5534 C   0  0  0  0  0  0  0  0  0  0  0  0
  1  2  1  0
  1  3  1  0
  3  4  1  0
  4  5  1  0
  2  6  1  0
  5  6  1  0
  5  7  2  0
  3  8  1  1
  8  9  2  0
  8 10  1  0
  2 11  1  1
 11 12  1  0
 11 13  2  0
  4 14  2  0
  6 15  2  0
 12 16  1  0
 16 17  1  0
 17 18  1  0
M  END

$$$$
No_318-/export/home/yangzhenyu/potential_scad_32_flow//YTHDC2/2024-12-06-03-22-00/
     RDKit          3D

 19 19  0  0  1  0  0  0  0  0999 V2000
    1.1787   -8.0297    3.5154 C   0  0  0  0  0  0  0  0  0  0  0  0
    1.0491   -6.8434    2.9820 C   0  0  0  0  0  0  0  0  0  0  0  0
    0.0950   -8.8404    3.2292 C   0  0  0  0  0  0  0  0  0  0  0  0
   -0.9173   -8.4596    2.5152 C   0  0  0  0  0  0  0  0  0  0  0  0
   -1.0331   -7.2162    2.0653 C   0  0  0  0  0  0  0  0  0  0  0  0
   -0.0105   -6.3168    2.3081 C   0  0  0  0  0  0  0  0  0  0  0  0
    0.1150   -4.9910    1.8495 C   0  0  0  0  0  0  0  0  0  0  0  0
   -0.5774   -4.1593    2.0596 O   0  0  0  0  0  0  0  0  0  0  0  0
    1.1226   -4.6805    0.9513 O   0  0  0  0  0  0  0  0  0  0  0  0
    0.2252  -10.4860    3.7187 C   0  0  1  0  0  0  0  0  0  0  0  0
    1.3521  -10.9661    4.0491 C   0  0  0  0  0  0  0  0  0  0  0  0
    1.4588  -12.3359    3.6815 C   0  0  0  0  0  0  0  0  0  0  0  0
    1.3476  -12.4479    2.2579 C   0  0  0  0  0  0  0  0  0  0  0  0
    1.2932  -13.7535    1.7664 O   0  0  0  0  0  0  0  0  0  0  0  0
    1.3858  -11.4037    1.4349 O   0  0  0  0  0  0  0  0  0  0  0  0
   -0.9852  -10.9255    4.2310 C   0  0  0  0  0  0  0  0  0  0  0  0
    2.3865  -10.4332    4.6994 C   0  0  0  0  0  0  0  0  0  0  0  0
    3.1966  -11.1034    5.4916 O   0  0  0  0  0  0  0  0  0  0  0  0
    2.6235   -9.1407    4.7636 O   0  0  0  0  0  0  0  0  0  0  0  0
  6  7  1  0
  7  8  2  0
  7  9  1  0
  3 10  1  0
 10 11  1  0
 11 12  1  0
 12 13  1  0
 13 14  1  0
 13 15  2  0
 10 16  1  1
 11 17  1  0
 17 18  1  0
 17 19  2  0
  1  2  2  0
  2  6  1  0
  5  6  2  0
  4  5  1  0
  3  4  2  0
  1  3  1  0
M  END

$$$$
No_319-/export/home/yangzhenyu/potential_scad_32_flow//YTHDC2/2024-12-06-03-22-00/
     RDKit          3D

 19 19  0  0  0  0  0  0  0  0999 V2000
    1.1787   -8.0297    3.5154 C   0  0  0  0  0  0  0  0  0  0  0  0
    1.1048   -9.2215    3.2892 C   0  0  0  0  0  0  0  0  0  0  0  0
    1.3627  -10.1721    4.3044 C   0  0  0  0  0  0  0  0  0  0  0  0
    1.7354  -11.4730    3.9023 C   0  0  0  0  0  0  0  0  0  0  0  0
    1.8080  -11.8127    2.7216 C   0  0  0  0  0  0  0  0  0  0  0  0
    1.5854  -11.0021    1.7249 C   0  0  0  0  0  0  0  0  0  0  0  0
    1.3573   -9.7389    1.9287 C   0  0  0  0  0  0  0  0  0  0  0  0
    1.1102   -8.8712    0.9017 C   0  0  0  0  0  0  0  0  0  0  0  0
    1.5724   -9.1697   -0.3048 C   0  0  0  0  0  0  0  0  0  0  0  0
    1.2378   -8.2159   -1.4226 O   0  0  0  0  0  0  0  0  0  0  0  0
    2.1031  -13.4009    2.2918 C   0  0  0  0  0  0  0  0  0  0  0  0
    1.0542  -14.1508    1.7981 O   0  0  0  0  0  0  0  0  0  0  0  0
    3.1631  -13.9056    2.4231 O   0  0  0  0  0  0  0  0  0  0  0  0
    0.1259   -7.2157    3.3946 O   0  0  0  0  0  0  0  0  0  0  0  0
    2.2707   -7.1184    3.5140 O   0  0  0  0  0  0  0  0  0  0  0  0
    2.5475   -9.9699   -0.6456 O   0  0  0  0  0  0  0  0  0  0  0  0
   -0.0743  -13.6967    1.5403 C   0  0  0  0  0  0  0  0  0  0  0  0
   -0.9105  -13.9567    2.4744 C   0  0  0  0  0  0  0  0  0  0  0  0
   -2.1612  -13.1283    2.5032 C   0  0  0  0  0  0  0  0  0  0  0  0
  1  2  1  0
  7  8  1  0
  8  9  2  3
  9 10  1  0
  5 11  1  0
 11 12  1  0
 11 13  2  0
  1 14  2  0
  1 15  1  0
  9 16  1  0
 12 17  1  0
 17 18  1  0
 18 19  2  0
  2  3  2  0
  3  4  1  0
  4  5  2  0
  5  6  1  0
  6  7  2  0
  2  7  1  0
M  END

$$$$
No_320-/export/home/yangzhenyu/potential_scad_32_flow//YTHDC2/2024-12-06-03-22-00/
     RDKit          3D

 19 18  0  0  1  0  0  0  0  0999 V2000
    1.1787   -8.0297    3.5154 O   0  0  0  0  0  0  0  0  0  0  0  0
    0.9969   -8.9689    3.0048 P   0  0  0  0  0  0  0  0  0  0  0  0
    1.5314  -10.0495    3.7638 O   0  0  0  0  0  0  0  0  0  0  0  0
   -0.4491   -9.2872    2.8144 C   0  0  0  0  0  0  0  0  0  0  0  0
    1.5806   -9.0600    1.5610 C   0  0  2  0  0  0  0  0  0  0  0  0
    2.1408  -10.2776    1.0389 C   0  0  0  0  0  0  0  0  0  0  0  0
    1.5318  -10.7781   -0.0597 O   0  0  0  0  0  0  0  0  0  0  0  0
   -1.4054   -8.3458    2.5127 O   0  0  0  0  0  0  0  0  0  0  0  0
    3.2079  -10.8436    1.3805 O   0  0  0  0  0  0  0  0  0  0  0  0
   -2.1190   -7.6763    3.2431 C   0  0  2  0  0  0  0  0  0  0  0  0
   -2.1069   -6.3179    3.1315 C   0  0  0  0  0  0  0  0  0  0  0  0
   -1.1559   -5.8080    2.3342 Cl  0  0  0  0  0  0  0  0  0  0  0  0
    2.2520   -7.9218    1.1896 C   0  0  0  0  0  0  0  0  0  0  0  0
    1.6237   -7.1683    0.1719 O   0  0  0  0  0  0  0  0  0  0  0  0
   -2.8505   -8.3541    4.1962 C   0  0  1  0  0  0  0  0  0  0  0  0
   -2.3349   -8.4322    5.5908 O   0  0  0  0  0  0  0  0  0  0  0  0
   -2.5246   -5.4530    4.1081 O   0  0  0  0  0  0  0  0  0  0  0  0
   -0.9040  -10.5909    2.6154 O   0  0  0  0  0  0  0  0  0  0  0  0
   -4.0243   -8.8853    4.0559 C   0  0  0  0  0  0  0  0  0  0  0  0
  1  2  1  0
  2  3  1  0
  2  4  1  0
  5  2  1  1
  5  6  1  0
  6  7  2  0
  4  8  1  0
  6  9  1  0
 10  8  1  1
 10 11  1  0
 11 12  1  0
  5 13  1  0
 13 14  2  0
 10 15  1  0
 15 16  1  0
 11 17  2  0
  4 18  2  0
 15 19  1  1
M  END

$$$$
No_321-/export/home/yangzhenyu/potential_scad_32_flow//YTHDC2/2024-12-06-03-22-00/
     RDKit          3D

 17 17  0  0  0  0  0  0  0  0999 V2000
    1.1787   -8.0297    3.5154 C   0  0  0  0  0  0  0  0  0  0  0  0
    1.1048   -9.2215    3.2892 C   0  0  0  0  0  0  0  0  0  0  0  0
    1.3627  -10.1721    4.3044 C   0  0  0  0  0  0  0  0  0  0  0  0
    1.7354  -11.4730    3.9023 C   0  0  0  0  0  0  0  0  0  0  0  0
    1.8080  -11.8127    2.7216 C   0  0  0  0  0  0  0  0  0  0  0  0
    1.5854  -11.0021    1.7249 C   0  0  0  0  0  0  0  0  0  0  0  0
    1.3573   -9.7389    1.9287 C   0  0  0  0  0  0  0  0  0  0  0  0
    1.1102   -8.8712    0.9017 C   0  0  0  0  0  0  0  0  0  0  0  0
    0.5299   -7.6926    1.0325 O   0  0  0  0  0  0  0  0  0  0  0  0
    1.3970   -9.2634   -0.4035 P   0  0  0  0  0  0  0  0  0  0  0  0
    0.3146   -9.6146   -1.1124 O   0  0  0  0  0  0  0  0  0  0  0  0
    2.1484   -8.0646   -1.2125 O   0  0  0  0  0  0  0  0  0  0  0  0
    2.1190  -13.2298    2.3882 C   0  0  0  0  0  0  0  0  0  0  0  0
    1.2572  -14.0633    1.6664 O   0  0  0  0  0  0  0  0  0  0  0  0
    3.0078  -13.9164    3.0318 N   0  0  0  0  0  0  0  0  0  0  0  0
    2.3572  -10.3612   -0.5790 O   0  0  0  0  0  0  0  0  0  0  0  0
    2.4712   -7.3387    3.5407 F   0  0  0  0  0  0  0  0  0  0  0  0
  1  2  1  0
  7  8  1  0
  8  9  2  0
  8 10  1  0
 10 11  1  0
 10 12  1  0
  5 13  1  0
 13 14  2  0
 13 15  1  0
 10 16  2  0
  1 17  1  0
  2  3  2  0
  3  4  1  0
  4  5  2  0
  5  6  1  0
  6  7  2  0
  2  7  1  0
M  END

$$$$
No_322-/export/home/yangzhenyu/potential_scad_32_flow//YTHDC2/2024-12-06-03-22-00/
     RDKit          3D

 21 21  0  0  1  0  0  0  0  0999 V2000
    1.1787   -8.0297    3.5154 C   0  0  0  0  0  0  0  0  0  0  0  0
    1.0491   -6.8434    2.9820 C   0  0  0  0  0  0  0  0  0  0  0  0
    0.2462   -8.9560    3.0873 C   0  0  0  0  0  0  0  0  0  0  0  0
    0.3295   -6.5187    1.9069 C   0  0  0  0  0  0  0  0  0  0  0  0
   -0.5260   -8.7862    2.1368 C   0  0  0  0  0  0  0  0  0  0  0  0
   -0.5458   -7.5614    1.5054 C   0  0  0  0  0  0  0  0  0  0  0  0
    0.4051  -10.4356    3.8147 C   0  0  0  0  0  0  0  0  0  0  0  0
    1.4760  -10.9959    4.0243 O   0  0  0  0  0  0  0  0  0  0  0  0
   -0.6810  -10.9582    4.2184 O   0  0  0  0  0  0  0  0  0  0  0  0
    0.3014   -5.2687    1.3241 Cl  0  0  0  0  0  0  0  0  0  0  0  0
   -1.4807   -7.3927    0.4674 C   0  0  0  0  0  0  0  0  0  0  0  0
   -2.6605   -6.8366    0.6368 C   0  0  0  0  0  0  0  0  0  0  0  0
   -3.2090   -6.1310   -0.1658 O   0  0  0  0  0  0  0  0  0  0  0  0
   -3.3832   -7.0824    1.7801 N   0  0  0  0  0  0  0  0  0  0  0  0
   -4.4757   -7.0524    2.0108 C   0  0  1  0  0  0  0  0  0  0  0  0
   -5.0002   -6.0019    2.7283 C   0  0  0  0  0  0  0  0  0  0  0  0
   -4.2184   -5.0888    3.3528 C   0  0  0  0  0  0  0  0  0  0  0  0
   -5.3830   -7.9304    1.2680 C   0  0  0  0  0  0  0  0  0  0  0  0
   -5.1840   -9.2766    1.4216 C   0  0  0  0  0  0  0  0  0  0  0  0
   -4.9959  -10.0923    0.4850 O   0  0  0  0  0  0  0  0  0  0  0  0
   -5.0402   -9.7939    2.6990 O   0  0  0  0  0  0  0  0  0  0  0  0
  3  7  1  0
  7  8  2  0
  7  9  1  0
  4 10  1  0
  6 11  1  0
 11 12  1  0
 12 13  2  0
 12 14  1  0
 14 15  1  0
 15 16  1  0
 16 17  2  0
 15 18  1  6
 18 19  1  0
 19 20  2  0
 19 21  1  0
  1  2  2  0
  2  4  1  0
  4  6  2  0
  5  6  1  0
  3  5  2  0
  1  3  1  0
M  END

$$$$
No_323-/export/home/yangzhenyu/potential_scad_32_flow//YTHDC2/2024-12-06-03-22-00/
     RDKit          3D

 18 18  0  0  1  0  0  0  0  0999 V2000
    1.1787   -8.0297    3.5154 C   0  0  0  0  0  0  0  0  0  0  0  0
    1.0491   -6.8434    2.9820 C   0  0  0  0  0  0  0  0  0  0  0  0
    1.9985   -8.9840    2.8958 C   0  0  2  0  0  0  0  0  0  0  0  0
    1.7297   -9.2108    1.6335 C   0  0  0  0  0  0  0  0  0  0  0  0
    1.7343   -8.0566    0.8408 C   0  0  2  0  0  0  0  0  0  0  0  0
    1.0269   -6.8892    1.4456 C   0  0  0  0  0  0  0  0  0  0  0  0
    2.0740   -7.9416   -0.3682 C   0  0  0  0  0  0  0  0  0  0  0  0
    3.0714   -8.7358   -0.8759 C   0  0  0  0  0  0  0  0  0  0  0  0
    2.8803  -10.0717   -0.6832 O   0  0  0  0  0  0  0  0  0  0  0  0
    3.9045   -8.4555   -1.7809 O   0  0  0  0  0  0  0  0  0  0  0  0
    1.9337  -10.3466    3.5972 C   0  0  0  0  0  0  0  0  0  0  0  0
    2.9141  -10.5305    4.4545 O   0  0  0  0  0  0  0  0  0  0  0  0
    1.2810  -11.4223    3.3103 C   0  0  0  0  0  0  0  0  0  0  0  0
    1.7940  -12.7396    3.1974 C   0  0  0  0  0  0  0  0  0  0  0  0
    1.0099  -13.9299    3.1248 O   0  0  0  0  0  0  0  0  0  0  0  0
    1.6697  -15.1972    2.7755 C   0  0  0  0  0  0  0  0  0  0  0  0
    2.8647  -15.2834    2.3310 C   0  0  0  0  0  0  0  0  0  0  0  0
    0.9032  -16.2966    3.1693 C   0  0  0  0  0  0  0  0  0  0  0  0
  1  2  1  0
  1  3  1  0
  3  4  1  0
  4  5  1  0
  2  6  1  0
  5  6  1  0
  5  7  1  6
  7  8  1  0
  8  9  1  0
  8 10  2  0
  3 11  1  1
 11 12  2  0
 11 13  1  0
 13 14  1  0
 14 15  1  0
 15 16  1  0
 16 17  1  0
 16 18  1  0
M  END

$$$$
No_324-/export/home/yangzhenyu/potential_scad_32_flow//YTHDC2/2024-12-06-03-22-00/
     RDKit          3D

 18 18  0  0  0  0  0  0  0  0999 V2000
    1.1787   -8.0297    3.5154 C   0  0  0  0  0  0  0  0  0  0  0  0
    1.1048   -9.2215    3.2892 C   0  0  0  0  0  0  0  0  0  0  0  0
    1.2339   -9.7611    2.0189 C   0  0  0  0  0  0  0  0  0  0  0  0
    1.3583   -9.0036    0.9764 C   0  0  0  0  0  0  0  0  0  0  0  0
    1.5996   -7.6362    1.1311 C   0  0  0  0  0  0  0  0  0  0  0  0
    1.4830   -7.0928    2.3626 C   0  0  0  0  0  0  0  0  0  0  0  0
    1.5395   -5.7300    2.6182 C   0  0  0  0  0  0  0  0  0  0  0  0
    1.1775  -11.2233    1.8407 S   0  0  0  0  0  0  0  0  0  0  0  0
    0.7035  -11.6942    0.5548 N   0  0  0  0  0  0  0  0  0  0  0  0
    2.6663  -11.7465    1.9015 O   0  0  0  0  0  0  0  0  0  0  0  0
    0.5452  -11.9935    2.8412 O   0  0  0  0  0  0  0  0  0  0  0  0
    1.2778   -4.8018    1.6979 C   0  0  0  0  0  0  0  0  0  0  0  0
    1.2224   -3.3709    1.9396 O   0  0  0  0  0  0  0  0  0  0  0  0
   -0.6759  -12.1673    0.4878 C   0  0  0  0  0  0  0  0  0  0  0  0
   -1.2913  -12.2998   -0.7654 C   0  0  0  0  0  0  0  0  0  0  0  0
   -1.5438  -11.1196   -1.4908 O   0  0  0  0  0  0  0  0  0  0  0  0
   -2.2570  -13.2001   -0.9744 O   0  0  0  0  0  0  0  0  0  0  0  0
    0.7069   -5.0779    0.4825 N   0  0  0  0  0  0  0  0  0  0  0  0
  6  7  1  0
  3  8  1  0
  8  9  1  0
  8 10  2  0
  8 11  2  0
  7 12  2  3
 12 13  1  0
  9 14  1  0
 14 15  1  0
 15 16  1  0
 15 17  2  0
 12 18  1  0
  1  2  2  0
  2  3  1  0
  3  4  2  0
  4  5  1  0
  5  6  2  0
  1  6  1  0
M  END

$$$$
No_325-/export/home/yangzhenyu/potential_scad_32_flow//YTHDC2/2024-12-06-03-22-00/
     RDKit          3D

 20 20  0  0  1  0  0  0  0  0999 V2000
    1.1787   -8.0297    3.5154 C   0  0  0  0  0  0  0  0  0  0  0  0
    1.1048   -9.2215    3.2892 C   0  0  0  0  0  0  0  0  0  0  0  0
    1.2339   -9.7611    2.0189 C   0  0  0  0  0  0  0  0  0  0  0  0
    1.1954  -11.2312    1.8661 C   0  0  0  0  0  0  0  0  0  0  0  0
    1.5546  -12.1691    2.7931 C   0  0  0  0  0  0  0  0  0  0  0  0
    1.9366   -7.1955    3.3930 C   0  0  0  0  0  0  0  0  0  0  0  0
    1.2958  -11.7045    4.0882 C   0  0  0  0  0  0  0  0  0  0  0  0
    1.2608  -10.2905    4.3542 C   0  0  0  0  0  0  0  0  0  0  0  0
    1.8795  -13.3848    2.4686 C   0  0  0  0  0  0  0  0  0  0  0  0
    2.3253  -13.8015    1.3083 N   0  0  0  0  0  0  0  0  0  0  0  0
    1.6762  -14.4023    3.3353 O   0  0  0  0  0  0  0  0  0  0  0  0
    1.3132   -8.9091    0.8601 C   0  0  2  0  0  0  0  0  0  0  0  0
    2.3572   -8.9214    0.0274 C   0  0  0  0  0  0  0  0  0  0  0  0
    3.3311   -9.4815    0.1518 O   0  0  0  0  0  0  0  0  0  0  0  0
    2.1200   -8.2849   -1.1075 O   0  0  0  0  0  0  0  0  0  0  0  0
    1.5861   -5.7163    3.5624 C   0  0  0  0  0  0  0  0  0  0  0  0
    1.1256   -4.8187    3.0689 N   0  0  0  0  0  0  0  0  0  0  0  0
    0.4924   -7.8591    0.9482 C   0  0  0  0  0  0  0  0  0  0  0  0
   -1.0126   -8.2390    0.7172 O   0  0  0  0  0  0  0  0  0  0  0  0
   -1.9083   -7.2474    0.5415 C   0  0  0  0  0  0  0  0  0  0  0  0
  1  2  1  0
  1  6  2  3
  5  9  1  0
  9 10  1  0
  9 11  2  0
  3 12  1  0
 12 13  1  0
 13 14  1  0
 13 15  2  0
  6 16  1  0
 16 17  3  0
 12 18  1  1
 18 19  1  0
 19 20  1  0
  2  3  2  0
  3  4  1  0
  4  5  2  0
  5  7  1  0
  7  8  2  0
  2  8  1  0
M  END

$$$$
No_326-/export/home/yangzhenyu/potential_scad_32_flow//YTHDC2/2024-12-06-03-22-00/
     RDKit          3D

 19 19  0  0  0  0  0  0  0  0999 V2000
    1.1787   -8.0297    3.5154 C   0  0  0  0  0  0  0  0  0  0  0  0
    1.1048   -9.2215    3.2892 C   0  0  0  0  0  0  0  0  0  0  0  0
    1.3627  -10.1721    4.3044 C   0  0  0  0  0  0  0  0  0  0  0  0
    1.7354  -11.4730    3.9023 C   0  0  0  0  0  0  0  0  0  0  0  0
    1.8080  -11.8127    2.7216 C   0  0  0  0  0  0  0  0  0  0  0  0
    1.5854  -11.0021    1.7249 C   0  0  0  0  0  0  0  0  0  0  0  0
    1.3573   -9.7389    1.9287 C   0  0  0  0  0  0  0  0  0  0  0  0
    1.1102   -8.8712    0.9017 C   0  0  0  0  0  0  0  0  0  0  0  0
    1.5724   -9.1697   -0.3048 C   0  0  0  0  0  0  0  0  0  0  0  0
    1.2378   -8.2159   -1.4226 O   0  0  0  0  0  0  0  0  0  0  0  0
    2.1031  -13.4009    2.2918 C   0  0  0  0  0  0  0  0  0  0  0  0
    2.2848  -13.6763    1.0600 O   0  0  0  0  0  0  0  0  0  0  0  0
    2.2007  -14.3200    3.1850 O   0  0  0  0  0  0  0  0  0  0  0  0
    2.2811   -7.1598    3.5639 O   0  0  0  0  0  0  0  0  0  0  0  0
   -0.0094   -7.4386    3.5978 O   0  0  0  0  0  0  0  0  0  0  0  0
    2.5476   -9.9619   -0.6497 O   0  0  0  0  0  0  0  0  0  0  0  0
    1.8177  -15.5846    2.9168 C   0  0  0  0  0  0  0  0  0  0  0  0
    2.6731  -16.4909    2.4319 C   0  0  0  0  0  0  0  0  0  0  0  0
    0.5565  -15.9502    3.2481 C   0  0  0  0  0  0  0  0  0  0  0  0
  1  2  1  0
  7  8  1  0
  8  9  2  3
  9 10  1  0
  5 11  1  0
 11 12  2  0
 11 13  1  0
  1 14  1  0
  1 15  2  0
  9 16  1  0
 13 17  1  0
 17 18  1  0
 17 19  1  0
  2  3  2  0
  3  4  1  0
  4  5  2  0
  5  6  1  0
  6  7  2  0
  2  7  1  0
M  END

$$$$
No_327-/export/home/yangzhenyu/potential_scad_32_flow//YTHDC2/2024-12-06-03-22-00/
     RDKit          3D

 20 21  0  0  1  0  0  0  0  0999 V2000
    1.1787   -8.0297    3.5154 O   0  0  0  0  0  0  0  0  0  0  0  0
    0.6747   -7.4019    2.7838 C   0  0  1  0  0  0  0  0  0  0  0  0
    0.5570   -6.0797    2.8560 C   0  0  0  0  0  0  0  0  0  0  0  0
    1.6734   -5.4651    3.4094 C   0  0  0  0  0  0  0  0  0  0  0  0
    1.3890   -9.4346    3.3337 C   0  0  0  0  0  0  0  0  0  0  0  0
    1.2051  -10.0658    2.2186 C   0  0  0  0  0  0  0  0  0  0  0  0
    0.5953   -9.2614    1.2248 C   0  0  0  0  0  0  0  0  0  0  0  0
    0.4236   -7.8543    1.4592 C   0  0  0  0  0  0  0  0  0  0  0  0
   -0.1208   -7.2650    0.5506 O   0  0  0  0  0  0  0  0  0  0  0  0
    1.5096  -11.5478    2.1217 C   0  0  2  0  0  0  0  0  0  0  0  0
    1.6598  -12.1076    0.9883 C   0  0  0  0  0  0  0  0  0  0  0  0
    0.6055  -12.3458    3.0760 C   0  0  0  0  0  0  0  0  0  0  0  0
    1.3298  -13.6695    3.1910 C   0  0  0  0  0  0  0  0  0  0  0  0
    2.0305  -13.5045    0.9756 C   0  0  0  0  0  0  0  0  0  0  0  0
    1.3207  -14.3282    2.0172 C   0  0  1  0  0  0  0  0  0  0  0  0
    1.4572   -3.9131    3.4585 O   0  0  0  0  0  0  0  0  0  0  0  0
    1.2488  -15.6061    1.8947 C   0  0  0  0  0  0  0  0  0  0  0  0
    1.4148  -16.3169    0.9395 N   0  0  0  0  0  0  0  0  0  0  0  0
    1.0795  -16.3732    3.0742 O   0  0  0  0  0  0  0  0  0  0  0  0
    1.5918  -15.9103    0.0321 H   0  0  0  0  0  0  0  0  0  0  0  0
  1  2  1  0
  2  3  1  6
  3  4  1  0
  1  5  1  0
  5  6  1  0
  6  7  2  0
  2  8  1  0
  7  8  1  0
  8  9  2  0
 10  6  1  6
 10 11  1  0
 10 12  1  0
 12 13  1  0
 11 14  1  0
 13 15  1  0
 14 15  1  0
  4 16  1  0
 15 17  1  1
 17 18  2  0
 17 19  1  0
 18 20  1  0
M  END

$$$$
No_328-/export/home/yangzhenyu/potential_scad_32_flow//YTHDC2/2024-12-06-03-22-00/
     RDKit          3D

 17 18  0  0  1  0  0  0  0  0999 V2000
    1.1787   -8.0297    3.5154 C   0  0  0  0  0  0  0  0  0  0  0  0
    1.1048   -9.2215    3.2892 C   0  0  0  0  0  0  0  0  0  0  0  0
    1.3627  -10.1721    4.3044 C   0  0  0  0  0  0  0  0  0  0  0  0
    1.7354  -11.4730    3.9023 C   0  0  0  0  0  0  0  0  0  0  0  0
    1.8080  -11.8127    2.7216 C   0  0  0  0  0  0  0  0  0  0  0  0
    1.5854  -11.0021    1.7249 C   0  0  0  0  0  0  0  0  0  0  0  0
    1.3573   -9.7389    1.9287 C   0  0  0  0  0  0  0  0  0  0  0  0
    1.1102   -8.8712    0.9017 C   0  0  2  0  0  0  0  0  0  0  0  0
    1.5724   -9.1697   -0.3048 C   0  0  0  0  0  0  0  0  0  0  0  0
    1.2378   -8.2159   -1.4226 O   0  0  0  0  0  0  0  0  0  0  0  0
    2.1031  -13.4009    2.2918 C   0  0  0  0  0  0  0  0  0  0  0  0
    2.2848  -13.6763    1.0600 O   0  0  0  0  0  0  0  0  0  0  0  0
    2.2007  -14.3200    3.1850 I   0  0  0  0  0  0  0  0  0  0  0  0
    0.8967   -7.0592    2.9775 N   0  0  0  0  0  0  0  0  0  0  0  0
    0.9626   -7.3950    1.3781 C   0  0  0  0  0  0  0  0  0  0  0  0
    1.7488  -10.2998   -0.7461 O   0  0  0  0  0  0  0  0  0  0  0  0
    0.8784   -6.4004    0.5424 O   0  0  0  0  0  0  0  0  0  0  0  0
  1  2  1  0
  7  8  1  0
  9 10  1  0
  5 11  1  0
 11 12  2  0
 11 13  1  0
  8 15  1  0
 14 15  1  0
  9 16  1  0
 15 17  2  0
  8  9  1  6
  1 14  1  0
  2  3  2  0
  3  4  1  0
  4  5  2  0
  5  6  1  0
  6  7  2  0
  2  7  1  0
M  END

$$$$
No_329-/export/home/yangzhenyu/potential_scad_32_flow//YTHDC2/2024-12-06-03-22-00/
     RDKit          3D

 18 18  0  0  1  0  0  0  0  0999 V2000
    1.1787   -8.0297    3.5154 C   0  0  0  0  0  0  0  0  0  0  0  0
    1.0491   -6.8434    2.9820 C   0  0  0  0  0  0  0  0  0  0  0  0
    0.0950   -8.8404    3.2292 C   0  0  0  0  0  0  0  0  0  0  0  0
    0.0602  -10.1764    3.8231 C   0  0  1  0  0  0  0  0  0  0  0  0
    0.2248   -6.3830    2.0648 C   0  0  0  0  0  0  0  0  0  0  0  0
   -0.6745   -7.2322    1.6857 C   0  0  0  0  0  0  0  0  0  0  0  0
   -0.7374   -8.4992    2.1291 C   0  0  0  0  0  0  0  0  0  0  0  0
    1.0517  -10.8728    4.0967 Cl  0  0  0  0  0  0  0  0  0  0  0  0
    0.3902   -5.1177    1.3878 O   0  0  0  0  0  0  0  0  0  0  0  0
   -1.2560  -10.5634    4.2356 C   0  0  1  0  0  0  0  0  0  0  0  0
   -0.5445   -4.3086    1.1487 C   0  0  0  0  0  0  0  0  0  0  0  0
   -1.8602  -11.6634    3.7550 N   0  0  0  0  0  0  0  0  0  0  0  0
   -1.7823  -10.1375    5.4409 C   0  0  0  0  0  0  0  0  0  0  0  0
   -1.7712   -8.8670    5.7106 C   0  0  0  0  0  0  0  0  0  0  0  0
   -2.7434   -7.9856    5.2385 C   0  0  0  0  0  0  0  0  0  0  0  0
   -4.0442   -8.0130    5.6738 O   0  0  0  0  0  0  0  0  0  0  0  0
   -2.4490   -6.8681    4.5953 O   0  0  0  0  0  0  0  0  0  0  0  0
   -3.1255  -11.9963    3.8885 O   0  0  0  0  0  0  0  0  0  0  0  0
  3  4  1  0
  4  8  1  1
  5  9  1  0
  4 10  1  0
  9 11  1  0
 10 12  1  0
 10 13  1  1
 13 14  1  0
 14 15  1  0
 15 16  2  0
 15 17  1  0
 12 18  2  0
  1  2  2  0
  2  5  1  0
  5  6  2  0
  6  7  1  0
  3  7  2  0
  1  3  1  0
M  END

$$$$
No_330-/export/home/yangzhenyu/potential_scad_32_flow//YTHDC2/2024-12-06-03-22-00/
     RDKit          3D

 19 19  0  0  1  0  0  0  0  0999 V2000
    1.1787   -8.0297    3.5154 C   0  0  0  0  0  0  0  0  0  0  0  0
    1.0491   -6.8434    2.9820 C   0  0  0  0  0  0  0  0  0  0  0  0
    1.9985   -8.9840    2.8958 C   0  0  2  0  0  0  0  0  0  0  0  0
    1.7297   -9.2108    1.6335 C   0  0  1  0  0  0  0  0  0  0  0  0
    1.7343   -8.0566    0.8408 C   0  0  0  0  0  0  0  0  0  0  0  0
    1.0269   -6.8892    1.4456 C   0  0  0  0  0  0  0  0  0  0  0  0
    2.0740   -7.9416   -0.3682 O   0  0  0  0  0  0  0  0  0  0  0  0
    2.2757  -10.2253    3.6437 C   0  0  0  0  0  0  0  0  0  0  0  0
    1.5555  -11.3890    3.5635 O   0  0  0  0  0  0  0  0  0  0  0  0
    3.5589  -10.5530    4.0923 N   0  0  0  0  0  0  0  0  0  0  0  0
    3.7982  -11.5208    4.9910 C   0  0  0  0  0  0  0  0  0  0  0  0
    4.6492  -10.7067    6.0256 C   0  0  0  0  0  0  0  0  0  0  0  0
    0.8174   -5.6403    3.4789 O   0  0  0  0  0  0  0  0  0  0  0  0
    0.9249   -5.7302    0.8571 O   0  0  0  0  0  0  0  0  0  0  0  0
    1.8227  -10.3237    0.9350 C   0  0  0  0  0  0  0  0  0  0  0  0
    0.6702  -10.8516    0.4153 O   0  0  0  0  0  0  0  0  0  0  0  0
    2.8233  -11.1248    0.8312 O   0  0  0  0  0  0  0  0  0  0  0  0
    3.8976   -9.8343    6.7169 O   0  0  0  0  0  0  0  0  0  0  0  0
    5.7637  -10.7775    6.0266 O   0  0  0  0  0  0  0  0  0  0  0  0
  1  2  1  0
  1  3  1  0
  3  4  1  0
  4  5  1  0
  2  6  1  0
  5  6  1  0
  5  7  2  0
  3  8  1  1
  8  9  2  0
  8 10  1  0
 10 11  1  0
 11 12  1  0
  2 13  2  0
  6 14  2  0
  4 15  1  6
 15 16  1  0
 15 17  2  0
 12 18  1  0
 12 19  2  0
M  END

$$$$
No_331-/export/home/yangzhenyu/potential_scad_32_flow//YTHDC2/2024-12-06-03-22-00/
     RDKit          3D

 19 19  0  0  1  0  0  0  0  0999 V2000
    1.1787   -8.0297    3.5154 C   0  0  2  0  0  0  0  0  0  0  0  0
    1.1048   -9.2215    3.2892 F   0  0  0  0  0  0  0  0  0  0  0  0
    0.0668   -7.3577    3.4997 C   0  0  0  0  0  0  0  0  0  0  0  0
   -0.9580   -8.1684    3.6884 C   0  0  0  0  0  0  0  0  0  0  0  0
   -1.8516   -8.3430    2.8840 O   0  0  0  0  0  0  0  0  0  0  0  0
    1.7242   -7.6349    2.0823 C   0  0  0  0  0  0  0  0  0  0  0  0
    2.0362   -8.4406    1.0454 C   0  0  0  0  0  0  0  0  0  0  0  0
    1.7740   -9.6659    1.0475 C   0  0  0  0  0  0  0  0  0  0  0  0
    2.0116  -10.4983    0.0834 C   0  0  0  0  0  0  0  0  0  0  0  0
    2.4355   -7.9173   -0.1785 C   0  0  0  0  0  0  0  0  0  0  0  0
    2.4027   -9.9996   -1.1179 C   0  0  0  0  0  0  0  0  0  0  0  0
    2.6899   -8.7295   -1.2144 C   0  0  0  0  0  0  0  0  0  0  0  0
   -1.3028   -8.7287    4.9974 O   0  0  0  0  0  0  0  0  0  0  0  0
    1.6586  -11.9179    0.2721 C   0  0  0  0  0  0  0  0  0  0  0  0
    0.6290  -12.5373    0.0772 O   0  0  0  0  0  0  0  0  0  0  0  0
    2.6533  -12.5783    1.0290 N   0  0  0  0  0  0  0  0  0  0  0  0
    2.5299  -13.9483    1.2765 C   0  0  0  0  0  0  0  0  0  0  0  0
    1.6522  -14.3175    2.4233 C   0  0  0  0  0  0  0  0  0  0  0  0
    1.4348  -13.4505    3.3897 C   0  0  0  0  0  0  0  0  0  0  0  0
  1  2  1  6
  1  3  1  0
  3  4  1  0
  4  5  1  0
  1  6  1  0
  6  7  1  0
  4 13  2  0
  9 14  1  0
 14 15  2  0
 14 16  1  0
 16 17  1  0
 17 18  1  0
 18 19  1  0
  7  8  2  0
  8  9  1  0
  9 11  2  0
 11 12  1  0
 10 12  2  0
  7 10  1  0
M  END

$$$$
No_332-/export/home/yangzhenyu/potential_scad_32_flow//YTHDC2/2024-12-06-03-22-00/
     RDKit          3D

 18 17  0  0  1  0  0  0  0  0999 V2000
    1.1787   -8.0297    3.5154 O   0  0  0  0  0  0  0  0  0  0  0  0
    0.6747   -7.4019    2.7838 C   0  0  0  0  0  0  0  0  0  0  0  0
    0.7594   -8.0032    1.4295 C   0  0  0  0  0  0  0  0  0  0  0  0
    0.3459   -9.1500    1.3581 C   0  0  2  0  0  0  0  0  0  0  0  0
    0.9462   -9.9230    0.3351 C   0  0  0  0  0  0  0  0  0  0  0  0
    1.6884   -9.1549   -0.6693 O   0  0  0  0  0  0  0  0  0  0  0  0
    0.9078  -11.1069    0.0927 O   0  0  0  0  0  0  0  0  0  0  0  0
    1.0997   -5.9596    2.8563 O   0  0  0  0  0  0  0  0  0  0  0  0
   -1.1440   -9.2834    1.1089 C   0  0  0  0  0  0  0  0  0  0  0  0
   -1.8570   -8.6706    0.1151 C   0  0  0  0  0  0  0  0  0  0  0  0
   -1.8479   -9.3569   -1.0833 F   0  0  0  0  0  0  0  0  0  0  0  0
   -0.9840   -7.3829   -0.2125 F   0  0  0  0  0  0  0  0  0  0  0  0
   -2.9953   -8.2187    0.2335 F   0  0  0  0  0  0  0  0  0  0  0  0
   -1.8522  -10.0073    1.8875 C   0  0  0  0  0  0  0  0  0  0  0  0
   -2.3642  -11.3069    1.5386 O   0  0  0  0  0  0  0  0  0  0  0  0
   -2.1095   -9.5629    3.2218 O   0  0  0  0  0  0  0  0  0  0  0  0
   -2.8214  -12.0684    2.4985 C   0  0  0  0  0  0  0  0  0  0  0  0
   -3.1961  -13.4111    1.9652 C   0  0  0  0  0  0  0  0  0  0  0  0
  1  2  1  0
  2  3  1  0
  4  3  1  6
  4  5  1  0
  5  6  2  0
  5  7  1  0
  2  8  2  0
  4  9  1  0
  9 10  1  0
 10 11  1  0
 10 12  1  0
 10 13  1  0
  9 14  1  0
 14 15  1  0
 14 16  2  0
 15 17  1  0
 17 18  1  0
M  END

$$$$
No_333-/export/home/yangzhenyu/potential_scad_32_flow//YTHDC2/2024-12-06-03-22-00/
     RDKit          3D

 20 20  0  0  1  0  0  0  0  0999 V2000
    1.1787   -8.0297    3.5154 C   0  0  0  0  0  0  0  0  0  0  0  0
    1.0491   -6.8434    2.9820 C   0  0  0  0  0  0  0  0  0  0  0  0
    1.9985   -8.9840    2.8958 C   0  0  2  0  0  0  0  0  0  0  0  0
    1.7297   -9.2108    1.6335 C   0  0  0  0  0  0  0  0  0  0  0  0
    1.7343   -8.0566    0.8408 C   0  0  2  0  0  0  0  0  0  0  0  0
    1.0269   -6.8892    1.4456 C   0  0  0  0  0  0  0  0  0  0  0  0
    2.0740   -7.9416   -0.3682 C   0  0  0  0  0  0  0  0  0  0  0  0
    2.2588   -9.0634   -1.1089 C   0  0  0  0  0  0  0  0  0  0  0  0
    3.4999   -9.2524   -1.6422 O   0  0  0  0  0  0  0  0  0  0  0  0
    1.9133  -10.3653    3.5973 C   0  0  0  0  0  0  0  0  0  0  0  0
    2.8786  -10.5387    4.4928 O   0  0  0  0  0  0  0  0  0  0  0  0
    1.3222  -11.4141    3.2626 O   0  0  0  0  0  0  0  0  0  0  0  0
    1.4218   -9.7907   -1.3880 O   0  0  0  0  0  0  0  0  0  0  0  0
    0.6474   -5.8303    0.8603 O   0  0  0  0  0  0  0  0  0  0  0  0
    0.9173   -5.7117    3.5369 O   0  0  0  0  0  0  0  0  0  0  0  0
    1.8726  -10.3666    1.1136 O   0  0  0  0  0  0  0  0  0  0  0  0
    0.0536   -9.3912   -1.0348 C   0  0  0  0  0  0  0  0  0  0  0  0
   -1.0601   -9.9830   -1.8272 C   0  0  0  0  0  0  0  0  0  0  0  0
   -1.7109  -10.8375   -1.2299 C   0  0  0  0  0  0  0  0  0  0  0  0
   -1.9922  -10.6578    0.0862 O   0  0  0  0  0  0  0  0  0  0  0  0
  1  2  1  0
  1  3  1  0
  3  4  1  0
  4  5  1  0
  2  6  1  0
  5  6  1  0
  5  7  1  6
  7  8  1  0
  8  9  2  0
  3 10  1  1
 10 11  1  0
 10 12  2  0
  8 13  1  0
  6 14  2  0
  2 15  2  0
  4 16  2  0
 13 17  1  0
 17 18  1  0
 18 19  1  0
 19 20  1  0
M  END

$$$$
No_334-/export/home/yangzhenyu/potential_scad_32_flow//YTHDC2/2024-12-06-03-22-00/
     RDKit          3D

 17 17  0  0  1  0  0  0  0  0999 V2000
    1.1787   -8.0297    3.5154 C   0  0  0  0  0  0  0  0  0  0  0  0
    1.0491   -6.8434    2.9820 C   0  0  0  0  0  0  0  0  0  0  0  0
    0.9905   -9.0774    2.6527 C   0  0  0  0  0  0  0  0  0  0  0  0
    0.7897   -8.9519    1.3691 C   0  0  0  0  0  0  0  0  0  0  0  0
    0.7018   -7.7198    0.7892 N   0  0  0  0  0  0  0  0  0  0  0  0
    0.8792   -6.6462    1.5874 C   0  0  0  0  0  0  0  0  0  0  0  0
    1.0528  -10.4814    3.2351 C   0  0  0  0  0  0  0  0  0  0  0  0
    2.1284  -11.0125    3.6127 C   0  0  0  0  0  0  0  0  0  0  0  0
    0.8461   -5.3383    1.0422 O   0  0  0  0  0  0  0  0  0  0  0  0
   -0.0823  -11.2188    3.3400 C   0  0  0  0  0  0  0  0  0  0  0  0
   -0.1538  -12.4699    3.1436 O   0  0  0  0  0  0  0  0  0  0  0  0
   -1.2865  -10.5786    3.7355 N   0  0  0  0  0  0  0  0  0  0  0  0
    2.1629  -11.0312    5.0796 O   0  0  0  0  0  0  0  0  0  0  0  0
    0.6128   -9.9808    0.3326 C   0  0  1  0  0  0  0  0  0  0  0  0
    1.7721  -10.7341    0.0243 C   0  0  0  0  0  0  0  0  0  0  0  0
   -0.5745  -10.3269   -0.1955 C   0  0  0  0  0  0  0  0  0  0  0  0
   -1.1902  -11.4245    0.0451 O   0  0  0  0  0  0  0  0  0  0  0  0
  1  2  1  0
  3  4  1  0
  2  6  1  0
  5  6  1  0
  3  7  1  0
  7  8  1  0
  6  9  2  0
  7 10  1  0
 10 11  2  0
 10 12  1  0
  8 13  1  0
  4 14  1  0
 14 15  1  1
 14 16  1  0
 16 17  2  0
  1  3  1  0
  4  5  1  0
M  END

$$$$
No_335-/export/home/yangzhenyu/potential_scad_32_flow//YTHDC2/2024-12-06-03-22-00/
     RDKit          3D

 19 20  0  0  0  0  0  0  0  0999 V2000
    1.1787   -8.0297    3.5154 C   0  0  0  0  0  0  0  0  0  0  0  0
    1.1048   -9.2215    3.2892 S   0  0  0  0  0  0  0  0  0  0  0  0
    1.0589   -9.5258    1.8391 C   0  0  0  0  0  0  0  0  0  0  0  0
    1.1543   -8.4781    1.1014 C   0  0  0  0  0  0  0  0  0  0  0  0
    1.3811   -7.3514    2.1620 C   0  0  0  0  0  0  0  0  0  0  0  0
    1.3376   -8.2103   -0.1437 C   0  0  0  0  0  0  0  0  0  0  0  0
    0.9295   -9.1621   -0.9052 C   0  0  0  0  0  0  0  0  0  0  0  0
    0.9648  -10.7548    1.1675 C   0  0  0  0  0  0  0  0  0  0  0  0
    1.0511  -12.0455    1.7824 C   0  0  0  0  0  0  0  0  0  0  0  0
    0.8076  -10.5784   -0.2669 C   0  0  0  0  0  0  0  0  0  0  0  0
    0.1128  -12.8225    1.9802 C   0  0  0  0  0  0  0  0  0  0  0  0
    0.4988  -14.0800    2.7985 O   0  0  0  0  0  0  0  0  0  0  0  0
   -1.0055  -12.7328    1.5896 O   0  0  0  0  0  0  0  0  0  0  0  0
    0.9087  -15.2085    2.2363 C   0  0  0  0  0  0  0  0  0  0  0  0
    2.3503  -15.2842    2.3868 C   0  0  0  0  0  0  0  0  0  0  0  0
    2.9446  -16.5045    2.0836 O   0  0  0  0  0  0  0  0  0  0  0  0
    3.1852  -14.3075    2.4851 O   0  0  0  0  0  0  0  0  0  0  0  0
   -0.2926   -9.8285    3.9709 O   0  0  0  0  0  0  0  0  0  0  0  0
    2.1066  -10.1727    4.0185 O   0  0  0  0  0  0  0  0  0  0  0  0
  1  2  1  0
  2  3  1  0
  1  5  1  0
  4  5  1  0
  8  9  1  0
  9 11  1  0
 11 12  1  0
 11 13  2  0
 12 14  1  0
 14 15  1  0
 15 16  2  0
 15 17  1  0
  2 18  2  0
  2 19  2  0
  3  4  2  0
  4  6  1  0
  6  7  2  0
  7 10  1  0
  8 10  2  0
  3  8  1  0
M  END

$$$$
No_336-/export/home/yangzhenyu/potential_scad_32_flow//YTHDC2/2024-12-06-03-22-00/
     RDKit          3D

 17 17  0  0  1  0  0  0  0  0999 V2000
    1.1787   -8.0297    3.5154 C   0  0  0  0  0  0  0  0  0  0  0  0
    1.0491   -6.8434    2.9820 C   0  0  0  0  0  0  0  0  0  0  0  0
    0.2462   -8.9560    3.0873 C   0  0  1  0  0  0  0  0  0  0  0  0
    0.3295   -6.5187    1.9069 C   0  0  1  0  0  0  0  0  0  0  0  0
   -0.5260   -8.7862    2.1368 C   0  0  0  0  0  0  0  0  0  0  0  0
   -0.5458   -7.5614    1.5054 C   0  0  0  0  0  0  0  0  0  0  0  0
    0.2879   -5.2870    1.3175 C   0  0  0  0  0  0  0  0  0  0  0  0
    0.3538  -10.3272    3.6802 C   0  0  0  0  0  0  0  0  0  0  0  0
    1.4337  -10.9516    4.0192 N   0  0  0  0  0  0  0  0  0  0  0  0
   -0.7627  -11.1632    3.5297 O   0  0  0  0  0  0  0  0  0  0  0  0
   -0.5435   -4.8091    0.5499 O   0  0  0  0  0  0  0  0  0  0  0  0
    1.3708   -4.4002    1.5993 Cl  0  0  0  0  0  0  0  0  0  0  0  0
    2.7339  -10.4663    4.0808 C   0  0  0  0  0  0  0  0  0  0  0  0
    3.3972  -10.8998    5.3561 C   0  0  0  0  0  0  0  0  0  0  0  0
    4.7782  -11.1884    5.1093 O   0  0  0  0  0  0  0  0  0  0  0  0
    3.1647  -10.4512    6.4473 O   0  0  0  0  0  0  0  0  0  0  0  0
   -1.5297   -7.3586    0.6316 O   0  0  0  0  0  0  0  0  0  0  0  0
  1  3  1  0
  2  4  1  0
  4  6  1  0
  5  6  1  0
  4  7  1  1
  3  8  1  6
  8  9  1  0
  8 10  2  0
  7 11  2  0
  7 12  1  0
  9 13  1  0
 13 14  1  0
 14 15  2  0
 14 16  1  0
  6 17  2  0
  1  2  1  0
  3  5  1  0
M  END

$$$$
No_337-/export/home/yangzhenyu/potential_scad_32_flow//YTHDC2/2024-12-06-03-22-00/
     RDKit          3D

 14 13  0  0  0  0  0  0  0  0999 V2000
    1.1787   -8.0297    3.5154 O   0  0  0  0  0  0  0  0  0  0  0  0
    0.9969   -8.9689    3.0048 S   0  0  0  0  0  0  0  0  0  0  0  0
    1.3142   -8.9004    1.5899 C   0  0  0  0  0  0  0  0  0  0  0  0
    0.8346   -9.0530    0.5551 C   0  0  0  0  0  0  0  0  0  0  0  0
    1.3582   -8.9547   -0.8877 O   0  0  0  0  0  0  0  0  0  0  0  0
   -0.4959   -9.2328    0.4304 N   0  0  0  0  0  0  0  0  0  0  0  0
    1.6054  -10.2870    3.6242 O   0  0  0  0  0  0  0  0  0  0  0  0
   -1.2142   -9.3503   -0.9096 C   0  0  0  0  0  0  0  0  0  0  0  0
   -1.4879  -10.6683   -1.2359 C   0  0  0  0  0  0  0  0  0  0  0  0
   -1.3898  -11.6065   -0.2309 O   0  0  0  0  0  0  0  0  0  0  0  0
   -1.8208  -10.9821   -2.4301 O   0  0  0  0  0  0  0  0  0  0  0  0
   -1.5581   -8.2480   -1.5750 C   0  0  0  0  0  0  0  0  0  0  0  0
   -2.4112   -7.4304   -1.1668 O   0  0  0  0  0  0  0  0  0  0  0  0
   -0.9304   -8.0372   -2.7920 O   0  0  0  0  0  0  0  0  0  0  0  0
  1  2  2  0
  2  3  1  0
  3  4  1  0
  4  5  2  0
  4  6  1  0
  2  7  2  0
  6  8  1  0
  8  9  1  0
  9 10  1  0
  9 11  2  0
  8 12  1  0
 12 13  1  0
 12 14  2  0
M  END

$$$$
No_338-/export/home/yangzhenyu/potential_scad_32_flow//YTHDC2/2024-12-06-03-22-00/
     RDKit          3D

 19 20  0  0  1  0  0  0  0  0999 V2000
    1.1787   -8.0297    3.5154 C   0  0  0  0  0  0  0  0  0  0  0  0
    1.0491   -6.8434    2.9820 C   0  0  0  0  0  0  0  0  0  0  0  0
    0.2462   -8.9560    3.0873 C   0  0  0  0  0  0  0  0  0  0  0  0
    0.3295   -6.5187    1.9069 C   0  0  0  0  0  0  0  0  0  0  0  0
   -0.5260   -8.7862    2.1368 C   0  0  0  0  0  0  0  0  0  0  0  0
   -0.5458   -7.5614    1.5054 C   0  0  0  0  0  0  0  0  0  0  0  0
    0.3663  -10.3301    3.7373 C   0  0  2  0  0  0  0  0  0  0  0  0
   -0.8414  -11.0073    3.8266 C   0  0  0  0  0  0  0  0  0  0  0  0
   -1.8073  -10.7830    2.9067 C   0  0  1  0  0  0  0  0  0  0  0  0
   -1.6751   -9.6316    2.0473 C   0  0  0  0  0  0  0  0  0  0  0  0
   -2.7600  -11.7107    2.5404 C   0  0  0  0  0  0  0  0  0  0  0  0
    0.3504   -5.3182    1.1829 O   0  0  0  0  0  0  0  0  0  0  0  0
   -2.3424  -12.9625    2.2248 O   0  0  0  0  0  0  0  0  0  0  0  0
   -3.8828  -11.6295    3.3798 O   0  0  0  0  0  0  0  0  0  0  0  0
    0.0611   -4.1459    1.7840 C   0  0  0  0  0  0  0  0  0  0  0  0
   -2.6600   -9.3705    1.0968 O   0  0  0  0  0  0  0  0  0  0  0  0
    1.3635  -10.5869    4.7667 C   0  0  0  0  0  0  0  0  0  0  0  0
    1.6729  -11.7948    4.8502 O   0  0  0  0  0  0  0  0  0  0  0  0
    2.3941   -9.7913    4.9396 N   0  0  0  0  0  0  0  0  0  0  0  0
  3  7  1  0
  8  9  1  0
  5 10  1  0
  9 10  1  0
  9 11  1  6
  4 12  1  0
 11 13  2  0
 11 14  1  0
 12 15  1  0
 10 16  2  0
  7 17  1  1
 17 18  2  0
 17 19  1  0
  7  8  1  0
  1  2  2  0
  2  4  1  0
  4  6  2  0
  5  6  1  0
  3  5  2  0
  1  3  1  0
M  END

$$$$
No_339-/export/home/yangzhenyu/potential_scad_32_flow//YTHDC2/2024-12-06-03-22-00/
     RDKit          3D

 20 19  0  0  1  0  0  0  0  0999 V2000
    1.1787   -8.0297    3.5154 C   0  0  0  0  0  0  0  0  0  0  0  0
    1.1048   -9.2215    3.2892 Cl  0  0  0  0  0  0  0  0  0  0  0  0
    1.1053   -7.0623    2.3233 C   0  0  0  0  0  0  0  0  0  0  0  0
    0.2376   -7.0821    1.6319 C   0  0  2  0  0  0  0  0  0  0  0  0
   -0.0155   -8.0601    0.7610 C   0  0  2  0  0  0  0  0  0  0  0  0
    0.9805   -8.6393   -0.0487 C   0  0  0  0  0  0  0  0  0  0  0  0
    2.1044   -7.9833   -0.3288 O   0  0  0  0  0  0  0  0  0  0  0  0
    0.7958   -9.7557   -0.6723 O   0  0  0  0  0  0  0  0  0  0  0  0
   -0.5444   -5.8705    1.4465 C   0  0  0  0  0  0  0  0  0  0  0  0
   -1.7554   -5.8327    0.9080 O   0  0  0  0  0  0  0  0  0  0  0  0
    0.1146   -4.5505    1.3656 C   0  0  0  0  0  0  0  0  0  0  0  0
    0.7545   -4.1105    2.3350 C   0  0  1  0  0  0  0  0  0  0  0  0
    2.2285   -4.0362    2.2302 C   0  0  0  0  0  0  0  0  0  0  0  0
    0.2966   -3.5582    3.5129 C   0  0  0  0  0  0  0  0  0  0  0  0
   -0.8239   -3.1364    3.5340 C   0  0  0  0  0  0  0  0  0  0  0  0
   -0.2494   -3.7614    0.4315 O   0  0  0  0  0  0  0  0  0  0  0  0
   -1.1558   -1.8006    3.3453 Cl  0  0  0  0  0  0  0  0  0  0  0  0
   -1.9974   -4.1133    3.6785 O   0  0  0  0  0  0  0  0  0  0  0  0
    1.1658   -3.4161    4.5450 O   0  0  0  0  0  0  0  0  0  0  0  0
   -1.2849   -8.5613    0.5068 C   0  0  0  0  0  0  0  0  0  0  0  0
  1  2  1  0
  1  3  1  0
  4  3  1  6
  4  5  1  0
  5  6  1  0
  6  7  2  0
  6  8  1  0
  4  9  1  0
  9 10  2  0
  9 11  1  0
 11 12  1  0
 12 13  1  6
 12 14  1  0
 14 15  1  0
 11 16  2  0
 15 17  1  0
 15 18  2  0
 14 19  2  0
  5 20  1  6
M  END

$$$$
No_340-/export/home/yangzhenyu/potential_scad_32_flow//YTHDC2/2024-12-06-03-22-00/
     RDKit          3D

 20 20  0  0  0  0  0  0  0  0999 V2000
    1.1787   -8.0297    3.5154 C   0  0  0  0  0  0  0  0  0  0  0  0
    1.0491   -6.8434    2.9820 C   0  0  0  0  0  0  0  0  0  0  0  0
    0.9905   -9.0774    2.6527 C   0  0  0  0  0  0  0  0  0  0  0  0
    0.7897   -8.9519    1.3691 C   0  0  0  0  0  0  0  0  0  0  0  0
    0.7018   -7.7198    0.7892 C   0  0  0  0  0  0  0  0  0  0  0  0
    0.8918   -6.5957    1.6117 C   0  0  0  0  0  0  0  0  0  0  0  0
    1.0774  -10.6059    3.3145 C   0  0  0  0  0  0  0  0  0  0  0  0
   -0.1032  -11.1934    3.4585 O   0  0  0  0  0  0  0  0  0  0  0  0
    2.1701  -11.0980    3.6547 C   0  0  0  0  0  0  0  0  0  0  0  0
    3.0334  -10.2603    4.5580 N   0  0  0  0  0  0  0  0  0  0  0  0
    0.8123   -5.2983    1.0808 Br  0  0  0  0  0  0  0  0  0  0  0  0
   -0.9450  -11.2352    2.6592 C   0  0  0  0  0  0  0  0  0  0  0  0
    4.0644  -11.0863    5.2503 N   0  0  0  0  0  0  0  0  0  0  0  0
    4.2003  -10.7437    6.5662 N   0  0  0  0  0  0  0  0  0  0  0  0
    2.6943  -12.0868    3.3825 O   0  0  0  0  0  0  0  0  0  0  0  0
   -0.9851  -12.3721    1.8140 C   0  0  0  0  0  0  0  0  0  0  0  0
   -0.6151  -13.4955    2.2892 C   0  0  0  0  0  0  0  0  0  0  0  0
   -1.1858  -14.5097    2.2995 C   0  0  0  0  0  0  0  0  0  0  0  0
   -2.4351  -14.6472    1.7238 C   0  0  0  0  0  0  0  0  0  0  0  0
    3.6332  -10.0049    6.9569 H   0  0  0  0  0  0  0  0  0  0  0  0
  3  7  1  0
  7  8  1  0
  7  9  1  0
  9 10  1  0
  6 11  1  0
  8 12  1  0
 10 13  1  0
 13 14  2  0
  9 15  2  0
 12 16  1  0
 16 17  1  0
 17 18  2  3
 18 19  1  0
  1  2  2  0
  2  6  1  0
  5  6  2  0
  4  5  1  0
  3  4  2  0
  1  3  1  0
 14 20  1  0
M  END

$$$$
No_341-/export/home/yangzhenyu/potential_scad_32_flow//YTHDC2/2024-12-06-03-22-00/
     RDKit          3D

 19 20  0  0  0  0  0  0  0  0999 V2000
    1.1787   -8.0297    3.5154 C   0  0  0  0  0  0  0  0  0  0  0  0
    1.1048   -9.2215    3.2892 C   0  0  0  0  0  0  0  0  0  0  0  0
    1.3627  -10.1721    4.3044 C   0  0  0  0  0  0  0  0  0  0  0  0
    1.7354  -11.4730    3.9023 C   0  0  0  0  0  0  0  0  0  0  0  0
    1.8080  -11.8127    2.7216 C   0  0  0  0  0  0  0  0  0  0  0  0
    1.5854  -11.0021    1.7249 C   0  0  0  0  0  0  0  0  0  0  0  0
    1.3573   -9.7389    1.9287 C   0  0  0  0  0  0  0  0  0  0  0  0
    1.1102   -8.8712    0.9017 C   0  0  0  0  0  0  0  0  0  0  0  0
    0.5299   -7.6926    1.0325 C   0  0  0  0  0  0  0  0  0  0  0  0
    0.7526   -7.0802    2.3301 C   0  0  0  0  0  0  0  0  0  0  0  0
    2.0515  -13.2522    2.4284 S   0  0  0  0  0  0  0  0  0  0  0  0
    0.8134  -13.7264    1.4043 N   0  0  0  0  0  0  0  0  0  0  0  0
    3.3860  -13.4129    1.7572 O   0  0  0  0  0  0  0  0  0  0  0  0
    2.0236  -14.2004    3.5166 O   0  0  0  0  0  0  0  0  0  0  0  0
    0.4819   -5.4564    2.5847 I   0  0  0  0  0  0  0  0  0  0  0  0
   -0.3811  -13.5605    1.6963 C   0  0  0  0  0  0  0  0  0  0  0  0
   -1.0904  -12.5733    1.3043 C   0  0  0  0  0  0  0  0  0  0  0  0
   -1.2784  -12.3893   -0.0018 C   0  0  0  0  0  0  0  0  0  0  0  0
   -1.3433  -13.4697   -0.7264 C   0  0  0  0  0  0  0  0  0  0  0  0
  5 11  1  0
 11 12  1  0
 11 13  2  0
 11 14  2  0
 10 15  1  0
 12 16  1  0
 16 17  1  0
 17 18  1  0
 18 19  2  0
  1  2  2  0
  7  8  2  0
  8  9  1  0
  9 10  2  0
  1 10  1  0
  2  3  1  0
  3  4  2  0
  4  5  1  0
  5  6  2  0
  6  7  1  0
  2  7  1  0
M  END

$$$$
No_342-/export/home/yangzhenyu/potential_scad_32_flow//YTHDC2/2024-12-06-03-22-00/
     RDKit          3D

 19 19  0  0  1  0  0  0  0  0999 V2000
    1.1787   -8.0297    3.5154 C   0  0  0  0  0  0  0  0  0  0  0  0
    1.0491   -6.8434    2.9820 C   0  0  0  0  0  0  0  0  0  0  0  0
    1.9985   -8.9840    2.8958 C   0  0  2  0  0  0  0  0  0  0  0  0
    1.7297   -9.2108    1.6335 C   0  0  0  0  0  0  0  0  0  0  0  0
    1.7343   -8.0566    0.8408 C   0  0  2  0  0  0  0  0  0  0  0  0
    1.0269   -6.8892    1.4456 C   0  0  0  0  0  0  0  0  0  0  0  0
    2.0740   -7.9416   -0.3682 C   0  0  0  0  0  0  0  0  0  0  0  0
    2.2588   -9.0634   -1.1089 C   0  0  0  0  0  0  0  0  0  0  0  0
    1.3343   -9.8745   -1.3425 O   0  0  0  0  0  0  0  0  0  0  0  0
    3.4292   -9.3017   -1.5404 O   0  0  0  0  0  0  0  0  0  0  0  0
    1.9189  -10.3377    3.6554 C   0  0  0  0  0  0  0  0  0  0  0  0
    2.5903  -10.4181    4.7150 N   0  0  0  0  0  0  0  0  0  0  0  0
    1.5146  -11.4619    3.1816 O   0  0  0  0  0  0  0  0  0  0  0  0
    2.9464  -11.6363    5.4094 S   0  0  2  0  0  0  0  0  0  0  0  0
    4.1868  -10.9832    6.1513 C   0  0  0  0  0  0  0  0  0  0  0  0
    0.6653   -5.8249    0.8356 O   0  0  0  0  0  0  0  0  0  0  0  0
    3.5850  -12.4227    4.2707 C   0  0  0  0  0  0  0  0  0  0  0  0
    0.8700   -5.6775    3.5019 O   0  0  0  0  0  0  0  0  0  0  0  0
    2.7138  -13.2640    3.7310 C   0  0  0  0  0  0  0  0  0  0  0  0
  1  2  1  0
  1  3  1  0
  3  4  1  0
  4  5  1  0
  2  6  1  0
  5  6  1  0
  5  7  1  6
  7  8  1  0
  8  9  1  0
  8 10  2  0
  3 11  1  1
 11 12  1  0
 11 13  2  0
 12 14  1  0
 14 15  1  1
  6 16  2  0
 14 17  1  0
  2 18  2  0
 17 19  1  0
M  END

$$$$
No_343-/export/home/yangzhenyu/potential_scad_32_flow//YTHDC2/2024-12-06-03-22-00/
     RDKit          3D

 19 18  0  0  1  0  0  0  0  0999 V2000
    1.1787   -8.0297    3.5154 C   0  0  0  0  0  0  0  0  0  0  0  0
    1.0491   -6.8434    2.9820 C   0  0  0  0  0  0  0  0  0  0  0  0
    0.0950   -8.8404    3.2292 C   0  0  0  0  0  0  0  0  0  0  0  0
   -0.9173   -8.4596    2.5152 Cl  0  0  0  0  0  0  0  0  0  0  0  0
    1.0481   -6.4772    1.6274 C   0  0  2  0  0  0  0  0  0  0  0  0
    1.5394   -7.2151    0.7440 C   0  0  0  0  0  0  0  0  0  0  0  0
    0.0857  -10.1398    4.0726 C   0  0  0  0  0  0  0  0  0  0  0  0
    1.2501  -10.8157    4.2446 C   0  0  0  0  0  0  0  0  0  0  0  0
    1.0690  -12.1323    4.7988 O   0  0  0  0  0  0  0  0  0  0  0  0
    2.4695  -10.5693    3.7648 N   0  0  0  0  0  0  0  0  0  0  0  0
    0.5847   -5.2267    1.2507 C   0  0  0  0  0  0  0  0  0  0  0  0
    1.1844   -4.0042    1.6992 O   0  0  0  0  0  0  0  0  0  0  0  0
   -0.5728   -4.9290    0.7406 O   0  0  0  0  0  0  0  0  0  0  0  0
   -1.0941  -10.6370    4.5355 C   0  0  0  0  0  0  0  0  0  0  0  0
    0.8677   -8.0186   -0.1429 C   0  0  1  0  0  0  0  0  0  0  0  0
   -0.3118   -7.6365   -0.6298 C   0  0  0  0  0  0  0  0  0  0  0  0
    1.4876   -9.0972   -0.7699 C   0  0  0  0  0  0  0  0  0  0  0  0
    2.2496   -9.7122   -0.2279 O   0  0  0  0  0  0  0  0  0  0  0  0
    1.6407   -8.8573   -2.0183 O   0  0  0  0  0  0  0  0  0  0  0  0
  1  2  1  0
  1  3  2  3
  3  4  1  0
  5  2  1  1
  5  6  1  0
  3  7  1  0
  7  8  2  3
  8  9  1  0
  8 10  1  0
  5 11  1  0
 11 12  2  0
 11 13  1  0
  7 14  1  0
  6 15  1  0
 15 16  1  6
 15 17  1  0
 17 18  1  0
 17 19  2  0
M  END

$$$$
No_344-/export/home/yangzhenyu/potential_scad_32_flow//YTHDC2/2024-12-06-03-22-00/
     RDKit          3D

 20 20  0  0  1  0  0  0  0  0999 V2000
    1.1787   -8.0297    3.5154 C   0  0  0  0  0  0  0  0  0  0  0  0
    1.1048   -9.2215    3.2892 C   0  0  0  0  0  0  0  0  0  0  0  0
    1.3627  -10.1721    4.3044 C   0  0  0  0  0  0  0  0  0  0  0  0
    1.7354  -11.4730    3.9023 C   0  0  0  0  0  0  0  0  0  0  0  0
    1.8080  -11.8127    2.7216 C   0  0  0  0  0  0  0  0  0  0  0  0
    1.5854  -11.0021    1.7249 C   0  0  0  0  0  0  0  0  0  0  0  0
    1.3573   -9.7389    1.9287 C   0  0  0  0  0  0  0  0  0  0  0  0
    1.1102   -8.8712    0.9017 C   0  0  2  0  0  0  0  0  0  0  0  0
    0.5299   -7.6926    1.0325 Cl  0  0  0  0  0  0  0  0  0  0  0  0
    1.4119   -9.3745   -0.3895 C   0  0  0  0  0  0  0  0  0  0  0  0
    2.7025   -9.7400   -0.6905 O   0  0  0  0  0  0  0  0  0  0  0  0
    0.6785   -9.3764   -1.3468 O   0  0  0  0  0  0  0  0  0  0  0  0
    2.1078  -13.4843    2.3986 O   0  0  0  0  0  0  0  0  0  0  0  0
    2.0390  -13.8263    1.1952 C   0  0  0  0  0  0  0  0  0  0  0  0
    2.5281   -7.3277    3.5561 N   0  0  0  0  0  0  0  0  0  0  0  0
    0.8946  -14.0993    0.6987 C   0  0  0  0  0  0  0  0  0  0  0  0
   -0.1410  -14.0165    1.3506 C   0  0  0  0  0  0  0  0  0  0  0  0
   -1.1914  -13.2816    1.2136 C   0  0  0  0  0  0  0  0  0  0  0  0
   -2.3382  -13.2236    2.1420 C   0  0  0  0  0  0  0  0  0  0  0  0
   -2.3851  -14.2378    2.9855 C   0  0  0  0  0  0  0  0  0  0  0  0
  1  2  1  0
  7  8  1  0
  8  9  1  6
  8 10  1  0
 10 11  1  0
 10 12  2  0
  5 13  1  0
 13 14  1  0
  1 15  1  0
 14 16  1  0
 16 17  1  0
 17 18  2  3
 18 19  1  0
 19 20  2  0
  2  3  2  0
  3  4  1  0
  4  5  2  0
  5  6  1  0
  6  7  2  0
  2  7  1  0
M  END

$$$$
No_345-/export/home/yangzhenyu/potential_scad_32_flow//YTHDC2/2024-12-06-03-22-00/
     RDKit          3D

 18 18  0  0  1  0  0  0  0  0999 V2000
    1.1787   -8.0297    3.5154 C   0  0  0  0  0  0  0  0  0  0  0  0
    1.1048   -9.2215    3.2892 C   0  0  0  0  0  0  0  0  0  0  0  0
    1.2339   -9.7611    2.0189 C   0  0  0  0  0  0  0  0  0  0  0  0
    1.3583   -9.0036    0.9764 C   0  0  0  0  0  0  0  0  0  0  0  0
    1.5996   -7.6362    1.1311 C   0  0  0  0  0  0  0  0  0  0  0  0
    1.4830   -7.0928    2.3626 C   0  0  0  0  0  0  0  0  0  0  0  0
    1.5395   -5.7300    2.6182 N   0  0  0  0  0  0  0  0  0  0  0  0
    1.1756  -11.2259    1.8616 C   0  0  0  0  0  0  0  0  0  0  0  0
    0.8261  -11.6119    0.5979 O   0  0  0  0  0  0  0  0  0  0  0  0
    1.5104  -12.0442    2.7383 N   0  0  0  0  0  0  0  0  0  0  0  0
    1.5768  -13.4315    2.5491 C   0  0  0  0  0  0  0  0  0  0  0  0
    2.7224  -14.2287    2.4778 C   0  0  0  0  0  0  0  0  0  0  0  0
    2.4849  -15.6118    2.1957 O   0  0  0  0  0  0  0  0  0  0  0  0
    0.8947   -4.8212    2.7465 O   0  0  0  0  0  0  0  0  0  0  0  0
    3.7872  -14.0898    2.8940 O   0  0  0  0  0  0  0  0  0  0  0  0
    0.3179  -13.8945    2.4690 C   0  0  2  0  0  0  0  0  0  0  0  0
   -0.3888  -14.1331    3.6736 O   0  0  0  0  0  0  0  0  0  0  0  0
   -0.2603  -14.3414    1.3942 C   0  0  0  0  0  0  0  0  0  0  0  0
  6  7  1  0
  3  8  1  0
  8  9  2  0
  8 10  1  0
 10 11  1  0
 11 12  1  0
 12 13  2  0
  7 14  2  0
 12 15  1  0
 11 16  1  0
 16 17  1  0
 16 18  1  1
  1  2  2  0
  2  3  1  0
  3  4  2  0
  4  5  1  0
  5  6  2  0
  1  6  1  0
M  END

$$$$
No_346-/export/home/yangzhenyu/potential_scad_32_flow//YTHDC2/2024-12-06-03-22-00/
     RDKit          3D

 20 20  0  0  0  0  0  0  0  0999 V2000
    1.1787   -8.0297    3.5154 C   0  0  0  0  0  0  0  0  0  0  0  0
    1.1048   -9.2215    3.2892 C   0  0  0  0  0  0  0  0  0  0  0  0
    1.3627  -10.1721    4.3044 C   0  0  0  0  0  0  0  0  0  0  0  0
    2.3720  -10.8948    4.2468 C   0  0  0  0  0  0  0  0  0  0  0  0
    1.0579   -7.0441    2.4219 C   0  0  0  0  0  0  0  0  0  0  0  0
    0.8578   -7.4970    1.1686 C   0  0  0  0  0  0  0  0  0  0  0  0
    0.7382   -8.7683    0.8754 C   0  0  0  0  0  0  0  0  0  0  0  0
    0.8882   -9.7347    1.9238 C   0  0  0  0  0  0  0  0  0  0  0  0
    0.9437  -11.0299    1.7005 C   0  0  0  0  0  0  0  0  0  0  0  0
    1.9466  -11.5929    1.1835 O   0  0  0  0  0  0  0  0  0  0  0  0
   -0.1390  -11.7787    1.8277 O   0  0  0  0  0  0  0  0  0  0  0  0
    1.2003   -5.5985    2.6872 Cl  0  0  0  0  0  0  0  0  0  0  0  0
    3.5360  -10.3809    5.0543 C   0  0  0  0  0  0  0  0  0  0  0  0
    3.1573  -10.1093    6.3734 O   0  0  0  0  0  0  0  0  0  0  0  0
    4.6773  -10.7705    4.9891 O   0  0  0  0  0  0  0  0  0  0  0  0
    0.3976   -9.2989   -0.6712 C   0  0  0  0  0  0  0  0  0  0  0  0
    1.2168   -9.0080   -1.5068 O   0  0  0  0  0  0  0  0  0  0  0  0
   -0.8628   -9.4595   -0.8305 O   0  0  0  0  0  0  0  0  0  0  0  0
   -1.3288   -9.8020   -2.1504 C   0  0  0  0  0  0  0  0  0  0  0  0
   -1.8415   -8.7525   -2.9385 C   0  0  0  0  0  0  0  0  0  0  0  0
  2  3  1  0
  3  4  1  0
  8  9  1  0
  9 10  1  0
  9 11  2  0
  5 12  1  0
  4 13  1  0
 13 14  1  0
 13 15  2  0
  7 16  1  0
 16 17  2  0
 16 18  1  0
 18 19  1  0
 19 20  1  0
  1  2  2  0
  2  8  1  0
  7  8  2  0
  6  7  1  0
  5  6  2  0
  1  5  1  0
M  END

$$$$
No_347-/export/home/yangzhenyu/potential_scad_32_flow//YTHDC2/2024-12-06-03-22-00/
     RDKit          3D

 17 18  0  0  0  0  0  0  0  0999 V2000
    1.1787   -8.0297    3.5154 O   0  0  0  0  0  0  0  0  0  0  0  0
    0.9969   -8.9689    3.0048 C   0  0  0  0  0  0  0  0  0  0  0  0
    0.9976   -8.9567    1.6341 C   0  0  0  0  0  0  0  0  0  0  0  0
    0.7663   -7.7728    1.0082 C   0  0  0  0  0  0  0  0  0  0  0  0
    0.6511   -7.8707   -0.2597 C   0  0  0  0  0  0  0  0  0  0  0  0
    0.6524   -9.1502   -0.9273 C   0  0  0  0  0  0  0  0  0  0  0  0
    0.8410  -10.3178   -0.0776 C   0  0  0  0  0  0  0  0  0  0  0  0
    0.9352  -10.1774    1.2638 C   0  0  0  0  0  0  0  0  0  0  0  0
    0.6653   -9.9180    3.8992 O   0  0  0  0  0  0  0  0  0  0  0  0
    1.1390  -11.3022    1.9078 C   0  0  0  0  0  0  0  0  0  0  0  0
    0.3985  -12.3811    1.9468 C   0  0  0  0  0  0  0  0  0  0  0  0
    0.6932  -13.6218    2.6621 C   0  0  0  0  0  0  0  0  0  0  0  0
    1.6815  -13.6683    3.5372 C   0  0  0  0  0  0  0  0  0  0  0  0
    2.5346  -12.6484    3.5400 C   0  0  0  0  0  0  0  0  0  0  0  0
    2.3548  -11.5211    2.9027 C   0  0  0  0  0  0  0  0  0  0  0  0
   -0.3585  -14.5675    2.5034 O   0  0  0  0  0  0  0  0  0  0  0  0
   -0.0597  -15.5997    1.8348 C   0  0  0  0  0  0  0  0  0  0  0  0
  1  2  1  0
  2  3  1  0
  2  9  2  0
  8 10  1  0
 12 16  1  0
 16 17  1  0
  3  4  2  0
  4  5  1  0
  5  6  2  0
  6  7  1  0
  7  8  2  0
  3  8  1  0
 10 11  2  0
 11 12  1  0
 12 13  2  0
 13 14  1  0
 14 15  2  0
 10 15  1  0
M  END

$$$$
No_348-/export/home/yangzhenyu/potential_scad_32_flow//YTHDC2/2024-12-06-03-22-00/
     RDKit          3D

 16 16  0  0  1  0  0  0  0  0999 V2000
    1.1787   -8.0297    3.5154 C   0  0  0  0  0  0  0  0  0  0  0  0
    1.1048   -9.2215    3.2892 C   0  0  0  0  0  0  0  0  0  0  0  0
    1.0239   -9.7790    2.0239 C   0  0  2  0  0  0  0  0  0  0  0  0
    1.0632  -11.2393    1.8978 C   0  0  0  0  0  0  0  0  0  0  0  0
    1.2664   -7.1133    2.3309 F   0  0  0  0  0  0  0  0  0  0  0  0
    1.7521  -12.1261    2.6448 C   0  0  0  0  0  0  0  0  0  0  0  0
    1.6625  -13.4964    2.1746 C   0  0  0  0  0  0  0  0  0  0  0  0
    0.8731  -13.8456    1.1478 C   0  0  0  0  0  0  0  0  0  0  0  0
    0.2130  -12.8902    0.3119 C   0  0  0  0  0  0  0  0  0  0  0  0
    0.3335  -11.5422    0.6681 C   0  0  0  0  0  0  0  0  0  0  0  0
    1.1111   -8.9829    0.8129 C   0  0  0  0  0  0  0  0  0  0  0  0
    0.0952   -8.4197    0.3422 F   0  0  0  0  0  0  0  0  0  0  0  0
    2.0531   -8.9660    0.0741 F   0  0  0  0  0  0  0  0  0  0  0  0
    2.2558  -14.4675    3.0126 O   0  0  0  0  0  0  0  0  0  0  0  0
    2.2586  -15.8059    2.5251 C   0  0  0  0  0  0  0  0  0  0  0  0
    3.3115  -16.3115    2.2080 O   0  0  0  0  0  0  0  0  0  0  0  0
  1  2  2  3
  2  3  1  0
  3  4  1  0
  1  5  1  0
  3 11  1  6
 11 12  1  0
 11 13  1  0
  7 14  1  0
 14 15  1  0
 15 16  2  0
  4  6  2  0
  6  7  1  0
  7  8  2  0
  8  9  1  0
  9 10  2  0
  4 10  1  0
M  END

$$$$
No_349-/export/home/yangzhenyu/potential_scad_32_flow//YTHDC2/2024-12-06-03-22-00/
     RDKit          3D

 20 20  0  0  1  0  0  0  0  0999 V2000
    1.1787   -8.0297    3.5154 C   0  0  0  0  0  0  0  0  0  0  0  0
    1.0491   -6.8434    2.9820 C   0  0  1  0  0  0  0  0  0  0  0  0
    0.9905   -9.0774    2.6527 C   0  0  0  0  0  0  0  0  0  0  0  0
    0.7897   -8.9519    1.3691 C   0  0  0  0  0  0  0  0  0  0  0  0
    0.7018   -7.7198    0.7892 C   0  0  0  0  0  0  0  0  0  0  0  0
    1.4312   -5.5794    3.7443 O   0  0  0  0  0  0  0  0  0  0  0  0
    0.9501   -6.6506    1.5469 C   0  0  0  0  0  0  0  0  0  0  0  0
    1.0197  -10.4509    3.2467 C   0  0  0  0  0  0  0  0  0  0  0  0
   -0.1359  -11.1295    3.5149 O   0  0  0  0  0  0  0  0  0  0  0  0
    2.1221  -11.2879    3.3252 N   0  0  0  0  0  0  0  0  0  0  0  0
    0.9211   -5.3369    1.1515 O   0  0  0  0  0  0  0  0  0  0  0  0
    2.1725  -12.4977    3.8471 C   0  0  0  0  0  0  0  0  0  0  0  0
    1.6460  -13.4878    2.8263 C   0  0  0  0  0  0  0  0  0  0  0  0
    1.6833  -13.3074    1.5628 C   0  0  1  0  0  0  0  0  0  0  0  0
    2.3270  -12.3343    1.0659 C   0  0  0  0  0  0  0  0  0  0  0  0
    1.1192  -14.3739    0.8567 C   0  0  0  0  0  0  0  0  0  0  0  0
    0.0405  -14.6102    1.2203 C   0  0  0  0  0  0  0  0  0  0  0  0
   -1.0911  -13.7322    1.0364 O   0  0  0  0  0  0  0  0  0  0  0  0
   -0.4083  -15.7038    1.8943 N   0  0  0  0  0  0  0  0  0  0  0  0
   -1.5832  -16.0173    2.4887 C   0  0  0  0  0  0  0  0  0  0  0  0
  1  2  1  0
  3  4  1  0
  2  6  1  6
  2  7  1  0
  5  7  1  0
  3  8  1  0
  8  9  2  0
  8 10  1  0
  7 11  2  0
 10 12  1  0
 12 13  1  0
 13 14  1  0
 14 15  1  6
 14 16  1  0
 16 17  1  0
 17 18  2  0
 17 19  1  0
 19 20  1  0
  1  3  1  0
  4  5  1  0
M  END

$$$$
No_350-/export/home/yangzhenyu/potential_scad_32_flow//YTHDC2/2024-12-06-03-22-00/
     RDKit          3D

 20 20  0  0  0  0  0  0  0  0999 V2000
    1.1787   -8.0297    3.5154 C   0  0  0  0  0  0  0  0  0  0  0  0
    1.0491   -6.8434    2.9820 C   0  0  0  0  0  0  0  0  0  0  0  0
    1.9985   -8.9840    2.8958 C   0  0  0  0  0  0  0  0  0  0  0  0
    1.9135  -10.3404    3.6266 C   0  0  0  0  0  0  0  0  0  0  0  0
    1.3291  -11.3908    3.0222 N   0  0  0  0  0  0  0  0  0  0  0  0
    0.4866   -6.6550    1.7445 C   0  0  0  0  0  0  0  0  0  0  0  0
    0.2386   -5.3715    1.3521 I   0  0  0  0  0  0  0  0  0  0  0  0
    0.8509  -11.3096    1.8746 C   0  0  0  0  0  0  0  0  0  0  0  0
    1.0837  -10.1824    1.0445 C   0  0  0  0  0  0  0  0  0  0  0  0
    0.7234  -10.1704   -0.3405 C   0  0  0  0  0  0  0  0  0  0  0  0
   -0.2446  -10.9568   -0.6519 C   0  0  0  0  0  0  0  0  0  0  0  0
   -0.6903  -11.9755    0.1223 C   0  0  0  0  0  0  0  0  0  0  0  0
   -0.0563  -12.1502    1.4081 C   0  0  0  0  0  0  0  0  0  0  0  0
    1.0066   -9.0856   -1.1957 O   0  0  0  0  0  0  0  0  0  0  0  0
    2.6300  -10.5110    4.8002 O   0  0  0  0  0  0  0  0  0  0  0  0
   -0.3101  -13.2690    2.1824 C   0  0  0  0  0  0  0  0  0  0  0  0
    0.5357  -14.3701    2.3397 C   0  0  0  0  0  0  0  0  0  0  0  0
    0.3431  -15.2866    3.3904 C   0  0  0  0  0  0  0  0  0  0  0  0
    0.4822  -16.6415    2.7761 C   0  0  0  0  0  0  0  0  0  0  0  0
    1.6499  -16.9158    2.1275 C   0  0  0  0  0  0  0  0  0  0  0  0
  1  2  1  0
  1  3  1  0
  3  4  1  0
  4  5  1  0
  2  6  1  0
  6  7  1  0
  5  8  1  0
 10 14  1  0
  4 15  2  0
 13 16  1  0
 16 17  1  0
 17 18  1  0
 18 19  1  0
 19 20  1  0
  8  9  2  0
  9 10  1  0
 10 11  2  0
 11 12  1  0
 12 13  2  0
  8 13  1  0
M  END

$$$$
No_351-/export/home/yangzhenyu/potential_scad_32_flow//YTHDC2/2024-12-06-03-22-00/
     RDKit          3D

 20 21  0  0  0  0  0  0  0  0999 V2000
    1.1787   -8.0297    3.5154 C   0  0  0  0  0  0  0  0  0  0  0  0
    1.1048   -9.2215    3.2892 C   0  0  0  0  0  0  0  0  0  0  0  0
    1.3627  -10.1721    4.3044 C   0  0  0  0  0  0  0  0  0  0  0  0
    1.7354  -11.4730    3.9023 C   0  0  0  0  0  0  0  0  0  0  0  0
    1.6166  -11.5515    2.5159 C   0  0  0  0  0  0  0  0  0  0  0  0
    1.4172  -10.6242    1.6178 C   0  0  0  0  0  0  0  0  0  0  0  0
    1.2598   -9.4423    1.9811 C   0  0  0  0  0  0  0  0  0  0  0  0
    0.9744   -6.9065    2.9175 N   0  0  0  0  0  0  0  0  0  0  0  0
    1.1609   -7.2164    1.5068 C   0  0  0  0  0  0  0  0  0  0  0  0
    1.2970   -8.3608    1.0194 N   0  0  0  0  0  0  0  0  0  0  0  0
    1.8282  -12.9970    2.0021 C   0  0  0  0  0  0  0  0  0  0  0  0
    2.0737  -14.0850    2.7751 N   0  0  0  0  0  0  0  0  0  0  0  0
    1.9757  -13.2667    0.7144 O   0  0  0  0  0  0  0  0  0  0  0  0
    2.2883  -15.3585    2.3412 C   0  0  0  0  0  0  0  0  0  0  0  0
    1.4368  -16.3153    2.5416 C   0  0  0  0  0  0  0  0  0  0  0  0
    0.3700  -16.1243    3.3597 O   0  0  0  0  0  0  0  0  0  0  0  0
    1.5715  -17.4387    1.9114 O   0  0  0  0  0  0  0  0  0  0  0  0
    1.2239   -6.1635    0.6108 C   0  0  0  0  0  0  0  0  0  0  0  0
    1.5750   -4.8749    1.3156 C   0  0  0  0  0  0  0  0  0  0  0  0
    0.7080   -4.1052    2.0068 C   0  0  0  0  0  0  0  0  0  0  0  0
  5 11  1  0
 11 12  1  0
 11 13  2  0
 12 14  1  0
 14 15  1  0
 15 16  1  0
 15 17  2  0
  9 18  1  0
 18 19  1  0
 19 20  1  0
  2  3  1  0
  3  4  2  0
  4  5  1  0
  5  6  2  0
  6  7  1  0
  1  2  2  0
  2  7  1  0
  7 10  2  0
  9 10  1  0
  8  9  2  0
  1  8  1  0
M  END

$$$$
No_352-/export/home/yangzhenyu/potential_scad_32_flow//YTHDC2/2024-12-06-03-22-00/
     RDKit          3D

 18 18  0  0  1  0  0  0  0  0999 V2000
    1.1787   -8.0297    3.5154 C   0  0  0  0  0  0  0  0  0  0  0  0
    1.1048   -9.2215    3.2892 C   0  0  2  0  0  0  0  0  0  0  0  0
    1.3627  -10.1721    4.3044 C   0  0  0  0  0  0  0  0  0  0  0  0
    1.7354  -11.4730    3.9024 C   0  0  0  0  0  0  0  0  0  0  0  0
    1.8080  -11.8127    2.7216 C   0  0  2  0  0  0  0  0  0  0  0  0
    1.4028  -10.9289    1.8117 C   0  0  2  0  0  0  0  0  0  0  0  0
    1.5680  -11.4522    0.3895 Cl  0  0  0  0  0  0  0  0  0  0  0  0
    1.1918   -9.5805    2.0024 C   0  0  0  0  0  0  0  0  0  0  0  0
    0.8916   -6.9551    2.7218 O   0  0  0  0  0  0  0  0  0  0  0  0
    1.9907  -13.1811    2.4428 O   0  0  0  0  0  0  0  0  0  0  0  0
    1.0955   -8.7555    1.0094 O   0  0  0  0  0  0  0  0  0  0  0  0
    1.3522  -14.2115    3.1080 C   0  0  0  0  0  0  0  0  0  0  0  0
    0.1373  -14.6525    2.6470 C   0  0  2  0  0  0  0  0  0  0  0  0
   -0.5799  -13.9165    2.1546 C   0  0  0  0  0  0  0  0  0  0  0  0
   -0.1200  -16.0017    2.9106 C   0  0  0  0  0  0  0  0  0  0  0  0
   -1.2789  -16.4919    2.6190 Cl  0  0  0  0  0  0  0  0  0  0  0  0
    0.8889  -16.7892    3.5458 O   0  0  0  0  0  0  0  0  0  0  0  0
   -1.7333  -13.3029    2.7342 C   0  0  0  0  0  0  0  0  0  0  0  0
  2  1  1  6
  2  3  1  0
  4  5  1  0
  6  7  1  6
  2  8  1  0
  6  8  1  0
  1  9  2  0
  5 10  1  1
  8 11  2  0
 10 12  1  0
 13 12  1  1
 13 14  1  0
 13 15  1  0
 15 16  1  0
 15 17  2  0
 14 18  1  0
  3  4  1  0
  5  6  1  0
M  END

$$$$
No_353-/export/home/yangzhenyu/potential_scad_32_flow//YTHDC2/2024-12-06-03-22-00/
     RDKit          3D

 19 19  0  0  0  0  0  0  0  0999 V2000
    1.1787   -8.0297    3.5154 N   0  0  0  0  0  0  0  0  0  0  0  0
    1.0818   -9.0751    3.2053 C   0  0  0  0  0  0  0  0  0  0  0  0
    0.7576   -9.3725    1.9159 C   0  0  0  0  0  0  0  0  0  0  0  0
    0.7445  -10.8746    1.6491 C   0  0  0  0  0  0  0  0  0  0  0  0
    0.4267  -11.1283    0.3668 C   0  0  0  0  0  0  0  0  0  0  0  0
   -0.4331  -10.4839   -0.2801 C   0  0  0  0  0  0  0  0  0  0  0  0
   -0.6951   -9.0154    0.0775 C   0  0  0  0  0  0  0  0  0  0  0  0
   -0.1045   -8.5931    1.1754 C   0  0  0  0  0  0  0  0  0  0  0  0
    1.5972  -11.6696    2.3852 C   0  0  0  0  0  0  0  0  0  0  0  0
    0.9288  -12.8014    3.0429 C   0  0  0  0  0  0  0  0  0  0  0  0
    0.5711  -13.9049    2.2786 C   0  0  0  0  0  0  0  0  0  0  0  0
    0.7545  -15.1043    3.0055 C   0  0  0  0  0  0  0  0  0  0  0  0
    0.7106  -16.3155    2.2377 C   0  0  0  0  0  0  0  0  0  0  0  0
    1.6076  -17.3706    2.5497 C   0  0  0  0  0  0  0  0  0  0  0  0
    3.0153  -17.1612    2.5501 C   0  0  0  0  0  0  0  0  0  0  0  0
    1.5008   -6.8691    2.6512 C   0  0  0  0  0  0  0  0  0  0  0  0
    1.4215   -5.5448    3.0436 N   0  0  0  0  0  0  0  0  0  0  0  0
    2.0170   -7.0128    1.3690 O   0  0  0  0  0  0  0  0  0  0  0  0
   -1.4247   -8.2689   -0.8349 C   0  0  0  0  0  0  0  0  0  0  0  0
  1  2  1  0
  4  9  1  0
  9 10  1  0
 10 11  1  0
 11 12  1  0
 12 13  1  0
 13 14  1  0
 14 15  1  0
  1 16  2  3
 16 17  1  0
 16 18  1  0
  7 19  1  0
  2  3  1  0
  3  4  2  0
  4  5  1  0
  5  6  2  0
  6  7  1  0
  7  8  2  0
  3  8  1  0
M  END

$$$$
No_354-/export/home/yangzhenyu/potential_scad_32_flow//YTHDC2/2024-12-06-03-22-00/
     RDKit          3D

 11 10  0  0  0  0  0  0  0  0999 V2000
    1.1787   -8.0297    3.5154 C   0  0  0  0  0  0  0  0  0  0  0  0
    1.0491   -6.8434    2.9820 C   0  0  0  0  0  0  0  0  0  0  0  0
    0.0950   -8.8404    3.2292 Cl  0  0  0  0  0  0  0  0  0  0  0  0
    1.1236   -5.6411    3.6997 O   0  0  0  0  0  0  0  0  0  0  0  0
    1.1629   -6.6333    1.6586 O   0  0  0  0  0  0  0  0  0  0  0  0
    1.0962   -4.3130    3.1606 C   0  0  0  0  0  0  0  0  0  0  0  0
   -0.0971   -3.7791    2.9174 C   0  0  0  0  0  0  0  0  0  0  0  0
   -0.0409   -2.9678    1.7820 C   0  0  0  0  0  0  0  0  0  0  0  0
   -0.7036   -3.3069    0.6390 C   0  0  0  0  0  0  0  0  0  0  0  0
   -1.5731   -4.4130    0.7615 O   0  0  0  0  0  0  0  0  0  0  0  0
    0.2119   -3.5412   -0.5663 O   0  0  0  0  0  0  0  0  0  0  0  0
  1  2  1  0
  1  3  1  0
  2  4  1  0
  2  5  2  0
  4  6  1  0
  6  7  1  0
  7  8  1  0
  8  9  1  0
  9 10  1  0
  9 11  1  0
M  END

$$$$
No_355-/export/home/yangzhenyu/potential_scad_32_flow//YTHDC2/2024-12-06-03-22-00/
     RDKit          3D

 19 18  0  0  1  0  0  0  0  0999 V2000
    1.1787   -8.0297    3.5154 C   0  0  0  0  0  0  0  0  0  0  0  0
    1.1048   -9.2215    3.2892 C   0  0  0  0  0  0  0  0  0  0  0  0
    1.2339   -9.7611    2.0189 C   0  0  0  0  0  0  0  0  0  0  0  0
    1.1954  -11.2312    1.8661 P   0  0  1  0  0  0  0  0  0  0  0  0
    1.1237  -11.4400    0.3907 O   0  0  0  0  0  0  0  0  0  0  0  0
    2.4445  -11.9818    2.3346 O   0  0  0  0  0  0  0  0  0  0  0  0
   -0.0344  -11.8195    2.5060 O   0  0  0  0  0  0  0  0  0  0  0  0
    0.3291   -7.1527    2.9244 C   0  0  0  0  0  0  0  0  0  0  0  0
   -0.7467   -7.6618    2.2277 C   0  0  0  0  0  0  0  0  0  0  0  0
   -0.9878   -7.2562    1.0110 C   0  0  0  0  0  0  0  0  0  0  0  0
   -2.1501   -7.6614    0.3877 C   0  0  0  0  0  0  0  0  0  0  0  0
   -2.3280   -7.2798   -0.8875 C   0  0  0  0  0  0  0  0  0  0  0  0
   -2.5713   -6.1010   -1.1848 C   0  0  0  0  0  0  0  0  0  0  0  0
   -2.5015   -5.6505   -2.6350 O   0  0  0  0  0  0  0  0  0  0  0  0
   -2.5557   -5.0378   -0.4091 O   0  0  0  0  0  0  0  0  0  0  0  0
   -2.3271   -8.2601   -1.9537 C   0  0  0  0  0  0  0  0  0  0  0  0
   -1.0855   -8.8390   -2.4199 O   0  0  0  0  0  0  0  0  0  0  0  0
   -3.2702   -9.3820   -1.7520 O   0  0  0  0  0  0  0  0  0  0  0  0
   -0.0306  -13.2422    2.7775 C   0  0  0  0  0  0  0  0  0  0  0  0
  1  2  1  0
  2  3  2  3
  3  4  1  0
  4  5  2  0
  4  6  1  1
  4  7  1  0
  1  8  2  3
  8  9  1  0
  9 10  2  3
 10 11  1  0
 11 12  1  0
 12 13  1  0
 13 14  1  0
 13 15  2  0
 12 16  1  0
 16 17  1  0
 16 18  2  0
  7 19  1  0
M  END

$$$$
No_356-/export/home/yangzhenyu/potential_scad_32_flow//YTHDC2/2024-12-06-03-22-00/
     RDKit          3D

 17 17  0  0  0  0  0  0  0  0999 V2000
    1.1787   -8.0297    3.5154 C   0  0  0  0  0  0  0  0  0  0  0  0
    1.1048   -9.2215    3.2892 C   0  0  0  0  0  0  0  0  0  0  0  0
    1.3627  -10.1721    4.3044 C   0  0  0  0  0  0  0  0  0  0  0  0
    1.7354  -11.4730    3.9023 C   0  0  0  0  0  0  0  0  0  0  0  0
    1.8080  -11.8127    2.7216 C   0  0  0  0  0  0  0  0  0  0  0  0
    1.5854  -11.0021    1.7249 C   0  0  0  0  0  0  0  0  0  0  0  0
    1.3573   -9.7389    1.9287 C   0  0  0  0  0  0  0  0  0  0  0  0
    1.1102   -8.8712    0.9017 C   0  0  0  0  0  0  0  0  0  0  0  0
    0.5299   -7.6926    1.0325 O   0  0  0  0  0  0  0  0  0  0  0  0
    1.3970   -9.2634   -0.4035 O   0  0  0  0  0  0  0  0  0  0  0  0
    2.1581  -13.4121    2.2886 C   0  0  0  0  0  0  0  0  0  0  0  0
    1.9907  -14.3133    3.1488 C   0  0  0  0  0  0  0  0  0  0  0  0
    2.1606  -15.6485    2.5855 O   0  0  0  0  0  0  0  0  0  0  0  0
    2.4280  -13.6192    1.0356 O   0  0  0  0  0  0  0  0  0  0  0  0
    0.1704   -7.1772    3.6228 F   0  0  0  0  0  0  0  0  0  0  0  0
    2.2202   -7.1860    3.5208 F   0  0  0  0  0  0  0  0  0  0  0  0
    2.9805  -16.4080    2.6579 C   0  0  0  0  0  0  0  0  0  0  0  0
  1  2  1  0
  7  8  1  0
  8  9  2  0
  8 10  1  0
  5 11  1  0
 11 12  1  0
 12 13  1  0
 11 14  2  0
  1 15  1  0
  1 16  1  0
 13 17  1  0
  2  3  2  0
  3  4  1  0
  4  5  2  0
  5  6  1  0
  6  7  2  0
  2  7  1  0
M  END

$$$$
No_357-/export/home/yangzhenyu/potential_scad_32_flow//YTHDC2/2024-12-06-03-22-00/
     RDKit          3D

 18 20  0  0  1  0  0  0  0  0999 V2000
    1.1787   -8.0297    3.5154 Cl  0  0  0  0  0  0  0  0  0  0  0  0
    0.7279   -9.0023    2.8722 C   0  0  0  0  0  0  0  0  0  0  0  0
   -0.0117   -8.9271    1.8829 C   0  0  0  0  0  0  0  0  0  0  0  0
   -0.2543  -10.1657    1.2408 C   0  0  0  0  0  0  0  0  0  0  0  0
    0.0020  -11.3985    1.5577 C   0  0  0  0  0  0  0  0  0  0  0  0
    0.9301  -11.4970    2.6344 C   0  0  0  0  0  0  0  0  0  0  0  0
    1.3031  -10.3535    3.2942 C   0  0  0  0  0  0  0  0  0  0  0  0
    2.1347  -10.5317    4.3636 C   0  0  0  0  0  0  0  0  0  0  0  0
    2.5880  -11.8535    4.7633 N   0  0  0  0  0  0  0  0  0  0  0  0
   -0.4904   -7.8134    1.2401 C   0  0  0  0  0  0  0  0  0  0  0  0
   -1.2661   -7.6085    0.4823 N   0  0  0  0  0  0  0  0  0  0  0  0
   -0.1913   -6.4994    1.9028 N   0  0  0  0  0  0  0  0  0  0  0  0
   -1.1348   -5.6030    1.5681 C   0  0  0  0  0  0  0  0  0  0  0  0
   -0.9708   -4.1485    1.7965 N   0  0  0  0  0  0  0  0  0  0  0  0
   -1.8052   -6.1663    0.4921 C   0  0  1  0  0  0  0  0  0  0  0  0
    1.4297  -12.8639    3.0153 N   0  0  0  0  0  0  0  0  0  0  0  0
    2.1515  -12.8636    4.0530 C   0  0  0  0  0  0  0  0  0  0  0  0
   -2.4565   -5.4548   -0.4318 C   0  0  0  0  0  0  0  0  0  0  0  0
  1  2  1  0
  3 10  1  0
 10 11  2  0
 10 12  1  0
 12 13  2  0
 13 14  1  0
 11 15  1  0
 13 15  1  0
 15 18  1  6
  2  3  2  0
  3  4  1  0
  4  5  2  0
  5  6  1  0
  2  7  1  0
  6  7  2  0
  7  8  1  0
  8  9  2  0
  9 17  1  0
 16 17  2  0
  6 16  1  0
M  END

$$$$
No_358-/export/home/yangzhenyu/potential_scad_32_flow//YTHDC2/2024-12-06-03-22-00/
     RDKit          3D

 20 20  0  0  1  0  0  0  0  0999 V2000
    1.1787   -8.0297    3.5154 C   0  0  0  0  0  0  0  0  0  0  0  0
    1.0491   -6.8434    2.9820 C   0  0  0  0  0  0  0  0  0  0  0  0
    1.9985   -8.9840    2.8958 C   0  0  2  0  0  0  0  0  0  0  0  0
    1.7297   -9.2108    1.6335 C   0  0  0  0  0  0  0  0  0  0  0  0
    1.7343   -8.0566    0.8408 C   0  0  2  0  0  0  0  0  0  0  0  0
    1.0269   -6.8892    1.4456 C   0  0  0  0  0  0  0  0  0  0  0  0
    1.7596   -8.0979   -0.4723 C   0  0  0  0  0  0  0  0  0  0  0  0
    2.7309   -8.8718   -1.0817 S   0  0  0  0  0  0  0  0  0  0  0  0
    1.9575  -10.3872    3.5489 C   0  0  0  0  0  0  0  0  0  0  0  0
    2.9619  -10.5578    4.3872 O   0  0  0  0  0  0  0  0  0  0  0  0
    1.3339  -11.4210    3.2021 O   0  0  0  0  0  0  0  0  0  0  0  0
    0.7185   -8.0511   -1.2827 O   0  0  0  0  0  0  0  0  0  0  0  0
    3.5455   -8.2285   -1.7765 O   0  0  0  0  0  0  0  0  0  0  0  0
    2.3122  -10.0143   -2.0525 N   0  0  0  0  0  0  0  0  0  0  0  0
    0.8808   -5.6793    3.5693 O   0  0  0  0  0  0  0  0  0  0  0  0
    3.5941   -9.6328   -0.0602 O   0  0  0  0  0  0  0  0  0  0  0  0
    0.7520   -5.7604    0.9327 O   0  0  0  0  0  0  0  0  0  0  0  0
    3.2811  -11.8274    4.9208 C   0  0  0  0  0  0  0  0  0  0  0  0
    4.7586  -11.7468    4.8993 C   0  0  0  0  0  0  0  0  0  0  0  0
    5.3705  -10.4590    5.2800 O   0  0  0  0  0  0  0  0  0  0  0  0
  1  2  1  0
  1  3  1  0
  3  4  1  0
  4  5  1  0
  2  6  1  0
  5  6  1  0
  5  7  1  6
  7  8  1  0
  3  9  1  1
  9 10  1  0
  9 11  2  0
  7 12  2  0
  8 13  2  0
  8 14  1  0
  2 15  2  0
  8 16  2  0
  6 17  2  0
 10 18  1  0
 18 19  1  0
 19 20  1  0
M  END

$$$$
No_359-/export/home/yangzhenyu/potential_scad_32_flow//YTHDC2/2024-12-06-03-22-00/
     RDKit          3D

 20 21  0  0  1  0  0  0  0  0999 V2000
    1.1787   -8.0297    3.5154 O   0  0  0  0  0  0  0  0  0  0  0  0
    0.9969   -8.9689    3.0048 C   0  0  1  0  0  0  0  0  0  0  0  0
    0.9976   -8.9567    1.6341 C   0  0  2  0  0  0  0  0  0  0  0  0
    1.6062   -9.9071    0.9292 C   0  0  0  0  0  0  0  0  0  0  0  0
    2.1191  -10.9757    1.6503 C   0  0  0  0  0  0  0  0  0  0  0  0
    2.1177  -10.9891    3.0403 C   0  0  1  0  0  0  0  0  0  0  0  0
    1.5441   -9.8905    3.6897 C   0  0  0  0  0  0  0  0  0  0  0  0
    0.5010   -7.8164    1.0436 C   0  0  0  0  0  0  0  0  0  0  0  0
   -0.3627   -7.9721    0.1048 N   0  0  0  0  0  0  0  0  0  0  0  0
    0.5901   -6.5064    1.4201 O   0  0  0  0  0  0  0  0  0  0  0  0
    1.6423  -10.1468    5.0133 O   0  0  0  0  0  0  0  0  0  0  0  0
   -0.3594   -5.7132    1.1213 C   0  0  0  0  0  0  0  0  0  0  0  0
   -1.0323   -6.5978    0.1534 C   0  0  0  0  0  0  0  0  0  0  0  0
   -0.4791   -4.3637    1.2689 C   0  0  0  0  0  0  0  0  0  0  0  0
   -1.5659   -3.8491    1.0096 O   0  0  0  0  0  0  0  0  0  0  0  0
    0.4715   -3.7248    2.0159 O   0  0  0  0  0  0  0  0  0  0  0  0
    2.6483  -12.2736    3.6670 O   0  0  0  0  0  0  0  0  0  0  0  0
    0.4004   -3.1482    3.2570 C   0  0  0  0  0  0  0  0  0  0  0  0
    1.4535   -3.5985    4.0975 C   0  0  0  0  0  0  0  0  0  0  0  0
    2.3369   -4.3454    3.2508 O   0  0  0  0  0  0  0  0  0  0  0  0
  2  1  1  1
  2  3  1  0
  4  5  1  0
  2  7  1  0
  6  7  1  0
  3  8  1  1
  8  9  2  0
  8 10  1  0
  7 11  2  0
 10 12  1  0
  9 13  1  0
 12 13  2  0
 12 14  1  0
 14 15  2  0
 14 16  1  0
  6 17  1  6
 16 18  1  0
 18 19  1  0
 19 20  1  0
  3  4  1  0
  5  6  1  0
M  END

$$$$
No_360-/export/home/yangzhenyu/potential_scad_32_flow//YTHDC2/2024-12-06-03-22-00/
     RDKit          3D

 19 20  0  0  1  0  0  0  0  0999 V2000
    1.1787   -8.0297    3.5154 C   0  0  0  0  0  0  0  0  0  0  0  0
    1.1048   -9.2215    3.2892 C   0  0  0  0  0  0  0  0  0  0  0  0
    1.3627  -10.1721    4.3044 C   0  0  0  0  0  0  0  0  0  0  0  0
    1.0682  -11.5187    4.0618 C   0  0  0  0  0  0  0  0  0  0  0  0
    0.6332  -11.9655    2.9682 C   0  0  0  0  0  0  0  0  0  0  0  0
    0.4776  -11.1308    1.9203 C   0  0  0  0  0  0  0  0  0  0  0  0
    0.7470   -9.8274    2.0368 C   0  0  0  0  0  0  0  0  0  0  0  0
    1.0387   -7.0301    2.5175 O   0  0  0  0  0  0  0  0  0  0  0  0
    0.4220  -13.4291    2.8032 C   0  0  2  0  0  0  0  0  0  0  0  0
    1.4050  -14.3276    3.1066 C   0  0  0  0  0  0  0  0  0  0  0  0
    1.1710  -15.6956    2.9946 O   0  0  0  0  0  0  0  0  0  0  0  0
    2.2168  -16.3959    2.5066 C   0  0  0  0  0  0  0  0  0  0  0  0
    0.6609   -9.0546    0.9397 C   0  0  0  0  0  0  0  0  0  0  0  0
    0.8563   -9.2264   -0.0934 C   0  0  0  0  0  0  0  0  0  0  0  0
    0.5405   -8.3489   -1.2236 C   0  0  0  0  0  0  0  0  0  0  0  0
   -0.1357   -7.3396   -0.5886 C   0  0  0  0  0  0  0  0  0  0  0  0
   -0.1555   -7.7598    0.8338 C   0  0  0  0  0  0  0  0  0  0  0  0
    1.6118   -7.4641    4.6300 O   0  0  0  0  0  0  0  0  0  0  0  0
   -0.5615  -13.9018    2.2169 C   0  0  0  0  0  0  0  0  0  0  0  0
  1  2  1  0
  1  8  2  0
  5  9  1  0
  9 10  1  0
 10 11  1  0
 11 12  1  0
  7 13  1  0
 13 14  2  0
 14 15  1  0
 15 16  2  0
 13 17  1  0
 16 17  1  0
  1 18  1  0
  9 19  1  6
  2  3  2  0
  3  4  1  0
  4  5  2  0
  5  6  1  0
  6  7  2  0
  2  7  1  0
M  END

$$$$
No_361-/export/home/yangzhenyu/potential_scad_32_flow//YTHDC2/2024-12-06-03-22-00/
     RDKit          3D

 18 18  0  0  0  0  0  0  0  0999 V2000
    1.1787   -8.0297    3.5154 C   0  0  0  0  0  0  0  0  0  0  0  0
    1.0491   -6.8434    2.9820 C   0  0  0  0  0  0  0  0  0  0  0  0
    0.0950   -8.8404    3.2292 C   0  0  0  0  0  0  0  0  0  0  0  0
   -0.7663   -8.2602    2.4375 C   0  0  0  0  0  0  0  0  0  0  0  0
   -0.7437   -6.9718    1.9778 C   0  0  0  0  0  0  0  0  0  0  0  0
    0.2554   -6.2202    2.2855 C   0  0  0  0  0  0  0  0  0  0  0  0
    0.0854  -10.3119    3.6450 C   0  0  0  0  0  0  0  0  0  0  0  0
    1.1068  -10.8847    4.0424 C   0  0  0  0  0  0  0  0  0  0  0  0
    1.0243  -12.3143    3.9322 O   0  0  0  0  0  0  0  0  0  0  0  0
    2.2179  -10.5125    4.6300 O   0  0  0  0  0  0  0  0  0  0  0  0
    0.2704   -4.8613    1.8510 C   0  0  0  0  0  0  0  0  0  0  0  0
   -0.6439   -3.9983    2.1621 O   0  0  0  0  0  0  0  0  0  0  0  0
    1.2625   -4.3574    1.1394 O   0  0  0  0  0  0  0  0  0  0  0  0
   -0.8821  -11.0627    3.1169 C   0  0  0  0  0  0  0  0  0  0  0  0
   -2.1069  -10.9831    3.8586 O   0  0  0  0  0  0  0  0  0  0  0  0
   -0.9317  -11.7099    2.0206 O   0  0  0  0  0  0  0  0  0  0  0  0
   -1.9820   -6.5850    1.2409 C   0  0  0  0  0  0  0  0  0  0  0  0
   -2.0331   -6.7860   -0.1234 C   0  0  0  0  0  0  0  0  0  0  0  0
  3  7  1  0
  7  8  1  0
  8  9  1  0
  8 10  2  0
  6 11  1  0
 11 12  2  0
 11 13  1  0
  7 14  1  0
 14 15  1  0
 14 16  2  0
  5 17  1  0
 17 18  1  0
  1  2  2  0
  2  6  1  0
  5  6  2  0
  4  5  1  0
  3  4  2  0
  1  3  1  0
M  END

$$$$
No_362-/export/home/yangzhenyu/potential_scad_32_flow//YTHDC2/2024-12-06-03-22-00/
     RDKit          3D

 18 18  0  0  1  0  0  0  0  0999 V2000
    1.1787   -8.0297    3.5154 C   0  0  0  0  0  0  0  0  0  0  0  0
    1.0491   -6.8434    2.9820 C   0  0  1  0  0  0  0  0  0  0  0  0
    1.9985   -8.9840    2.8958 C   0  0  2  0  0  0  0  0  0  0  0  0
    1.7297   -9.2108    1.6335 C   0  0  1  0  0  0  0  0  0  0  0  0
    1.7343   -8.0566    0.8408 C   0  0  2  0  0  0  0  0  0  0  0  0
    1.0269   -6.8892    1.4456 C   0  0  0  0  0  0  0  0  0  0  0  0
    1.7596   -8.0979   -0.4723 O   0  0  0  0  0  0  0  0  0  0  0  0
    1.9544  -10.3620    3.5567 C   0  0  0  0  0  0  0  0  0  0  0  0
    1.1932  -11.3446    3.2810 O   0  0  0  0  0  0  0  0  0  0  0  0
    3.0498  -10.6493    4.3554 O   0  0  0  0  0  0  0  0  0  0  0  0
    2.0357  -10.2914    0.8452 C   0  0  0  0  0  0  0  0  0  0  0  0
    1.0201  -11.0175    0.2631 O   0  0  0  0  0  0  0  0  0  0  0  0
    0.8726   -5.6339    3.4995 C   0  0  0  0  0  0  0  0  0  0  0  0
   -0.0830   -4.8524    3.2913 O   0  0  0  0  0  0  0  0  0  0  0  0
    1.8585   -5.0794    4.2673 O   0  0  0  0  0  0  0  0  0  0  0  0
    3.1496  -10.8628    0.6295 O   0  0  0  0  0  0  0  0  0  0  0  0
    0.7465   -5.8729    0.7849 O   0  0  0  0  0  0  0  0  0  0  0  0
    0.5834  -12.2054    0.6599 C   0  0  0  0  0  0  0  0  0  0  0  0
  1  2  1  0
  1  3  1  0
  3  4  1  0
  4  5  1  0
  2  6  1  0
  5  6  1  0
  5  7  1  6
  3  8  1  1
  8  9  2  0
  8 10  1  0
  4 11  1  6
 11 12  1  0
  2 13  1  1
 13 14  2  0
 13 15  1  0
 11 16  2  0
  6 17  2  0
 12 18  1  0
M  END

$$$$
No_363-/export/home/yangzhenyu/potential_scad_32_flow//YTHDC2/2024-12-06-03-22-00/
     RDKit          3D

 22 23  0  0  1  0  0  0  0  0999 V2000
    1.1787   -8.0297    3.5154 C   0  0  0  0  0  0  0  0  0  0  0  0
    1.0491   -6.8434    2.9820 C   0  0  0  0  0  0  0  0  0  0  0  0
    0.0950   -8.8404    3.2292 C   0  0  0  0  0  0  0  0  0  0  0  0
   -0.9173   -8.4596    2.5152 C   0  0  0  0  0  0  0  0  0  0  0  0
   -1.0331   -7.2162    2.0653 C   0  0  0  0  0  0  0  0  0  0  0  0
   -0.0105   -6.3168    2.3081 C   0  0  0  0  0  0  0  0  0  0  0  0
    0.1150   -4.9910    1.8495 C   0  0  0  0  0  0  0  0  0  0  0  0
   -0.5774   -4.1593    2.0596 O   0  0  0  0  0  0  0  0  0  0  0  0
    0.1545  -10.2826    3.6808 C   0  0  0  0  0  0  0  0  0  0  0  0
    0.2261  -11.3612    2.8573 C   0  0  2  0  0  0  0  0  0  0  0  0
    1.0102  -12.0077    2.7257 C   0  0  0  0  0  0  0  0  0  0  0  0
    1.2625  -13.1174    1.8142 C   0  0  0  0  0  0  0  0  0  0  0  0
   -0.0790  -13.0698    1.2904 C   0  0  0  0  0  0  0  0  0  0  0  0
   -0.6043  -11.8931    1.8493 C   0  0  0  0  0  0  0  0  0  0  0  0
    2.2751  -14.2302    1.7068 Cl  0  0  0  0  0  0  0  0  0  0  0  0
   -0.1808  -10.3887    5.0448 O   0  0  0  0  0  0  0  0  0  0  0  0
    1.0761   -4.6984    0.9744 O   0  0  0  0  0  0  0  0  0  0  0  0
   -0.6411  -13.8409    0.2638 C   0  0  0  0  0  0  0  0  0  0  0  0
   -0.6253  -13.3861   -0.9788 C   0  0  0  0  0  0  0  0  0  0  0  0
   -1.0594  -12.2132   -1.3291 N   0  0  0  0  0  0  0  0  0  0  0  0
   -0.3131  -14.2650   -1.9452 O   0  0  0  0  0  0  0  0  0  0  0  0
   -1.3664  -11.5573   -0.6250 H   0  0  0  0  0  0  0  0  0  0  0  0
  6  7  1  0
  7  8  1  0
  3  9  1  0
 10  9  1  6
 10 11  1  0
 11 12  2  0
 12 13  1  0
 10 14  1  0
 13 14  2  0
 12 15  1  0
  9 16  2  0
  7 17  2  0
 13 18  1  0
 18 19  1  0
 19 20  2  0
 19 21  1  0
  1  2  2  0
  2  6  1  0
  5  6  2  0
  4  5  1  0
  3  4  2  0
  1  3  1  0
 20 22  1  0
M  END

$$$$
No_364-/export/home/yangzhenyu/potential_scad_32_flow//YTHDC2/2024-12-06-03-22-00/
     RDKit          3D

 20 20  0  0  1  0  0  0  0  0999 V2000
    1.1787   -8.0297    3.5154 C   0  0  0  0  0  0  0  0  0  0  0  0
    1.1048   -9.2215    3.2892 C   0  0  0  0  0  0  0  0  0  0  0  0
    1.2339   -9.7611    2.0189 C   0  0  0  0  0  0  0  0  0  0  0  0
    1.3583   -9.0036    0.9764 C   0  0  0  0  0  0  0  0  0  0  0  0
    1.5996   -7.6362    1.1311 C   0  0  0  0  0  0  0  0  0  0  0  0
    1.4830   -7.0928    2.3626 C   0  0  0  0  0  0  0  0  0  0  0  0
    1.5395   -5.7300    2.6182 C   0  0  0  0  0  0  0  0  0  0  0  0
    1.1775  -11.2233    1.8407 C   0  0  1  0  0  0  0  0  0  0  0  0
    0.7252  -11.5870    0.5412 C   0  0  0  0  0  0  0  0  0  0  0  0
   -0.5181  -12.2492    0.6137 C   0  0  0  0  0  0  0  0  0  0  0  0
   -1.4841  -11.7416   -0.0226 F   0  0  0  0  0  0  0  0  0  0  0  0
   -1.0288  -12.1550    1.9799 O   0  0  0  0  0  0  0  0  0  0  0  0
    1.3046   -4.8116    1.6761 O   0  0  0  0  0  0  0  0  0  0  0  0
    1.7922   -5.1626    3.8242 Br  0  0  0  0  0  0  0  0  0  0  0  0
    2.6816  -11.7812    2.0238 C   0  0  0  0  0  0  0  0  0  0  0  0
    2.9756  -11.7333    3.1731 O   0  0  0  0  0  0  0  0  0  0  0  0
    3.1355  -12.4968    1.2392 O   0  0  0  0  0  0  0  0  0  0  0  0
    0.8764  -10.1250    4.4035 O   0  0  0  0  0  0  0  0  0  0  0  0
    1.6108   -9.4303   -0.3230 C   0  0  0  0  0  0  0  0  0  0  0  0
    2.8492   -9.5189   -0.9386 O   0  0  0  0  0  0  0  0  0  0  0  0
  6  7  1  0
  3  8  1  0
  8  9  1  6
  9 10  1  0
 10 11  1  0
 10 12  2  0
  7 13  2  0
  7 14  1  0
  8 15  1  0
 15 16  1  0
 15 17  2  0
  2 18  1  0
  4 19  1  0
 19 20  1  0
  1  2  2  0
  2  3  1  0
  3  4  2  0
  4  5  1  0
  5  6  2  0
  1  6  1  0
M  END

$$$$
No_365-/export/home/yangzhenyu/potential_scad_32_flow//YTHDC2/2024-12-06-03-22-00/
     RDKit          3D

 18 18  0  0  1  0  0  0  0  0999 V2000
    1.1787   -8.0297    3.5154 C   0  0  0  0  0  0  0  0  0  0  0  0
    1.0491   -6.8434    2.9820 C   0  0  1  0  0  0  0  0  0  0  0  0
    1.9985   -8.9840    2.8958 C   0  0  2  0  0  0  0  0  0  0  0  0
    1.7297   -9.2108    1.6335 C   0  0  1  0  0  0  0  0  0  0  0  0
    1.7343   -8.0566    0.8408 C   0  0  0  0  0  0  0  0  0  0  0  0
    1.0269   -6.8892    1.4456 C   0  0  0  0  0  0  0  0  0  0  0  0
    1.7596   -8.0979   -0.4723 O   0  0  0  0  0  0  0  0  0  0  0  0
    1.9839  -10.3478    3.5826 C   0  0  0  0  0  0  0  0  0  0  0  0
    2.8942  -10.5701    4.4576 O   0  0  0  0  0  0  0  0  0  0  0  0
    1.3460  -11.3579    3.1701 O   0  0  0  0  0  0  0  0  0  0  0  0
    0.8592   -5.6585    3.4803 C   0  0  0  0  0  0  0  0  0  0  0  0
    2.0334   -4.9870    4.0175 O   0  0  0  0  0  0  0  0  0  0  0  0
   -0.1426   -4.8018    3.0246 O   0  0  0  0  0  0  0  0  0  0  0  0
    2.4911  -10.1988    0.8841 C   0  0  0  0  0  0  0  0  0  0  0  0
    1.7588  -10.9846    0.0485 O   0  0  0  0  0  0  0  0  0  0  0  0
    0.8359   -5.8482    0.7575 O   0  0  0  0  0  0  0  0  0  0  0  0
    3.7360  -10.4212    0.9440 O   0  0  0  0  0  0  0  0  0  0  0  0
   -0.0941   -3.4212    3.0431 C   0  0  0  0  0  0  0  0  0  0  0  0
  1  2  1  0
  1  3  1  0
  3  4  1  0
  4  5  1  0
  2  6  1  0
  5  6  1  0
  5  7  2  0
  3  8  1  1
  8  9  1  0
  8 10  2  0
  2 11  1  1
 11 12  2  0
 11 13  1  0
  4 14  1  6
 14 15  2  0
  6 16  2  0
 14 17  1  0
 13 18  1  0
M  END

$$$$
No_366-/export/home/yangzhenyu/potential_scad_32_flow//YTHDC2/2024-12-06-03-22-00/
     RDKit          3D

 18 18  0  0  0  0  0  0  0  0999 V2000
    1.1787   -8.0297    3.5154 C   0  0  0  0  0  0  0  0  0  0  0  0
    1.1048   -9.2215    3.2892 C   0  0  0  0  0  0  0  0  0  0  0  0
    1.2339   -9.7611    2.0189 C   0  0  0  0  0  0  0  0  0  0  0  0
    1.3583   -9.0036    0.9764 C   0  0  0  0  0  0  0  0  0  0  0  0
    1.7077   -9.6100   -0.3010 C   0  0  0  0  0  0  0  0  0  0  0  0
    1.3637   -7.1087    2.3226 C   0  0  0  0  0  0  0  0  0  0  0  0
    1.4257   -7.6645    1.0231 C   0  0  0  0  0  0  0  0  0  0  0  0
    1.6722  -10.7840   -0.4044 F   0  0  0  0  0  0  0  0  0  0  0  0
    1.6284   -9.0403   -1.2813 F   0  0  0  0  0  0  0  0  0  0  0  0
    1.1233  -10.1732    4.3914 P   0  0  0  0  0  0  0  0  0  0  0  0
    1.0487  -11.7267    3.8792 O   0  0  0  0  0  0  0  0  0  0  0  0
   -0.4263  -10.3023    5.1635 O   0  0  0  0  0  0  0  0  0  0  0  0
    2.1431  -10.1198    5.4896 O   0  0  0  0  0  0  0  0  0  0  0  0
    1.3361   -5.6139    2.5573 C   0  0  0  0  0  0  0  0  0  0  0  0
    1.7527   -5.1847    3.6625 N   0  0  0  0  0  0  0  0  0  0  0  0
    1.0589   -4.8721    1.5714 O   0  0  0  0  0  0  0  0  0  0  0  0
    1.6373   -3.7864    3.8307 C   0  0  0  0  0  0  0  0  0  0  0  0
    0.3910   -3.3316    4.5203 C   0  0  0  0  0  0  0  0  0  0  0  0
  4  5  1  0
  5  8  1  0
  5  9  1  0
  2 10  1  0
 10 11  2  0
 10 12  1  0
 10 13  1  0
  6 14  1  0
 14 15  1  0
 14 16  2  0
 15 17  1  0
 17 18  1  0
  1  2  2  0
  2  3  1  0
  3  4  2  0
  4  7  1  0
  6  7  2  0
  1  6  1  0
M  END

$$$$
No_367-/export/home/yangzhenyu/potential_scad_32_flow//YTHDC2/2024-12-06-03-22-00/
     RDKit          3D

 19 19  0  0  1  0  0  0  0  0999 V2000
    1.1787   -8.0297    3.5154 C   0  0  0  0  0  0  0  0  0  0  0  0
    1.1048   -9.2215    3.2892 C   0  0  1  0  0  0  0  0  0  0  0  0
    1.3627  -10.1721    4.3044 C   0  0  0  0  0  0  0  0  0  0  0  0
    1.0682  -11.5187    4.0618 Cl  0  0  0  0  0  0  0  0  0  0  0  0
    0.8126   -7.0300    2.5736 C   0  0  0  0  0  0  0  0  0  0  0  0
    0.2695   -7.4470    1.4224 C   0  0  0  0  0  0  0  0  0  0  0  0
    0.2027   -8.7719    1.2059 C   0  0  0  0  0  0  0  0  0  0  0  0
    0.5431   -9.7108    2.0606 C   0  0  0  0  0  0  0  0  0  0  0  0
    1.0570   -5.5786    2.8914 C   0  0  0  0  0  0  0  0  0  0  0  0
    0.8175   -4.6474    1.9366 O   0  0  0  0  0  0  0  0  0  0  0  0
    1.7087   -5.1252    3.9662 O   0  0  0  0  0  0  0  0  0  0  0  0
   -0.3236   -9.2026   -0.0954 C   0  0  2  0  0  0  0  0  0  0  0  0
    0.2208   -8.9030   -1.2811 C   0  0  0  0  0  0  0  0  0  0  0  0
   -0.5180   -9.1538   -2.3324 O   0  0  0  0  0  0  0  0  0  0  0  0
    1.4933   -8.9328   -1.4866 O   0  0  0  0  0  0  0  0  0  0  0  0
    2.3645   -9.9626    5.1853 O   0  0  0  0  0  0  0  0  0  0  0  0
    0.3792  -10.9488    1.7863 O   0  0  0  0  0  0  0  0  0  0  0  0
   -1.6913   -9.4570   -0.0916 C   0  0  0  0  0  0  0  0  0  0  0  0
   -2.6889   -8.3484    0.3473 O   0  0  0  0  0  0  0  0  0  0  0  0
  1  2  1  0
  2  3  1  1
  3  4  1  0
  5  6  1  0
  2  8  1  0
  7  8  1  0
  5  9  1  0
  9 10  2  0
  9 11  1  0
  7 12  1  0
 12 13  1  0
 13 14  2  0
 13 15  1  0
  3 16  2  0
  8 17  2  0
 12 18  1  6
 18 19  1  0
  1  5  1  0
  6  7  1  0
M  END

$$$$
No_368-/export/home/yangzhenyu/potential_scad_32_flow//YTHDC2/2024-12-06-03-22-00/
     RDKit          3D

 18 18  0  0  1  0  0  0  0  0999 V2000
    1.1787   -8.0297    3.5154 C   0  0  0  0  0  0  0  0  0  0  0  0
    1.0491   -6.8434    2.9820 C   0  0  0  0  0  0  0  0  0  0  0  0
    1.9985   -8.9840    2.8958 C   0  0  2  0  0  0  0  0  0  0  0  0
    1.7297   -9.2108    1.6335 C   0  0  0  0  0  0  0  0  0  0  0  0
    1.7343   -8.0566    0.8408 C   0  0  2  0  0  0  0  0  0  0  0  0
    1.0269   -6.8892    1.4456 C   0  0  0  0  0  0  0  0  0  0  0  0
    1.7596   -8.0979   -0.4723 C   0  0  0  0  0  0  0  0  0  0  0  0
    2.7309   -8.8718   -1.0817 O   0  0  0  0  0  0  0  0  0  0  0  0
    1.3441   -7.4974   -1.3294 O   0  0  0  0  0  0  0  0  0  0  0  0
    2.3918  -10.1689    3.6526 C   0  0  0  0  0  0  0  0  0  0  0  0
    1.6667  -10.9525    4.2821 O   0  0  0  0  0  0  0  0  0  0  0  0
    3.7073  -10.4382    3.8238 O   0  0  0  0  0  0  0  0  0  0  0  0
    0.9162   -5.6501    3.5063 O   0  0  0  0  0  0  0  0  0  0  0  0
    0.8050   -5.7251    0.8791 O   0  0  0  0  0  0  0  0  0  0  0  0
    1.8362  -10.3885    1.1093 O   0  0  0  0  0  0  0  0  0  0  0  0
    4.1208  -11.1233    4.9521 C   0  0  0  0  0  0  0  0  0  0  0  0
    5.5432  -11.3190    4.8974 C   0  0  0  0  0  0  0  0  0  0  0  0
    6.1825  -10.0155    4.5036 O   0  0  0  0  0  0  0  0  0  0  0  0
  1  2  1  0
  1  3  1  0
  3  4  1  0
  4  5  1  0
  2  6  1  0
  5  6  1  0
  5  7  1  6
  7  8  1  0
  7  9  2  0
  3 10  1  1
 10 11  2  0
 10 12  1  0
  2 13  2  0
  6 14  2  0
  4 15  2  0
 12 16  1  0
 16 17  1  0
 17 18  1  0
M  END

$$$$
No_369-/export/home/yangzhenyu/potential_scad_32_flow//YTHDC2/2024-12-06-03-22-00/
     RDKit          3D

 18 18  0  0  0  0  0  0  0  0999 V2000
    1.1787   -8.0297    3.5154 C   0  0  0  0  0  0  0  0  0  0  0  0
    1.0491   -6.8434    2.9820 C   0  0  0  0  0  0  0  0  0  0  0  0
    1.0690   -9.1150    2.7206 C   0  0  0  0  0  0  0  0  0  0  0  0
    0.9689   -6.6391    1.6260 C   0  0  0  0  0  0  0  0  0  0  0  0
    1.2594  -10.4791    3.3003 C   0  0  0  0  0  0  0  0  0  0  0  0
    0.7929   -7.6539    0.8429 C   0  0  0  0  0  0  0  0  0  0  0  0
    0.9043   -8.9494    1.3181 C   0  0  0  0  0  0  0  0  0  0  0  0
    0.4297  -11.3931    3.1694 O   0  0  0  0  0  0  0  0  0  0  0  0
    2.4510  -10.7206    3.9069 N   0  0  0  0  0  0  0  0  0  0  0  0
    0.9398  -10.0244    0.5346 C   0  0  0  0  0  0  0  0  0  0  0  0
    2.0334  -10.6973    0.2350 O   0  0  0  0  0  0  0  0  0  0  0  0
   -0.2317  -10.4020   -0.0185 O   0  0  0  0  0  0  0  0  0  0  0  0
    2.6857  -11.8658    4.6338 C   0  0  0  0  0  0  0  0  0  0  0  0
    0.8540   -5.2925    1.1510 C   0  0  0  0  0  0  0  0  0  0  0  0
    1.5670   -4.2700    1.7055 O   0  0  0  0  0  0  0  0  0  0  0  0
    0.2107   -4.9410    0.2506 O   0  0  0  0  0  0  0  0  0  0  0  0
    2.7304  -12.8269    3.6805 C   0  0  0  0  0  0  0  0  0  0  0  0
    2.9108  -13.2490    2.7172 O   0  0  0  0  0  0  0  0  0  0  0  0
  3  5  1  0
  5  8  2  0
  5  9  1  0
  7 10  1  0
 10 11  1  0
 10 12  2  0
  9 13  1  0
  4 14  1  0
 14 15  2  0
 14 16  1  0
 13 17  1  0
 17 18  2  0
  1  2  2  0
  2  4  1  0
  4  6  2  0
  6  7  1  0
  3  7  2  0
  1  3  1  0
M  END

$$$$
No_370-/export/home/yangzhenyu/potential_scad_32_flow//YTHDC2/2024-12-06-03-22-00/
     RDKit          3D

 19 18  0  0  1  0  0  0  0  0999 V2000
    1.1787   -8.0297    3.5154 O   0  0  0  0  0  0  0  0  0  0  0  0
    0.6747   -7.4019    2.7838 C   0  0  0  0  0  0  0  0  0  0  0  0
    0.7594   -8.0032    1.4295 C   0  0  0  0  0  0  0  0  0  0  0  0
    0.3459   -9.1500    1.3581 C   0  0  0  0  0  0  0  0  0  0  0  0
   -0.4155   -9.6726    2.0241 S   0  0  0  0  0  0  0  0  0  0  0  0
    0.1281  -10.4092    3.0808 C   0  0  0  0  0  0  0  0  0  0  0  0
    1.4516  -10.3091    3.2255 C   0  0  1  0  0  0  0  0  0  0  0  0
    1.8613  -10.4689    4.5885 C   0  0  0  0  0  0  0  0  0  0  0  0
    1.3298   -7.0457    0.5440 C   0  0  0  0  0  0  0  0  0  0  0  0
    2.4186  -11.6488    5.0264 O   0  0  0  0  0  0  0  0  0  0  0  0
    0.7366   -9.6697   -0.0122 O   0  0  0  0  0  0  0  0  0  0  0  0
    1.0025   -5.8366    2.8011 O   0  0  0  0  0  0  0  0  0  0  0  0
   -0.5151  -11.0561    4.1868 O   0  0  0  0  0  0  0  0  0  0  0  0
    2.6595   -7.3992    0.3363 C   0  0  0  0  0  0  0  0  0  0  0  0
    3.3117   -8.3097    0.6412 O   0  0  0  0  0  0  0  0  0  0  0  0
    2.3081   -9.5242    5.3439 O   0  0  0  0  0  0  0  0  0  0  0  0
    3.3698   -6.5194   -0.4362 O   0  0  0  0  0  0  0  0  0  0  0  0
    2.3994  -10.6149    2.3154 C   0  0  0  0  0  0  0  0  0  0  0  0
    2.2496  -12.0304    1.8803 C   0  0  0  0  0  0  0  0  0  0  0  0
  1  2  1  0
  2  3  1  0
  3  4  1  0
  4  5  1  0
  5  6  1  0
  6  7  1  0
  7  8  1  0
  3  9  1  0
  8 10  1  0
  4 11  2  0
  2 12  2  0
  6 13  2  0
  9 14  1  0
 14 15  1  0
  8 16  2  0
 14 17  2  0
  7 18  1  6
 18 19  1  0
M  END

$$$$
No_371-/export/home/yangzhenyu/potential_scad_32_flow//YTHDC2/2024-12-06-03-22-00/
     RDKit          3D

 19 19  0  0  1  0  0  0  0  0999 V2000
    1.1787   -8.0297    3.5154 C   0  0  0  0  0  0  0  0  0  0  0  0
    1.0491   -6.8434    2.9820 C   0  0  0  0  0  0  0  0  0  0  0  0
    1.9985   -8.9840    2.8958 C   0  0  2  0  0  0  0  0  0  0  0  0
    1.7297   -9.2108    1.6335 C   0  0  0  0  0  0  0  0  0  0  0  0
    1.7343   -8.0566    0.8408 C   0  0  2  0  0  0  0  0  0  0  0  0
    1.0269   -6.8892    1.4456 C   0  0  0  0  0  0  0  0  0  0  0  0
    1.7596   -8.0979   -0.4723 C   0  0  0  0  0  0  0  0  0  0  0  0
    1.8128   -9.1679   -1.0978 O   0  0  0  0  0  0  0  0  0  0  0  0
    2.3427  -10.1974    3.6211 C   0  0  0  0  0  0  0  0  0  0  0  0
    2.3000  -11.3625    3.1948 O   0  0  0  0  0  0  0  0  0  0  0  0
    3.0800  -10.1274    4.7989 O   0  0  0  0  0  0  0  0  0  0  0  0
    0.8486   -5.6665    3.5055 O   0  0  0  0  0  0  0  0  0  0  0  0
    0.8603   -5.7752    0.8899 O   0  0  0  0  0  0  0  0  0  0  0  0
    2.1425   -7.1951   -1.2273 O   0  0  0  0  0  0  0  0  0  0  0  0
    1.9094  -10.3222    1.1234 O   0  0  0  0  0  0  0  0  0  0  0  0
    3.5002  -11.3781    5.4215 C   0  0  0  0  0  0  0  0  0  0  0  0
    4.8814  -10.8680    5.8263 C   0  0  0  0  0  0  0  0  0  0  0  0
    5.7208  -10.9329    4.5742 O   0  0  0  0  0  0  0  0  0  0  0  0
    6.2053   -9.8076    4.2361 C   0  0  0  0  0  0  0  0  0  0  0  0
  1  2  1  0
  1  3  1  0
  3  4  1  0
  4  5  1  0
  2  6  1  0
  5  6  1  0
  5  7  1  6
  7  8  2  0
  3  9  1  1
  9 10  2  0
  9 11  1  0
  2 12  2  0
  6 13  2  0
  7 14  1  0
  4 15  2  0
 11 16  1  0
 16 17  1  0
 17 18  1  0
 18 19  1  0
M  END

$$$$
No_372-/export/home/yangzhenyu/potential_scad_32_flow//YTHDC2/2024-12-06-03-22-00/
     RDKit          3D

 18 18  0  0  1  0  0  0  0  0999 V2000
    1.1787   -8.0297    3.5154 P   0  0  2  0  0  0  0  0  0  0  0  0
    1.2030   -9.2736    3.3536 O   0  0  0  0  0  0  0  0  0  0  0  0
   -0.0768   -7.4876    3.7816 O   0  0  0  0  0  0  0  0  0  0  0  0
    1.6943   -7.3089    2.0219 O   0  0  0  0  0  0  0  0  0  0  0  0
    2.1981  -10.3274    3.6024 C   0  0  0  0  0  0  0  0  0  0  0  0
    1.8256  -11.6570    3.8468 C   0  0  0  0  0  0  0  0  0  0  0  0
    1.0120  -12.1514    2.7938 C   0  0  1  0  0  0  0  0  0  0  0  0
    1.4293  -13.0041    2.0497 C   0  0  2  0  0  0  0  0  0  0  0  0
    1.4112  -12.8758    0.8405 C   0  0  0  0  0  0  0  0  0  0  0  0
    1.3739  -13.7416    0.0202 C   0  0  0  0  0  0  0  0  0  0  0  0
    1.2386  -15.0924    0.3131 C   0  0  0  0  0  0  0  0  0  0  0  0
    1.1821  -15.4276    1.5701 C   0  0  2  0  0  0  0  0  0  0  0  0
    1.2745  -14.4233    2.5752 C   0  0  0  0  0  0  0  0  0  0  0  0
    1.1450  -16.8145    2.0034 C   0  0  0  0  0  0  0  0  0  0  0  0
    0.0547  -17.5209    1.8418 O   0  0  0  0  0  0  0  0  0  0  0  0
    2.3465  -17.5331    2.2035 O   0  0  0  0  0  0  0  0  0  0  0  0
    1.3518  -14.7576    3.8286 O   0  0  0  0  0  0  0  0  0  0  0  0
   -0.2646  -11.5288    2.9233 C   0  0  0  0  0  0  0  0  0  0  0  0
  1  2  1  0
  1  3  1  6
  1  4  2  0
  2  5  1  0
  5  6  1  0
  6  7  1  0
  7  8  1  0
  8  9  1  6
 10 11  1  0
  8 13  1  0
 12 13  1  0
 12 14  1  1
 14 15  2  0
 14 16  1  0
 13 17  2  0
  7 18  1  1
  9 10  1  0
 11 12  1  0
M  END

$$$$
No_373-/export/home/yangzhenyu/potential_scad_32_flow//YTHDC2/2024-12-06-03-22-00/
     RDKit          3D

 20 21  0  0  1  0  0  0  0  0999 V2000
    1.1787   -8.0297    3.5154 C   0  0  0  0  0  0  0  0  0  0  0  0
    1.0491   -6.8434    2.9820 C   0  0  0  0  0  0  0  0  0  0  0  0
    1.9985   -8.9840    2.8958 P   0  0  1  0  0  0  0  0  0  0  0  0
    1.9988  -10.2510    3.8883 O   0  0  0  0  0  0  0  0  0  0  0  0
    0.5265   -6.5819    1.7139 N   0  0  0  0  0  0  0  0  0  0  0  0
    1.0583   -9.6719    1.7244 O   0  0  0  0  0  0  0  0  0  0  0  0
   -0.0376   -7.5416    1.1536 C   0  0  0  0  0  0  0  0  0  0  0  0
   -1.4299   -7.5793    1.3763 C   0  0  0  0  0  0  0  0  0  0  0  0
   -2.0468   -8.6785    1.2687 C   0  0  0  0  0  0  0  0  0  0  0  0
   -3.3880   -8.7384    1.6404 C   0  0  0  0  0  0  0  0  0  0  0  0
   -3.9824   -7.5078    1.9190 C   0  0  0  0  0  0  0  0  0  0  0  0
   -3.4161   -6.3495    1.9860 C   0  0  0  0  0  0  0  0  0  0  0  0
   -1.9817   -6.3364    1.7656 C   0  0  0  0  0  0  0  0  0  0  0  0
    1.6470   -5.6344    3.5997 C   0  0  0  0  0  0  0  0  0  0  0  0
   -5.5013   -7.5663    2.2713 C   0  0  0  0  0  0  0  0  0  0  0  0
   -6.2588   -7.3850    1.4413 C   0  0  0  0  0  0  0  0  0  0  0  0
   -7.6298   -7.4418    1.8284 C   0  0  0  0  0  0  0  0  0  0  0  0
   -7.8041   -7.6704    3.1533 C   0  0  0  0  0  0  0  0  0  0  0  0
   -6.8953   -7.8338    4.0822 C   0  0  0  0  0  0  0  0  0  0  0  0
   -5.5431   -7.7797    3.6981 C   0  0  0  0  0  0  0  0  0  0  0  0
  1  2  1  0
  1  3  1  0
  3  4  1  1
  2  5  2  3
  3  6  2  0
  5  7  1  0
  7  8  1  0
  2 14  1  0
 11 15  1  0
 15 16  2  0
 16 17  1  0
 17 18  2  0
 18 19  1  0
 19 20  2  0
 15 20  1  0
  8  9  2  0
  9 10  1  0
 10 11  2  0
 11 12  1  0
 12 13  2  0
  8 13  1  0
M  END

$$$$
No_374-/export/home/yangzhenyu/potential_scad_32_flow//YTHDC2/2024-12-06-03-22-00/
     RDKit          3D

 19 19  0  0  1  0  0  0  0  0999 V2000
    1.1787   -8.0297    3.5154 C   0  0  0  0  0  0  0  0  0  0  0  0
    1.0491   -6.8434    2.9820 I   0  0  0  0  0  0  0  0  0  0  0  0
    0.9718   -9.2778    2.6638 C   0  0  2  0  0  0  0  0  0  0  0  0
    0.9442   -9.2977    1.4296 C   0  0  1  0  0  0  0  0  0  0  0  0
   -0.1610   -9.5929    0.8736 C   0  0  0  0  0  0  0  0  0  0  0  0
   -0.9833  -10.5520    1.3288 C   0  0  2  0  0  0  0  0  0  0  0  0
   -0.7583  -10.9411    2.6583 C   0  0  1  0  0  0  0  0  0  0  0  0
    0.2464  -10.2453    3.3784 C   0  0  0  0  0  0  0  0  0  0  0  0
    2.0588   -8.6747    0.5612 C   0  0  0  0  0  0  0  0  0  0  0  0
    3.0646   -9.2825    0.3834 N   0  0  0  0  0  0  0  0  0  0  0  0
    1.8763   -7.6493   -0.2066 O   0  0  0  0  0  0  0  0  0  0  0  0
    0.3311  -10.5543    4.7322 O   0  0  0  0  0  0  0  0  0  0  0  0
   -1.7644  -12.0338    3.3697 Cl  0  0  0  0  0  0  0  0  0  0  0  0
   -1.8519  -11.4083    0.5286 C   0  0  0  0  0  0  0  0  0  0  0  0
   -2.9424  -10.8829    0.0339 O   0  0  0  0  0  0  0  0  0  0  0  0
   -1.5102  -12.6453    0.1628 O   0  0  0  0  0  0  0  0  0  0  0  0
   -2.2509  -13.3753   -0.6364 C   0  0  0  0  0  0  0  0  0  0  0  0
   -2.0532  -13.3337   -1.9827 C   0  0  0  0  0  0  0  0  0  0  0  0
    3.2265  -10.1473    0.8794 H   0  0  0  0  0  0  0  0  0  0  0  0
  1  2  1  0
  3  1  1  1
  3  4  1  0
  5  6  1  0
  3  8  1  0
  7  8  1  0
  4  9  1  6
  9 10  2  0
  9 11  1  0
  8 12  2  0
  7 13  1  1
  6 14  1  6
 14 15  2  0
 14 16  1  0
 16 17  1  0
 17 18  1  0
  4  5  1  0
  6  7  1  0
 10 19  1  0
M  END

$$$$
No_375-/export/home/yangzhenyu/potential_scad_32_flow//YTHDC2/2024-12-06-03-22-00/
     RDKit          3D

 17 16  0  0  1  0  0  0  0  0999 V2000
    1.1787   -8.0297    3.5154 I   0  0  0  0  0  0  0  0  0  0  0  0
    0.7262   -7.1087    2.2967 C   0  0  2  0  0  0  0  0  0  0  0  0
    1.0539   -7.5862    1.0195 C   0  0  0  0  0  0  0  0  0  0  0  0
    2.2429   -8.2861    0.7825 C   0  0  0  0  0  0  0  0  0  0  0  0
    2.5603   -8.8402   -0.3793 C   0  0  0  0  0  0  0  0  0  0  0  0
    1.5402   -8.9514   -1.2547 O   0  0  0  0  0  0  0  0  0  0  0  0
    3.5188   -9.4521   -0.8076 O   0  0  0  0  0  0  0  0  0  0  0  0
    0.2131   -5.8042    2.4925 C   0  0  0  0  0  0  0  0  0  0  0  0
    1.0602   -4.7053    2.6915 O   0  0  0  0  0  0  0  0  0  0  0  0
   -0.9911   -5.5936    2.2489 O   0  0  0  0  0  0  0  0  0  0  0  0
    0.5618   -3.4591    3.1913 C   0  0  0  0  0  0  0  0  0  0  0  0
    1.5857   -2.4279    2.7868 C   0  0  0  0  0  0  0  0  0  0  0  0
    1.7063   -2.3294    1.4161 C   0  0  0  0  0  0  0  0  0  0  0  0
    0.5598   -2.6913    0.5746 C   0  0  0  0  0  0  0  0  0  0  0  0
   -0.2606   -1.8366    0.2060 C   0  0  0  0  0  0  0  0  0  0  0  0
   -1.4428   -2.2358   -0.2627 C   0  0  0  0  0  0  0  0  0  0  0  0
   -1.8348   -3.5219   -0.3800 C   0  0  0  0  0  0  0  0  0  0  0  0
  2  1  1  1
  2  3  1  0
  3  4  1  0
  4  5  1  0
  5  6  1  0
  5  7  2  0
  2  8  1  0
  8  9  1  0
  8 10  2  0
  9 11  1  0
 11 12  1  0
 12 13  1  0
 13 14  1  0
 14 15  1  0
 15 16  2  3
 16 17  1  0
M  END

$$$$
No_376-/export/home/yangzhenyu/potential_scad_32_flow//YTHDC2/2024-12-06-03-22-00/
     RDKit          3D

 18 18  0  0  1  0  0  0  0  0999 V2000
    1.1787   -8.0297    3.5154 C   0  0  0  0  0  0  0  0  0  0  0  0
    1.0491   -6.8434    2.9820 C   0  0  0  0  0  0  0  0  0  0  0  0
    1.0690   -9.1150    2.7206 C   0  0  0  0  0  0  0  0  0  0  0  0
    0.9689   -6.6391    1.6260 C   0  0  0  0  0  0  0  0  0  0  0  0
    0.9670   -9.0334    1.3824 C   0  0  0  0  0  0  0  0  0  0  0  0
    0.7641  -10.1483    0.4695 C   0  0  1  0  0  0  0  0  0  0  0  0
    0.8413   -7.7010    0.7982 C   0  0  0  0  0  0  0  0  0  0  0  0
   -0.0514   -9.8280   -0.7002 Cl  0  0  0  0  0  0  0  0  0  0  0  0
    1.2097  -10.6736    3.2342 C   0  0  0  0  0  0  0  0  0  0  0  0
    0.1120  -11.2775    3.5323 O   0  0  0  0  0  0  0  0  0  0  0  0
    2.2948  -10.9657    3.9709 N   0  0  0  0  0  0  0  0  0  0  0  0
    1.4075  -11.2776    0.6393 C   0  0  0  0  0  0  0  0  0  0  0  0
    0.7842  -12.4896    0.7181 O   0  0  0  0  0  0  0  0  0  0  0  0
    2.7045  -11.4804    0.7941 O   0  0  0  0  0  0  0  0  0  0  0  0
    2.4657  -12.1125    4.6184 C   0  0  1  0  0  0  0  0  0  0  0  0
    3.2639  -12.8020    3.8078 F   0  0  0  0  0  0  0  0  0  0  0  0
    0.9401   -5.0958    1.0455 Cl  0  0  0  0  0  0  0  0  0  0  0  0
    3.2901  -11.8719    5.7050 C   0  0  0  0  0  0  0  0  0  0  0  0
  5  6  1  0
  6  8  1  6
  3  9  1  0
  9 10  2  0
  9 11  1  0
  6 12  1  0
 12 13  1  0
 12 14  2  0
 11 15  1  0
 15 16  1  0
  4 17  1  0
 15 18  1  1
  1  2  2  0
  2  4  1  0
  4  7  2  0
  5  7  1  0
  3  5  2  0
  1  3  1  0
M  END

$$$$
No_377-/export/home/yangzhenyu/potential_scad_32_flow//YTHDC2/2024-12-06-03-22-00/
     RDKit          3D

 18 17  0  0  1  0  0  0  0  0999 V2000
    1.1787   -8.0297    3.5154 C   0  0  0  0  0  0  0  0  0  0  0  0
    1.0491   -6.8434    2.9820 C   0  0  1  0  0  0  0  0  0  0  0  0
    1.9985   -8.9840    2.8958 C   0  0  0  0  0  0  0  0  0  0  0  0
    1.1815  -10.1889    2.5497 C   0  0  0  0  0  0  0  0  0  0  0  0
    0.9817  -11.1388    2.8134 C   0  0  2  0  0  0  0  0  0  0  0  0
    1.6854  -11.5768    4.1035 C   0  0  0  0  0  0  0  0  0  0  0  0
    1.8112   -5.8026    3.2097 O   0  0  0  0  0  0  0  0  0  0  0  0
    0.3163   -6.6991    1.8469 C   0  0  0  0  0  0  0  0  0  0  0  0
   -0.1741   -7.5739    1.1552 O   0  0  0  0  0  0  0  0  0  0  0  0
    0.0052   -5.3299    1.5061 O   0  0  0  0  0  0  0  0  0  0  0  0
    0.9717  -12.3230    2.0163 C   0  0  1  0  0  0  0  0  0  0  0  0
    1.2250  -13.5914    2.4826 C   0  0  0  0  0  0  0  0  0  0  0  0
    1.0579  -14.6157    1.6248 C   0  0  0  0  0  0  0  0  0  0  0  0
    1.8478  -15.6836    1.7076 C   0  0  0  0  0  0  0  0  0  0  0  0
    3.1829  -15.6086    2.1539 N   0  0  0  0  0  0  0  0  0  0  0  0
    1.4946  -16.9966    1.5697 O   0  0  0  0  0  0  0  0  0  0  0  0
   -0.3421  -12.2715    1.3552 O   0  0  0  0  0  0  0  0  0  0  0  0
   -1.5946  -12.3012    2.0019 C   0  0  0  0  0  0  0  0  0  0  0  0
  1  2  1  0
  1  3  1  0
  3  4  1  0
  4  5  1  0
  5  6  1  1
  2  7  1  6
  2  8  1  0
  8  9  2  0
  8 10  1  0
  5 11  1  0
 11 12  1  1
 12 13  1  0
 13 14  1  0
 14 15  1  0
 14 16  2  0
 11 17  1  0
 17 18  1  0
M  END

$$$$
No_378-/export/home/yangzhenyu/potential_scad_32_flow//YTHDC2/2024-12-06-03-22-00/
     RDKit          3D

 18 19  0  0  1  0  0  0  0  0999 V2000
    1.1787   -8.0297    3.5154 O   0  0  0  0  0  0  0  0  0  0  0  0
    0.6747   -7.4019    2.7838 C   0  0  0  0  0  0  0  0  0  0  0  0
    0.7594   -8.0032    1.4295 C   0  0  0  0  0  0  0  0  0  0  0  0
    0.3459   -9.1500    1.3581 C   0  0  0  0  0  0  0  0  0  0  0  0
    1.1876  -10.0065    2.0240 C   0  0  0  0  0  0  0  0  0  0  0  0
    1.2267   -9.5257    3.5507 C   0  0  1  0  0  0  0  0  0  0  0  0
    1.6039  -10.3725    4.5012 C   0  0  0  0  0  0  0  0  0  0  0  0
    2.9639  -10.7957    4.5370 O   0  0  0  0  0  0  0  0  0  0  0  0
    0.7603  -11.0886    5.1220 O   0  0  0  0  0  0  0  0  0  0  0  0
    0.1302   -6.9789    0.4854 C   0  0  0  0  0  0  0  0  0  0  0  0
   -0.3978   -7.4725   -0.5462 C   0  0  0  0  0  0  0  0  0  0  0  0
   -0.5698   -8.8732   -0.7824 C   0  0  0  0  0  0  0  0  0  0  0  0
   -0.0576   -9.7274    0.2170 C   0  0  0  0  0  0  0  0  0  0  0  0
   -1.0523   -9.3626   -1.9643 C   0  0  0  0  0  0  0  0  0  0  0  0
   -1.5826  -10.5863   -2.0448 Cl  0  0  0  0  0  0  0  0  0  0  0  0
   -0.4362   -8.8719   -3.1460 O   0  0  0  0  0  0  0  0  0  0  0  0
    1.1660   -6.0103    2.9483 O   0  0  0  0  0  0  0  0  0  0  0  0
    1.7849  -11.0999    1.8559 O   0  0  0  0  0  0  0  0  0  0  0  0
  1  2  1  0
  2  3  1  0
  4  5  1  0
  1  6  1  0
  5  6  1  0
  6  7  1  6
  7  8  2  0
  7  9  1  0
 12 14  1  0
 14 15  1  0
 14 16  2  0
  2 17  2  0
  5 18  2  0
  3  4  2  0
  4 13  1  0
 12 13  2  0
 11 12  1  0
 10 11  2  0
  3 10  1  0
M  END

$$$$
No_379-/export/home/yangzhenyu/potential_scad_32_flow//YTHDC2/2024-12-06-03-22-00/
     RDKit          3D

 18 20  0  0  0  0  0  0  0  0999 V2000
    1.1787   -8.0297    3.5154 C   0  0  0  0  0  0  0  0  0  0  0  0
    1.0491   -6.8434    2.9820 C   0  0  0  0  0  0  0  0  0  0  0  0
    0.2462   -8.9560    3.0873 C   0  0  0  0  0  0  0  0  0  0  0  0
    0.3295   -6.5187    1.9069 C   0  0  0  0  0  0  0  0  0  0  0  0
   -0.5260   -8.7862    2.1368 C   0  0  0  0  0  0  0  0  0  0  0  0
   -0.5458   -7.5614    1.5054 C   0  0  0  0  0  0  0  0  0  0  0  0
    0.3636   -5.3203    1.2895 C   0  0  0  0  0  0  0  0  0  0  0  0
    1.2843   -4.3993    1.8232 N   0  0  0  0  0  0  0  0  0  0  0  0
   -0.4242   -4.8586    0.4285 O   0  0  0  0  0  0  0  0  0  0  0  0
    0.3810  -10.3368    3.6279 C   0  0  0  0  0  0  0  0  0  0  0  0
   -0.7391  -11.1059    3.7565 C   0  0  0  0  0  0  0  0  0  0  0  0
    1.6971  -10.7350    4.2039 C   0  0  0  0  0  0  0  0  0  0  0  0
    1.9023  -12.0432    4.4865 C   0  0  0  0  0  0  0  0  0  0  0  0
   -0.5534  -12.4403    4.0496 C   0  0  0  0  0  0  0  0  0  0  0  0
    0.8040  -12.9402    4.3118 C   0  0  0  0  0  0  0  0  0  0  0  0
    0.9274  -14.2122    4.6024 O   0  0  0  0  0  0  0  0  0  0  0  0
    1.1361   -3.1271    1.2151 N   0  0  0  0  0  0  0  0  0  0  0  0
    0.0349   -3.5355    0.2756 C   0  0  0  0  0  0  0  0  0  0  0  0
  4  7  1  0
  7  8  2  0
  7  9  1  0
  3 10  1  0
 10 12  1  0
 11 14  1  0
 13 15  1  0
 14 15  1  0
 15 16  2  0
  8 17  1  0
  9 18  1  0
 17 18  2  0
 12 13  1  0
 10 11  1  0
  1  2  2  0
  2  4  1  0
  4  6  2  0
  5  6  1  0
  3  5  2  0
  1  3  1  0
M  END

$$$$
No_380-/export/home/yangzhenyu/potential_scad_32_flow//YTHDC2/2024-12-06-03-22-00/
     RDKit          3D

 20 20  0  0  1  0  0  0  0  0999 V2000
    1.1787   -8.0297    3.5154 C   0  0  0  0  0  0  0  0  0  0  0  0
    1.1048   -9.2215    3.2892 C   0  0  0  0  0  0  0  0  0  0  0  0
    1.3627  -10.1721    4.3044 C   0  0  0  0  0  0  0  0  0  0  0  0
    1.0682  -11.5187    4.0618 C   0  0  0  0  0  0  0  0  0  0  0  0
    0.6332  -11.9655    2.9682 C   0  0  0  0  0  0  0  0  0  0  0  0
    0.4776  -11.1308    1.9203 C   0  0  0  0  0  0  0  0  0  0  0  0
    0.7470   -9.8274    2.0368 C   0  0  0  0  0  0  0  0  0  0  0  0
    1.8805   -7.1616    3.5538 C   0  0  0  0  0  0  0  0  0  0  0  0
    0.3665  -13.5716    2.7988 C   0  0  0  0  0  0  0  0  0  0  0  0
    1.4335  -14.3773    3.1718 O   0  0  0  0  0  0  0  0  0  0  0  0
   -0.6285  -13.9601    2.3410 O   0  0  0  0  0  0  0  0  0  0  0  0
    0.7534   -9.0275    0.9739 C   0  0  1  0  0  0  0  0  0  0  0  0
    1.9647   -8.7258    0.2077 C   0  0  0  0  0  0  0  0  0  0  0  0
    2.3324   -9.0152   -0.9349 O   0  0  0  0  0  0  0  0  0  0  0  0
    2.8069   -7.8067    0.7854 O   0  0  0  0  0  0  0  0  0  0  0  0
    1.5622   -5.6746    3.6392 C   0  0  0  0  0  0  0  0  0  0  0  0
    1.3544   -4.9826    4.5205 O   0  0  0  0  0  0  0  0  0  0  0  0
    1.0970   -5.0671    2.3401 O   0  0  0  0  0  0  0  0  0  0  0  0
   -0.2745   -8.4453    0.3548 C   0  0  0  0  0  0  0  0  0  0  0  0
   -0.9749   -7.5312    0.8262 O   0  0  0  0  0  0  0  0  0  0  0  0
  1  2  1  0
  1  8  2  3
  5  9  1  0
  9 10  2  0
  9 11  1  0
  7 12  1  0
 12 13  1  0
 13 14  2  0
 13 15  1  0
  8 16  1  0
 16 17  2  0
 16 18  1  0
 12 19  1  6
 19 20  2  0
  2  3  2  0
  3  4  1  0
  4  5  2  0
  5  6  1  0
  6  7  2  0
  2  7  1  0
M  END

$$$$
No_381-/export/home/yangzhenyu/potential_scad_32_flow//YTHDC2/2024-12-06-03-22-00/
     RDKit          3D

 19 19  0  0  0  0  0  0  0  0999 V2000
    1.1787   -8.0297    3.5154 C   0  0  0  0  0  0  0  0  0  0  0  0
    1.1048   -9.2215    3.2892 C   0  0  0  0  0  0  0  0  0  0  0  0
    1.3627  -10.1721    4.3044 C   0  0  0  0  0  0  0  0  0  0  0  0
    1.7354  -11.4730    3.9023 C   0  0  0  0  0  0  0  0  0  0  0  0
    1.8080  -11.8127    2.7216 C   0  0  0  0  0  0  0  0  0  0  0  0
    1.5854  -11.0021    1.7249 C   0  0  0  0  0  0  0  0  0  0  0  0
    1.3573   -9.7389    1.9287 C   0  0  0  0  0  0  0  0  0  0  0  0
    1.1102   -8.8712    0.9017 C   0  0  0  0  0  0  0  0  0  0  0  0
    1.5724   -9.1697   -0.3048 O   0  0  0  0  0  0  0  0  0  0  0  0
   -0.1456   -8.3257    0.7732 O   0  0  0  0  0  0  0  0  0  0  0  0
    2.1811  -13.4078    2.3001 C   0  0  0  0  0  0  0  0  0  0  0  0
    1.9980  -14.3120    3.1579 O   0  0  0  0  0  0  0  0  0  0  0  0
    2.0357  -13.6902    1.0044 O   0  0  0  0  0  0  0  0  0  0  0  0
    2.3782   -7.1911    3.3394 N   0  0  0  0  0  0  0  0  0  0  0  0
    1.8831   -5.7794    3.2919 C   0  0  0  0  0  0  0  0  0  0  0  0
    1.7978   -5.0054    2.5680 O   0  0  0  0  0  0  0  0  0  0  0  0
    1.9821   -5.2109    4.6524 O   0  0  0  0  0  0  0  0  0  0  0  0
    1.5820  -15.6059    2.7634 C   0  0  0  0  0  0  0  0  0  0  0  0
    0.3302  -15.8970    2.9581 C   0  0  0  0  0  0  0  0  0  0  0  0
  1  2  1  0
  7  8  1  0
  8  9  1  0
  8 10  2  0
  5 11  1  0
 11 12  1  0
 11 13  2  0
  1 14  1  0
 14 15  1  0
 15 16  2  0
 15 17  1  0
 12 18  1  0
 18 19  1  0
  2  3  2  0
  3  4  1  0
  4  5  2  0
  5  6  1  0
  6  7  2  0
  2  7  1  0
M  END

$$$$
No_382-/export/home/yangzhenyu/potential_scad_32_flow//YTHDC2/2024-12-06-03-22-00/
     RDKit          3D

 17 17  0  0  1  0  0  0  0  0999 V2000
    1.1787   -8.0297    3.5154 O   0  0  0  0  0  0  0  0  0  0  0  0
    0.6747   -7.4019    2.7838 C   0  0  0  0  0  0  0  0  0  0  0  0
    0.7594   -8.0032    1.4295 C   0  0  1  0  0  0  0  0  0  0  0  0
    0.3459   -9.1500    1.3581 C   0  0  0  0  0  0  0  0  0  0  0  0
    1.1876  -10.0065    2.0240 C   0  0  0  0  0  0  0  0  0  0  0  0
    1.0116  -11.4692    2.0236 C   0  0  1  0  0  0  0  0  0  0  0  0
    1.8830  -12.3152    2.6151 C   0  0  0  0  0  0  0  0  0  0  0  0
    1.7683  -13.6705    2.3016 C   0  0  0  0  0  0  0  0  0  0  0  0
    0.5712  -14.2008    2.1546 C   0  0  1  0  0  0  0  0  0  0  0  0
   -0.3515  -13.4520    1.3862 C   0  0  0  0  0  0  0  0  0  0  0  0
   -0.2898  -11.9785    1.6454 C   0  0  0  0  0  0  0  0  0  0  0  0
    0.4436   -6.1673    3.0853 O   0  0  0  0  0  0  0  0  0  0  0  0
    0.9615   -7.0711    0.5556 C   0  0  0  0  0  0  0  0  0  0  0  0
    0.2598  -15.4101    2.5525 C   0  0  0  0  0  0  0  0  0  0  0  0
   -1.0033  -15.8988    2.8202 N   0  0  0  0  0  0  0  0  0  0  0  0
    1.2715  -16.2869    3.0847 O   0  0  0  0  0  0  0  0  0  0  0  0
   -1.2398  -17.1550    3.4468 C   0  0  0  0  0  0  0  0  0  0  0  0
  1  2  1  0
  2  3  1  0
  3  4  1  0
  4  5  1  0
  6  5  1  1
  6  7  1  0
  7  8  1  0
  8  9  1  0
  9 10  1  0
  6 11  1  0
 10 11  1  0
  2 12  2  0
  3 13  1  6
  9 14  1  6
 14 15  1  0
 14 16  2  0
 15 17  1  0
M  END

$$$$
No_383-/export/home/yangzhenyu/potential_scad_32_flow//YTHDC2/2024-12-06-03-22-00/
     RDKit          3D

 19 19  0  0  1  0  0  0  0  0999 V2000
    1.1787   -8.0297    3.5154 C   0  0  0  0  0  0  0  0  0  0  0  0
    1.0491   -6.8434    2.9820 S   0  0  0  0  0  0  0  0  0  0  0  0
    1.9598   -9.0740    2.9169 C   0  0  0  0  0  0  0  0  0  0  0  0
    1.9496  -10.4068    3.6564 C   0  0  1  0  0  0  0  0  0  0  0  0
    0.1092   -7.1243    1.6995 C   0  0  0  0  0  0  0  0  0  0  0  0
    1.6035  -11.5043    3.0525 Br  0  0  0  0  0  0  0  0  0  0  0  0
   -1.1368   -7.4035    1.6459 C   0  0  0  0  0  0  0  0  0  0  0  0
   -1.7193   -8.0273    0.8558 C   0  0  0  0  0  0  0  0  0  0  0  0
   -1.0608   -8.4291   -0.3563 C   0  0  0  0  0  0  0  0  0  0  0  0
    0.0123   -8.6068   -0.5187 C   0  0  0  0  0  0  0  0  0  0  0  0
    0.9261   -7.9289    0.6826 C   0  0  0  0  0  0  0  0  0  0  0  0
    0.3101   -5.8299    3.7050 O   0  0  0  0  0  0  0  0  0  0  0  0
    2.2792   -6.0818    2.5567 O   0  0  0  0  0  0  0  0  0  0  0  0
    0.9184   -9.1618   -1.3727 F   0  0  0  0  0  0  0  0  0  0  0  0
    3.5582  -10.5620    4.3821 C   0  0  0  0  0  0  0  0  0  0  0  0
    3.3030  -11.1932    5.5491 O   0  0  0  0  0  0  0  0  0  0  0  0
   -1.8550   -9.4013   -1.1758 O   0  0  0  0  0  0  0  0  0  0  0  0
   -2.2999   -8.7320   -2.3549 C   0  0  0  0  0  0  0  0  0  0  0  0
   -2.5152   -7.5856   -2.2564 C   0  0  0  0  0  0  0  0  0  0  0  0
  1  2  1  0
  1  3  1  0
  3  4  1  0
  2  5  1  0
  4  6  1  6
  2 12  2  0
  2 13  2  0
 10 14  1  0
  4 15  1  0
 15 16  1  0
  9 17  1  0
 17 18  1  0
 18 19  1  0
  5  7  2  0
  7  8  1  0
  8  9  2  0
  9 10  1  0
 10 11  2  0
  5 11  1  0
M  END

$$$$
No_384-/export/home/yangzhenyu/potential_scad_32_flow//YTHDC2/2024-12-06-03-22-00/
     RDKit          3D

 18 19  0  0  1  0  0  0  0  0999 V2000
    1.1787   -8.0297    3.5154 C   0  0  0  0  0  0  0  0  0  0  0  0
    1.1048   -9.2215    3.2892 C   0  0  1  0  0  0  0  0  0  0  0  0
    1.2339   -9.7611    2.0189 C   0  0  0  0  0  0  0  0  0  0  0  0
    1.3583   -9.0036    0.9764 C   0  0  2  0  0  0  0  0  0  0  0  0
    1.7077   -9.6100   -0.3010 C   0  0  0  0  0  0  0  0  0  0  0  0
    1.3637   -7.1087    2.3226 C   0  0  1  0  0  0  0  0  0  0  0  0
    1.4257   -7.6645    1.0231 C   0  0  0  0  0  0  0  0  0  0  0  0
    1.9364   -8.8976   -1.3212 O   0  0  0  0  0  0  0  0  0  0  0  0
    1.5161  -10.9175   -0.4592 O   0  0  0  0  0  0  0  0  0  0  0  0
    1.1228  -10.1701    4.3932 Cl  0  0  0  0  0  0  0  0  0  0  0  0
    1.2682   -5.2483    2.5471 Cl  0  0  0  0  0  0  0  0  0  0  0  0
    1.2546  -11.3261    1.9118 C   0  0  0  0  0  0  0  0  0  0  0  0
    1.3499  -11.7130    0.4511 C   0  0  2  0  0  0  0  0  0  0  0  0
    1.3472  -13.1185    0.3180 C   0  0  0  0  0  0  0  0  0  0  0  0
    0.1241  -13.7156   -0.0649 O   0  0  0  0  0  0  0  0  0  0  0  0
    2.3243  -13.8274    0.6452 O   0  0  0  0  0  0  0  0  0  0  0  0
    1.6003   -6.8441    0.1541 O   0  0  0  0  0  0  0  0  0  0  0  0
    1.0968  -12.0428    2.8715 O   0  0  0  0  0  0  0  0  0  0  0  0
  1  2  1  0
  3  4  1  0
  4  5  1  1
  4  7  1  0
  6  7  1  0
  5  8  2  0
  5  9  1  0
  2 10  1  1
  6 11  1  6
  3 12  1  0
  9 13  1  0
 12 13  1  0
 13 14  1  1
 14 15  1  0
 14 16  2  0
  7 17  2  0
 12 18  2  0
  2  3  1  0
  1  6  1  0
M  END

$$$$
No_385-/export/home/yangzhenyu/potential_scad_32_flow//YTHDC2/2024-12-06-03-22-00/
     RDKit          3D

 18 18  0  0  1  0  0  0  0  0999 V2000
    1.1787   -8.0297    3.5154 C   0  0  0  0  0  0  0  0  0  0  0  0
    1.0491   -6.8434    2.9820 C   0  0  0  0  0  0  0  0  0  0  0  0
    1.9985   -8.9840    2.8958 C   0  0  2  0  0  0  0  0  0  0  0  0
    1.7297   -9.2108    1.6335 C   0  0  1  0  0  0  0  0  0  0  0  0
    1.7343   -8.0566    0.8408 C   0  0  0  0  0  0  0  0  0  0  0  0
    1.0269   -6.8892    1.4456 C   0  0  0  0  0  0  0  0  0  0  0  0
    2.0740   -7.9416   -0.3682 O   0  0  0  0  0  0  0  0  0  0  0  0
    1.9646  -10.3580    3.5767 C   0  0  0  0  0  0  0  0  0  0  0  0
    2.8852  -10.5868    4.4417 O   0  0  0  0  0  0  0  0  0  0  0  0
    1.3174  -11.3559    3.1729 O   0  0  0  0  0  0  0  0  0  0  0  0
    0.5087   -5.7628    3.4235 O   0  0  0  0  0  0  0  0  0  0  0  0
    0.9412   -5.7197    0.8746 O   0  0  0  0  0  0  0  0  0  0  0  0
    2.4667  -10.2165    0.8236 C   0  0  0  0  0  0  0  0  0  0  0  0
    1.6364  -10.9231    0.0104 O   0  0  0  0  0  0  0  0  0  0  0  0
    3.4834  -10.8240    1.2650 O   0  0  0  0  0  0  0  0  0  0  0  0
    0.5881   -8.1324    4.5625 O   0  0  0  0  0  0  0  0  0  0  0  0
    3.0494  -10.6606    5.5940 C   0  0  0  0  0  0  0  0  0  0  0  0
    4.4237  -10.4695    6.1900 C   0  0  0  0  0  0  0  0  0  0  0  0
  1  2  1  0
  1  3  1  0
  3  4  1  0
  4  5  1  0
  2  6  1  0
  5  6  1  0
  5  7  2  0
  3  8  1  1
  8  9  1  0
  8 10  2  0
  2 11  2  0
  6 12  2  0
  4 13  1  6
 13 14  2  0
 13 15  1  0
  1 16  2  0
  9 17  1  0
 17 18  1  0
M  END

$$$$
No_386-/export/home/yangzhenyu/potential_scad_32_flow//YTHDC2/2024-12-06-03-22-00/
     RDKit          3D

 17 17  0  0  0  0  0  0  0  0999 V2000
    1.1787   -8.0297    3.5154 C   0  0  0  0  0  0  0  0  0  0  0  0
    1.0491   -6.8434    2.9820 C   0  0  0  0  0  0  0  0  0  0  0  0
    0.2462   -8.9560    3.0873 C   0  0  0  0  0  0  0  0  0  0  0  0
    0.3295   -6.5187    1.9069 C   0  0  0  0  0  0  0  0  0  0  0  0
   -0.5260   -8.7862    2.1368 C   0  0  0  0  0  0  0  0  0  0  0  0
   -0.5458   -7.5614    1.5054 C   0  0  0  0  0  0  0  0  0  0  0  0
    0.4051  -10.4356    3.8147 S   0  0  0  0  0  0  0  0  0  0  0  0
    1.6265  -10.8742    4.2691 N   0  0  0  0  0  0  0  0  0  0  0  0
   -0.2728  -11.4049    2.9345 O   0  0  0  0  0  0  0  0  0  0  0  0
   -0.4729  -10.3684    5.0854 O   0  0  0  0  0  0  0  0  0  0  0  0
    0.3724   -5.2884    1.2599 Cl  0  0  0  0  0  0  0  0  0  0  0  0
    2.8341  -10.1981    4.3916 O   0  0  0  0  0  0  0  0  0  0  0  0
   -1.4221   -7.3328    0.4271 O   0  0  0  0  0  0  0  0  0  0  0  0
   -2.1287   -8.3041   -0.0389 C   0  0  0  0  0  0  0  0  0  0  0  0
   -1.3318   -9.0238   -0.9784 C   0  0  0  0  0  0  0  0  0  0  0  0
   -0.3475   -8.5143   -1.6407 O   0  0  0  0  0  0  0  0  0  0  0  0
   -1.3613  -10.3455   -0.9627 O   0  0  0  0  0  0  0  0  0  0  0  0
  3  7  1  0
  7  8  1  0
  7  9  2  0
  7 10  2  0
  4 11  1  0
  8 12  2  0
  6 13  1  0
 13 14  1  0
 14 15  1  0
 15 16  2  0
 15 17  1  0
  1  2  2  0
  2  4  1  0
  4  6  2  0
  5  6  1  0
  3  5  2  0
  1  3  1  0
M  END

$$$$
No_387-/export/home/yangzhenyu/potential_scad_32_flow//YTHDC2/2024-12-06-03-22-00/
     RDKit          3D

 17 17  0  0  0  0  0  0  0  0999 V2000
    1.1787   -8.0297    3.5154 C   0  0  0  0  0  0  0  0  0  0  0  0
    1.1048   -9.2215    3.2892 C   0  0  0  0  0  0  0  0  0  0  0  0
    1.3627  -10.1721    4.3044 C   0  0  0  0  0  0  0  0  0  0  0  0
    2.3720  -10.8948    4.2468 N   0  0  0  0  0  0  0  0  0  0  0  0
    0.9253   -7.0452    2.5992 C   0  0  0  0  0  0  0  0  0  0  0  0
    0.6172   -7.4601    1.2606 C   0  0  0  0  0  0  0  0  0  0  0  0
    0.5634   -8.7147    0.9340 C   0  0  0  0  0  0  0  0  0  0  0  0
    0.8141   -9.7086    1.9467 C   0  0  0  0  0  0  0  0  0  0  0  0
    0.7860  -10.9588    1.6969 C   0  0  0  0  0  0  0  0  0  0  0  0
    1.8137  -11.6046    0.9999 O   0  0  0  0  0  0  0  0  0  0  0  0
   -0.2750  -11.7265    1.8664 O   0  0  0  0  0  0  0  0  0  0  0  0
    1.0736   -5.5972    2.8742 Cl  0  0  0  0  0  0  0  0  0  0  0  0
    0.2233  -11.1114    4.6449 O   0  0  0  0  0  0  0  0  0  0  0  0
    0.4534   -9.1448   -0.5241 C   0  0  0  0  0  0  0  0  0  0  0  0
    1.3577   -8.8892   -1.3932 O   0  0  0  0  0  0  0  0  0  0  0  0
   -0.7293   -9.4883   -0.9739 O   0  0  0  0  0  0  0  0  0  0  0  0
    2.7924  -11.8852    5.2603 S   0  0  0  0  0  0  0  0  0  0  0  0
  2  3  1  0
  3  4  1  0
  8  9  1  0
  9 10  1  0
  9 11  2  0
  5 12  1  0
  3 13  2  0
  7 14  1  0
 14 15  2  0
 14 16  1  0
  4 17  1  0
  1  2  2  0
  2  8  1  0
  7  8  2  0
  6  7  1  0
  5  6  2  0
  1  5  1  0
M  END

$$$$
No_388-/export/home/yangzhenyu/potential_scad_32_flow//YTHDC2/2024-12-06-03-22-00/
     RDKit          3D

 18 17  0  0  1  0  0  0  0  0999 V2000
    1.1787   -8.0297    3.5154 C   0  0  0  0  0  0  0  0  0  0  0  0
    1.0491   -6.8434    2.9820 C   0  0  0  0  0  0  0  0  0  0  0  0
    1.9985   -8.9840    2.8958 C   0  0  0  0  0  0  0  0  0  0  0  0
    1.1815  -10.1889    2.5497 C   0  0  1  0  0  0  0  0  0  0  0  0
    0.3496  -10.1352    1.6536 C   0  0  1  0  0  0  0  0  0  0  0  0
    0.7737   -9.6057    0.4354 C   0  0  0  0  0  0  0  0  0  0  0  0
   -0.1458   -9.3195   -0.5010 O   0  0  0  0  0  0  0  0  0  0  0  0
    2.0638   -9.6362   -0.1288 O   0  0  0  0  0  0  0  0  0  0  0  0
    0.9500   -6.4627    1.9876 O   0  0  0  0  0  0  0  0  0  0  0  0
    1.0357   -5.7492    3.8041 O   0  0  0  0  0  0  0  0  0  0  0  0
    1.5173  -11.4041    3.3182 C   0  0  0  0  0  0  0  0  0  0  0  0
    0.7396  -12.3334    3.4245 O   0  0  0  0  0  0  0  0  0  0  0  0
    2.7394  -11.4808    4.1024 O   0  0  0  0  0  0  0  0  0  0  0  0
   -0.8511  -10.6459    1.6913 Cl  0  0  0  0  0  0  0  0  0  0  0  0
    1.4985   -4.4469    3.2538 C   0  0  0  0  0  0  0  0  0  0  0  0
    0.9633   -3.3531    3.7697 C   0  0  0  0  0  0  0  0  0  0  0  0
   -0.2721   -2.9797    3.5396 C   0  0  0  0  0  0  0  0  0  0  0  0
   -1.0499   -2.9221    4.5933 C   0  0  0  0  0  0  0  0  0  0  0  0
  1  2  1  0
  1  3  1  0
  4  3  1  6
  4  5  1  0
  5  6  1  0
  6  7  2  0
  6  8  1  0
  2  9  2  0
  2 10  1  0
  4 11  1  0
 11 12  2  0
 11 13  1  0
  5 14  1  6
 10 15  1  0
 15 16  1  0
 16 17  1  0
 17 18  1  0
M  END

$$$$
No_389-/export/home/yangzhenyu/potential_scad_32_flow//YTHDC2/2024-12-06-03-22-00/
     RDKit          3D

 18 19  0  0  1  0  0  0  0  0999 V2000
    1.1787   -8.0297    3.5154 O   0  0  0  0  0  0  0  0  0  0  0  0
    0.6747   -7.4019    2.7838 C   0  0  0  0  0  0  0  0  0  0  0  0
    0.7594   -8.0032    1.4295 C   0  0  1  0  0  0  0  0  0  0  0  0
    1.4743   -7.4398    0.6034 C   0  0  0  0  0  0  0  0  0  0  0  0
    2.0533   -8.5664   -0.2689 C   0  0  0  0  0  0  0  0  0  0  0  0
    2.5327   -9.6761    0.3115 C   0  0  0  0  0  0  0  0  0  0  0  0
    1.5590  -10.2775    1.2977 C   0  0  0  0  0  0  0  0  0  0  0  0
    0.9662   -9.3106    2.1421 C   0  0  0  0  0  0  0  0  0  0  0  0
    1.6190  -11.6007    1.4875 C   0  0  0  0  0  0  0  0  0  0  0  0
    0.7327  -12.2943    1.9507 C   0  0  0  0  0  0  0  0  0  0  0  0
   -0.2584  -11.5643    2.7023 C   0  0  0  0  0  0  0  0  0  0  0  0
   -0.0941  -10.1442    2.8449 C   0  0  0  0  0  0  0  0  0  0  0  0
    0.1703   -6.2286    2.9420 O   0  0  0  0  0  0  0  0  0  0  0  0
    0.6884  -13.6504    2.1610 C   0  0  2  0  0  0  0  0  0  0  0  0
   -0.2478  -14.3970    1.5522 N   0  0  0  0  0  0  0  0  0  0  0  0
    1.4721  -14.3357    3.0855 C   0  0  0  0  0  0  0  0  0  0  0  0
    1.2524  -15.7455    3.2656 O   0  0  0  0  0  0  0  0  0  0  0  0
    0.2042  -14.6784    0.1278 C   0  0  0  0  0  0  0  0  0  0  0  0
  1  2  1  0
  3  2  1  1
  3  4  1  0
  4  5  1  0
  5  6  1  0
  6  7  1  0
  3  8  1  0
  2 13  2  0
 10 14  1  0
 14 15  1  1
 14 16  1  0
 16 17  2  0
 15 18  1  0
  7  8  2  0
  8 12  1  0
 11 12  2  0
 10 11  1  0
  9 10  2  0
  7  9  1  0
M  END

$$$$
No_390-/export/home/yangzhenyu/potential_scad_32_flow//YTHDC2/2024-12-06-03-22-00/
     RDKit          3D

 18 19  0  0  1  0  0  0  0  0999 V2000
    1.1787   -8.0297    3.5154 C   0  0  0  0  0  0  0  0  0  0  0  0
    1.1048   -9.2215    3.2892 C   0  0  0  0  0  0  0  0  0  0  0  0
    1.3627  -10.1721    4.3044 C   0  0  0  0  0  0  0  0  0  0  0  0
    2.3720  -10.8948    4.2468 C   0  0  0  0  0  0  0  0  0  0  0  0
    2.9262  -11.1926    3.1170 C   0  0  0  0  0  0  0  0  0  0  0  0
    2.5807  -10.4593    1.9550 C   0  0  0  0  0  0  0  0  0  0  0  0
    1.7065   -9.4353    2.0233 C   0  0  0  0  0  0  0  0  0  0  0  0
    1.3623   -8.6610    1.0017 C   0  0  0  0  0  0  0  0  0  0  0  0
    1.8834   -8.8592   -0.1868 O   0  0  0  0  0  0  0  0  0  0  0  0
    0.4166   -7.6812    1.0173 N   0  0  0  0  0  0  0  0  0  0  0  0
    1.0695   -6.8011    2.9744 I   0  0  0  0  0  0  0  0  0  0  0  0
   -0.5794   -7.8514    0.1092 C   0  0  2  0  0  0  0  0  0  0  0  0
   -0.9050   -9.0354   -0.5244 C   0  0  0  0  0  0  0  0  0  0  0  0
   -2.1136   -9.0250   -1.0730 O   0  0  0  0  0  0  0  0  0  0  0  0
   -1.0330   -6.7370   -0.5501 C   0  0  0  0  0  0  0  0  0  0  0  0
   -2.2314   -6.7590   -1.1565 C   0  0  0  0  0  0  0  0  0  0  0  0
   -2.7130   -5.6134   -1.7310 C   0  0  0  0  0  0  0  0  0  0  0  0
   -2.5741   -8.0159   -1.6666 C   0  0  0  0  0  0  0  0  0  0  0  0
  1  2  1  0
  7  8  1  0
  8  9  2  0
  8 10  1  0
  1 11  1  0
 12 10  1  6
 12 13  1  0
 13 14  1  0
 12 15  1  0
 15 16  1  0
 16 17  2  0
 14 18  1  0
 16 18  1  0
  2  3  2  0
  3  4  1  0
  4  5  2  0
  5  6  1  0
  6  7  2  0
  2  7  1  0
M  END

$$$$
No_391-/export/home/yangzhenyu/potential_scad_32_flow//YTHDC2/2024-12-06-03-22-00/
     RDKit          3D

 18 18  0  0  1  0  0  0  0  0999 V2000
    1.1787   -8.0297    3.5154 F   0  0  0  0  0  0  0  0  0  0  0  0
    0.5289   -7.6579    2.7015 C   0  0  2  0  0  0  0  0  0  0  0  0
    0.4653   -6.2883    2.5618 O   0  0  0  0  0  0  0  0  0  0  0  0
   -0.1461   -8.4374    2.0450 C   0  0  0  0  0  0  0  0  0  0  0  0
   -0.2053   -9.6626    2.4912 C   0  0  0  0  0  0  0  0  0  0  0  0
   -0.0537  -10.1064    3.6452 C   0  0  0  0  0  0  0  0  0  0  0  0
   -0.9720   -9.6042    4.6415 I   0  0  0  0  0  0  0  0  0  0  0  0
    1.4350   -5.3618    2.9338 C   0  0  0  0  0  0  0  0  0  0  0  0
   -0.4461  -10.7781    1.2858 C   0  0  0  0  0  0  0  0  0  0  0  0
   -1.2866  -10.5848    0.4098 C   0  0  0  0  0  0  0  0  0  0  0  0
   -2.1409   -9.4249    0.3145 C   0  0  0  0  0  0  0  0  0  0  0  0
   -1.9935   -8.6128   -0.8155 C   0  0  0  0  0  0  0  0  0  0  0  0
   -2.6049   -7.3959   -0.8985 C   0  0  0  0  0  0  0  0  0  0  0  0
   -3.4395   -6.9823   -0.0527 C   0  0  0  0  0  0  0  0  0  0  0  0
   -3.6281   -7.7627    1.1234 C   0  0  0  0  0  0  0  0  0  0  0  0
   -2.9590   -8.9533    1.2746 C   0  0  0  0  0  0  0  0  0  0  0  0
   -0.9586   -9.0712   -1.9957 C   0  0  0  0  0  0  0  0  0  0  0  0
    0.1731   -9.0083   -1.8095 O   0  0  0  0  0  0  0  0  0  0  0  0
  2  1  1  1
  2  3  1  0
  2  4  1  0
  4  5  2  3
  5  6  1  0
  6  7  1  0
  3  8  1  0
  5  9  1  0
  9 10  2  3
 10 11  1  0
 12 17  1  0
 17 18  1  0
 11 12  2  0
 12 13  1  0
 13 14  2  0
 14 15  1  0
 15 16  2  0
 11 16  1  0
M  END

$$$$
No_392-/export/home/yangzhenyu/potential_scad_32_flow//YTHDC2/2024-12-06-03-22-00/
     RDKit          3D

 19 19  0  0  1  0  0  0  0  0999 V2000
    1.1787   -8.0297    3.5154 C   0  0  0  0  0  0  0  0  0  0  0  0
    1.0491   -6.8434    2.9820 N   0  0  0  0  0  0  0  0  0  0  0  0
    1.0164   -9.0814    2.6596 C   0  0  0  0  0  0  0  0  0  0  0  0
    0.8420   -8.8183    1.4191 C   0  0  1  0  0  0  0  0  0  0  0  0
    0.8845   -7.3142    1.0994 C   0  0  0  0  0  0  0  0  0  0  0  0
    1.4591   -5.7767    4.0249 C   0  0  0  0  0  0  0  0  0  0  0  0
    1.1096   -6.4261    1.8605 C   0  0  0  0  0  0  0  0  0  0  0  0
    1.1262   -5.1555    1.4902 O   0  0  0  0  0  0  0  0  0  0  0  0
    1.0685  -10.5198    3.0288 C   0  0  0  0  0  0  0  0  0  0  0  0
    1.2988  -11.4021    2.3862 C   0  0  0  0  0  0  0  0  0  0  0  0
    1.4371  -12.8130    2.7502 C   0  0  0  0  0  0  0  0  0  0  0  0
    0.7354  -13.4473    3.4797 N   0  0  0  0  0  0  0  0  0  0  0  0
    1.6481  -13.7800    1.5619 O   0  0  0  0  0  0  0  0  0  0  0  0
    0.7926   -9.8145    0.1560 N   0  0  0  0  0  0  0  0  0  0  0  0
   -0.2940  -10.1174   -0.1747 C   0  0  2  0  0  0  0  0  0  0  0  0
   -0.8406  -11.3092    0.0076 C   0  0  0  0  0  0  0  0  0  0  0  0
   -0.4180   -9.7489   -1.6144 C   0  0  0  0  0  0  0  0  0  0  0  0
   -0.9751   -8.8621   -1.9498 O   0  0  0  0  0  0  0  0  0  0  0  0
    0.1680  -10.4937   -2.5490 O   0  0  0  0  0  0  0  0  0  0  0  0
  1  2  1  0
  3  4  1  0
  2  6  1  0
  2  7  1  0
  5  7  1  0
  7  8  2  0
  3  9  1  0
  9 10  2  3
 10 11  1  0
 11 12  1  0
 11 13  2  0
  4 14  1  6
 14 15  1  0
 15 16  1  6
 15 17  1  0
 17 18  2  0
 17 19  1  0
  1  3  1  0
  4  5  1  0
M  END

$$$$
No_393-/export/home/yangzhenyu/potential_scad_32_flow//YTHDC2/2024-12-06-03-22-00/
     RDKit          3D

 18 17  0  0  1  0  0  0  0  0999 V2000
    1.1787   -8.0297    3.5154 C   0  0  0  0  0  0  0  0  0  0  0  0
    1.1048   -9.2215    3.2892 O   0  0  0  0  0  0  0  0  0  0  0  0
    1.3935  -10.1059    4.2463 C   0  0  0  0  0  0  0  0  0  0  0  0
    0.9139  -11.3959    4.1070 C   0  0  0  0  0  0  0  0  0  0  0  0
    0.9320  -11.9694    2.8626 C   0  0  1  0  0  0  0  0  0  0  0  0
    1.4524  -13.3218    2.8804 C   0  0  0  0  0  0  0  0  0  0  0  0
    0.7758  -14.3321    3.1211 C   0  0  0  0  0  0  0  0  0  0  0  0
    0.8263  -15.3601    2.0776 C   0  0  0  0  0  0  0  0  0  0  0  0
    0.9745   -7.1925    2.2427 C   0  0  0  0  0  0  0  0  0  0  0  0
    1.2756   -7.6907    1.1149 O   0  0  0  0  0  0  0  0  0  0  0  0
    0.7157   -5.8752    2.5016 O   0  0  0  0  0  0  0  0  0  0  0  0
    1.3884  -15.1277    1.1109 O   0  0  0  0  0  0  0  0  0  0  0  0
    0.4824  -16.6068    2.3850 O   0  0  0  0  0  0  0  0  0  0  0  0
   -0.4316  -12.1187    2.2596 C   0  0  0  0  0  0  0  0  0  0  0  0
   -1.5684  -12.0090    2.7690 O   0  0  0  0  0  0  0  0  0  0  0  0
   -0.3768  -11.5623    0.8460 O   0  0  0  0  0  0  0  0  0  0  0  0
   -0.9137  -10.4863    0.3245 C   0  0  0  0  0  0  0  0  0  0  0  0
   -1.0175  -10.4243   -0.8920 C   0  0  0  0  0  0  0  0  0  0  0  0
  1  2  1  0
  2  3  1  0
  3  4  1  0
  5  4  1  1
  5  6  1  0
  6  7  1  0
  7  8  1  0
  1  9  1  0
  9 10  1  0
  9 11  2  0
  8 12  1  0
  8 13  2  0
  5 14  1  0
 14 15  2  0
 14 16  1  0
 16 17  1  0
 17 18  1  0
M  END

$$$$
No_394-/export/home/yangzhenyu/potential_scad_32_flow//YTHDC2/2024-12-06-03-22-00/
     RDKit          3D

 19 19  0  0  1  0  0  0  0  0999 V2000
    1.1787   -8.0297    3.5154 C   0  0  0  0  0  0  0  0  0  0  0  0
    1.1048   -9.2215    3.2892 I   0  0  0  0  0  0  0  0  0  0  0  0
    1.1124   -6.9895    2.3398 C   0  0  0  0  0  0  0  0  0  0  0  0
    1.4109   -7.6951    1.2164 C   0  0  0  0  0  0  0  0  0  0  0  0
    1.0281   -5.5889    2.4997 C   0  0  0  0  0  0  0  0  0  0  0  0
    0.9899   -4.8025    1.4522 C   0  0  0  0  0  0  0  0  0  0  0  0
    1.4289   -6.7790    0.0196 C   0  0  0  0  0  0  0  0  0  0  0  0
    1.1728   -5.3565    0.2901 C   0  0  0  0  0  0  0  0  0  0  0  0
    0.7687   -3.3852    1.7402 Cl  0  0  0  0  0  0  0  0  0  0  0  0
    1.7384   -8.8624    0.8392 C   0  0  2  0  0  0  0  0  0  0  0  0
    3.0278   -9.2913    0.6712 C   0  0  0  0  0  0  0  0  0  0  0  0
    0.8422   -9.7111    0.2329 C   0  0  0  0  0  0  0  0  0  0  0  0
   -0.1784  -10.0095    0.6721 O   0  0  0  0  0  0  0  0  0  0  0  0
    1.0895  -10.2734   -0.9448 O   0  0  0  0  0  0  0  0  0  0  0  0
    3.4073   -9.9449    1.7529 N   0  0  0  0  0  0  0  0  0  0  0  0
    3.7934   -9.0782   -0.1821 O   0  0  0  0  0  0  0  0  0  0  0  0
    0.8598   -5.1523    3.9900 I   0  0  0  0  0  0  0  0  0  0  0  0
    0.1453   -9.8011   -1.8926 C   0  0  0  0  0  0  0  0  0  0  0  0
    0.2266   -8.6206   -2.5920 C   0  0  0  0  0  0  0  0  0  0  0  0
  1  2  1  0
  1  3  1  0
  6  9  1  0
  4 10  1  0
 10 11  1  6
 10 12  1  0
 12 13  2  0
 12 14  1  0
 11 15  1  0
 11 16  2  0
  5 17  1  0
 14 18  1  0
 18 19  1  0
  3  4  2  0
  4  7  1  0
  7  8  2  0
  6  8  1  0
  5  6  2  0
  3  5  1  0
M  END

$$$$
No_395-/export/home/yangzhenyu/potential_scad_32_flow//YTHDC2/2024-12-06-03-22-00/
     RDKit          3D

 20 20  0  0  0  0  0  0  0  0999 V2000
    1.1787   -8.0297    3.5154 C   0  0  0  0  0  0  0  0  0  0  0  0
    1.1048   -9.2215    3.2892 C   0  0  0  0  0  0  0  0  0  0  0  0
    1.3627  -10.1721    4.3044 C   0  0  0  0  0  0  0  0  0  0  0  0
    1.7354  -11.4730    3.9023 C   0  0  0  0  0  0  0  0  0  0  0  0
    1.8080  -11.8127    2.7216 C   0  0  0  0  0  0  0  0  0  0  0  0
    1.5854  -11.0021    1.7249 C   0  0  0  0  0  0  0  0  0  0  0  0
    1.3573   -9.7389    1.9287 C   0  0  0  0  0  0  0  0  0  0  0  0
    1.1102   -8.8712    0.9017 C   0  0  0  0  0  0  0  0  0  0  0  0
    1.5724   -9.1697   -0.3048 C   0  0  0  0  0  0  0  0  0  0  0  0
    2.5692  -10.0138   -0.6172 O   0  0  0  0  0  0  0  0  0  0  0  0
    1.1234   -8.5849   -1.4299 O   0  0  0  0  0  0  0  0  0  0  0  0
    2.1117  -13.4478    2.3920 O   0  0  0  0  0  0  0  0  0  0  0  0
    0.1295   -7.2100    3.3372 I   0  0  0  0  0  0  0  0  0  0  0  0
    2.1362  -13.8527    1.2491 C   0  0  0  0  0  0  0  0  0  0  0  0
    0.9943  -13.9666    0.6272 C   0  0  0  0  0  0  0  0  0  0  0  0
    0.3119  -15.0125    0.9102 C   0  0  0  0  0  0  0  0  0  0  0  0
    0.9679  -16.0722    1.3404 C   0  0  0  0  0  0  0  0  0  0  0  0
    1.7739  -16.6861    1.0527 C   0  0  0  0  0  0  0  0  0  0  0  0
    2.4171  -17.7771    1.8490 C   0  0  0  0  0  0  0  0  0  0  0  0
    1.7660  -18.0566    3.0325 C   0  0  0  0  0  0  0  0  0  0  0  0
  1  2  1  0
  7  8  1  0
  8  9  2  3
  9 10  1  0
  9 11  1  0
  5 12  1  0
  1 13  1  0
 12 14  1  0
 14 15  1  0
 15 16  1  0
 16 17  1  0
 17 18  2  3
 18 19  1  0
 19 20  2  0
  2  3  2  0
  3  4  1  0
  4  5  2  0
  5  6  1  0
  6  7  2  0
  2  7  1  0
M  END

$$$$
No_396-/export/home/yangzhenyu/potential_scad_32_flow//YTHDC2/2024-12-06-03-22-00/
     RDKit          3D

 17 16  0  0  1  0  0  0  0  0999 V2000
    1.1787   -8.0297    3.5154 F   0  0  0  0  0  0  0  0  0  0  0  0
    0.5289   -7.6579    2.7015 C   0  0  2  0  0  0  0  0  0  0  0  0
   -0.0336   -8.5744    1.9903 O   0  0  0  0  0  0  0  0  0  0  0  0
    1.1356   -6.5852    1.8637 C   0  0  0  0  0  0  0  0  0  0  0  0
    0.3204   -5.8655    1.0631 O   0  0  0  0  0  0  0  0  0  0  0  0
    0.6924   -9.2853    1.1537 C   0  0  1  0  0  0  0  0  0  0  0  0
    1.5891  -10.0052    1.4291 C   0  0  0  0  0  0  0  0  0  0  0  0
    2.4569  -10.5024    0.5505 C   0  0  0  0  0  0  0  0  0  0  0  0
    0.2994   -9.5228   -0.2794 C   0  0  0  0  0  0  0  0  0  0  0  0
   -0.8935   -8.6214   -0.6202 C   0  0  0  0  0  0  0  0  0  0  0  0
   -1.6771   -8.2313   -0.0918 C   0  0  0  0  0  0  0  0  0  0  0  0
   -2.5056   -9.0642    0.6420 C   0  0  0  0  0  0  0  0  0  0  0  0
   -0.6500   -8.4212   -2.1084 C   0  0  0  0  0  0  0  0  0  0  0  0
   -0.4108   -9.1586   -2.8824 O   0  0  0  0  0  0  0  0  0  0  0  0
   -1.0868   -7.1322   -2.5930 O   0  0  0  0  0  0  0  0  0  0  0  0
    1.7572  -10.6465    2.7984 O   0  0  0  0  0  0  0  0  0  0  0  0
    0.8937  -11.4903    3.2421 C   0  0  0  0  0  0  0  0  0  0  0  0
  2  1  1  6
  2  3  1  0
  2  4  1  0
  4  5  1  0
  3  6  1  0
  6  7  1  0
  7  8  2  0
  6  9  1  1
  9 10  1  0
 10 11  1  0
 11 12  2  0
 10 13  1  0
 13 14  2  0
 13 15  1  0
  7 16  1  0
 16 17  1  0
M  END

$$$$
No_397-/export/home/yangzhenyu/potential_scad_32_flow//YTHDC2/2024-12-06-03-22-00/
     RDKit          3D

 19 19  0  0  1  0  0  0  0  0999 V2000
    1.1787   -8.0297    3.5154 C   0  0  2  0  0  0  0  0  0  0  0  0
    1.0491   -6.8434    2.9820 C   0  0  0  0  0  0  0  0  0  0  0  0
    1.9985   -8.9840    2.8958 C   0  0  2  0  0  0  0  0  0  0  0  0
    1.7297   -9.2108    1.6335 C   0  0  1  0  0  0  0  0  0  0  0  0
    1.7343   -8.0566    0.8408 C   0  0  0  0  0  0  0  0  0  0  0  0
    1.0269   -6.8892    1.4456 C   0  0  0  0  0  0  0  0  0  0  0  0
    2.0740   -7.9416   -0.3682 O   0  0  0  0  0  0  0  0  0  0  0  0
    1.9646  -10.3580    3.5767 C   0  0  0  0  0  0  0  0  0  0  0  0
    2.8852  -10.5868    4.4417 O   0  0  0  0  0  0  0  0  0  0  0  0
    1.0191  -11.2087    3.4651 O   0  0  0  0  0  0  0  0  0  0  0  0
    0.8381   -5.6692    3.5038 O   0  0  0  0  0  0  0  0  0  0  0  0
    2.4654  -10.2084    0.8673 C   0  0  0  0  0  0  0  0  0  0  0  0
    1.6957  -10.9442    0.0115 O   0  0  0  0  0  0  0  0  0  0  0  0
    0.8865   -5.7274    0.8733 O   0  0  0  0  0  0  0  0  0  0  0  0
    3.6489  -10.1402    0.5011 O   0  0  0  0  0  0  0  0  0  0  0  0
   -0.1240   -8.3572    3.8991 O   0  0  0  0  0  0  0  0  0  0  0  0
   -1.1354   -8.4850    4.3713 C   0  0  0  0  0  0  0  0  0  0  0  0
   -1.5639   -9.0953    5.5456 C   0  0  0  0  0  0  0  0  0  0  0  0
   -2.1518   -7.8128    3.6112 C   0  0  0  0  0  0  0  0  0  0  0  0
  1  2  1  0
  1  3  1  0
  3  4  1  0
  4  5  1  0
  2  6  1  0
  5  6  1  0
  5  7  2  0
  3  8  1  1
  8  9  1  0
  8 10  2  0
  2 11  2  0
  4 12  1  6
 12 13  2  0
  6 14  2  0
 12 15  1  0
  1 16  1  6
 16 17  1  0
 17 18  1  0
 17 19  1  0
M  END

$$$$
No_398-/export/home/yangzhenyu/potential_scad_32_flow//YTHDC2/2024-12-06-03-22-00/
     RDKit          3D

 20 21  0  0  1  0  0  0  0  0999 V2000
    1.1787   -8.0297    3.5154 C   0  0  0  0  0  0  0  0  0  0  0  0
    1.0491   -6.8434    2.9820 C   0  0  0  0  0  0  0  0  0  0  0  0
    0.0950   -8.8404    3.2292 C   0  0  0  0  0  0  0  0  0  0  0  0
   -0.9173   -8.4596    2.5152 C   0  0  0  0  0  0  0  0  0  0  0  0
   -1.0331   -7.2162    2.0653 C   0  0  0  0  0  0  0  0  0  0  0  0
   -0.0105   -6.3168    2.3081 C   0  0  0  0  0  0  0  0  0  0  0  0
    0.1465  -10.2446    3.6981 C   0  0  0  0  0  0  0  0  0  0  0  0
   -1.0337  -10.8619    3.9439 O   0  0  0  0  0  0  0  0  0  0  0  0
    1.2606  -10.8123    4.2483 N   0  0  0  0  0  0  0  0  0  0  0  0
    2.4950  -10.5628    3.9349 C   0  0  2  0  0  0  0  0  0  0  0  0
   -0.0369   -4.8543    1.7663 I   0  0  0  0  0  0  0  0  0  0  0  0
    2.8139  -10.7777    2.6111 C   0  0  0  0  0  0  0  0  0  0  0  0
    3.4869  -11.3847    4.8916 C   0  0  0  0  0  0  0  0  0  0  0  0
    3.7220  -10.5281    6.1401 N   0  0  0  0  0  0  0  0  0  0  0  0
    2.3827  -11.5804    1.7686 C   0  0  0  0  0  0  0  0  0  0  0  0
    2.2030  -12.9132    2.2201 C   0  0  0  0  0  0  0  0  0  0  0  0
    1.7830  -13.9717    1.3128 C   0  0  0  0  0  0  0  0  0  0  0  0
    1.4167  -13.5871    0.1111 C   0  0  0  0  0  0  0  0  0  0  0  0
    1.2980  -12.2532   -0.2576 C   0  0  0  0  0  0  0  0  0  0  0  0
    1.7929  -11.2859    0.5505 C   0  0  0  0  0  0  0  0  0  0  0  0
  3  7  1  0
  7  8  2  0
  7  9  1  0
  9 10  1  0
  6 11  1  0
 10 12  1  6
 10 13  1  0
 13 14  1  0
 12 15  1  0
 15 16  2  0
 16 17  1  0
 17 18  2  0
 18 19  1  0
 19 20  2  0
 15 20  1  0
  1  2  2  0
  2  6  1  0
  5  6  2  0
  4  5  1  0
  3  4  2  0
  1  3  1  0
M  END

$$$$
No_399-/export/home/yangzhenyu/potential_scad_32_flow//YTHDC2/2024-12-06-03-22-00/
     RDKit          3D

 20 19  0  0  1  0  0  0  0  0999 V2000
    1.1787   -8.0297    3.5154 C   0  0  0  0  0  0  0  0  0  0  0  0
    1.0491   -6.8434    2.9820 C   0  0  1  0  0  0  0  0  0  0  0  0
    1.9985   -8.9840    2.8958 C   0  0  0  0  0  0  0  0  0  0  0  0
    1.9135  -10.3404    3.6266 C   0  0  0  0  0  0  0  0  0  0  0  0
    1.3291  -11.3908    3.0222 C   0  0  0  0  0  0  0  0  0  0  0  0
    1.0344  -11.3281    1.7959 O   0  0  0  0  0  0  0  0  0  0  0  0
    1.2350  -12.4977    3.7160 N   0  0  0  0  0  0  0  0  0  0  0  0
    1.7497   -5.7305    3.4421 N   0  0  0  0  0  0  0  0  0  0  0  0
    0.3824   -6.5901    1.8659 C   0  0  0  0  0  0  0  0  0  0  0  0
    0.4685   -5.2888    1.3413 O   0  0  0  0  0  0  0  0  0  0  0  0
   -0.3534   -7.4508    1.1822 C   0  0  0  0  0  0  0  0  0  0  0  0
    0.5834  -13.6092    3.1320 C   0  0  0  0  0  0  0  0  0  0  0  0
    1.3696  -14.7842    2.9579 C   0  0  0  0  0  0  0  0  0  0  0  0
    2.7059  -14.6674    2.8221 O   0  0  0  0  0  0  0  0  0  0  0  0
    0.8724  -15.9600    2.8701 N   0  0  0  0  0  0  0  0  0  0  0  0
    1.5407  -17.1627    2.6212 C   0  0  0  0  0  0  0  0  0  0  0  0
   -1.2136   -7.1321    0.3998 C   0  0  0  0  0  0  0  0  0  0  0  0
   -2.2103   -6.2481    0.6147 C   0  0  0  0  0  0  0  0  0  0  0  0
   -2.4006   -5.1634   -0.1704 C   0  0  0  0  0  0  0  0  0  0  0  0
   -2.0783   -5.2880   -1.4778 C   0  0  0  0  0  0  0  0  0  0  0  0
  1  2  1  0
  1  3  1  0
  3  4  1  0
  4  5  1  0
  5  6  2  0
  5  7  1  0
  2  8  1  6
  2  9  1  0
  9 10  2  0
  9 11  1  0
  7 12  1  0
 12 13  1  0
 13 14  2  0
 13 15  1  0
 15 16  1  0
 11 17  1  0
 17 18  1  0
 18 19  2  3
 19 20  1  0
M  END

$$$$
No_400-/export/home/yangzhenyu/potential_scad_32_flow//YTHDC2/2024-12-06-03-22-00/
     RDKit          3D

 19 19  0  0  1  0  0  0  0  0999 V2000
    1.1787   -8.0297    3.5154 C   0  0  0  0  0  0  0  0  0  0  0  0
    1.0491   -6.8434    2.9820 C   0  0  0  0  0  0  0  0  0  0  0  0
    0.9905   -9.0774    2.6527 C   0  0  0  0  0  0  0  0  0  0  0  0
    0.7897   -8.9519    1.3691 C   0  0  0  0  0  0  0  0  0  0  0  0
    0.7018   -7.7198    0.7892 C   0  0  0  0  0  0  0  0  0  0  0  0
    0.8187   -6.6272    1.5449 C   0  0  0  0  0  0  0  0  0  0  0  0
    1.1111  -10.4707    3.2405 C   0  0  0  0  0  0  0  0  0  0  0  0
    1.3128  -11.5597    2.5105 N   0  0  0  0  0  0  0  0  0  0  0  0
    1.4180  -12.7646    3.1397 C   0  0  0  0  0  0  0  0  0  0  0  0
    1.3179  -13.9713    2.4807 C   0  0  1  0  0  0  0  0  0  0  0  0
    1.9009  -14.1317    1.2596 C   0  0  0  0  0  0  0  0  0  0  0  0
    2.5866  -13.0778    0.9120 C   0  0  0  0  0  0  0  0  0  0  0  0
    1.1120  -10.6064    4.5019 O   0  0  0  0  0  0  0  0  0  0  0  0
    0.7070   -5.3408    1.0266 C   0  0  0  0  0  0  0  0  0  0  0  0
    0.8389  -15.0640    3.2955 C   0  0  0  0  0  0  0  0  0  0  0  0
    1.1142  -16.4119    2.8395 O   0  0  0  0  0  0  0  0  0  0  0  0
   -0.4351   -4.8721    0.5860 C   0  0  0  0  0  0  0  0  0  0  0  0
   -0.6264   -3.5665    0.0762 O   0  0  0  0  0  0  0  0  0  0  0  0
   -1.5410   -5.5738    0.5837 O   0  0  0  0  0  0  0  0  0  0  0  0
  3  7  1  0
  7  8  1  0
  8  9  1  0
 10  9  1  1
 10 11  1  0
 11 12  1  0
  7 13  2  0
  6 14  1  0
 10 15  1  0
 15 16  2  0
 14 17  1  0
 17 18  1  0
 17 19  2  0
  1  2  2  0
  2  6  1  0
  5  6  2  0
  4  5  1  0
  3  4  2  0
  1  3  1  0
M  END

$$$$
No_401-/export/home/yangzhenyu/potential_scad_32_flow//YTHDC2/2024-12-06-03-22-00/
     RDKit          3D

 18 19  0  0  1  0  0  0  0  0999 V2000
    1.1787   -8.0297    3.5154 C   0  0  0  0  0  0  0  0  0  0  0  0
    1.0491   -6.8434    2.9820 C   0  0  1  0  0  0  0  0  0  0  0  0
    1.9985   -8.9840    2.8958 C   0  0  2  0  0  0  0  0  0  0  0  0
    1.7297   -9.2108    1.6335 C   0  0  1  0  0  0  0  0  0  0  0  0
    1.7343   -8.0566    0.8408 C   0  0  2  0  0  0  0  0  0  0  0  0
    1.0269   -6.8892    1.4456 C   0  0  0  0  0  0  0  0  0  0  0  0
    1.7596   -8.0979   -0.4723 C   0  0  0  0  0  0  0  0  0  0  0  0
    1.8128   -9.1679   -1.0978 O   0  0  0  0  0  0  0  0  0  0  0  0
    1.9529  -10.3729    3.5548 C   0  0  0  0  0  0  0  0  0  0  0  0
    1.7670  -11.4506    2.9821 C   0  0  1  0  0  0  0  0  0  0  0  0
    1.5593  -11.5364    1.5792 C   0  0  0  0  0  0  0  0  0  0  0  0
    1.7002  -10.3884    0.8474 C   0  0  0  0  0  0  0  0  0  0  0  0
    1.5400  -12.8080    1.1033 O   0  0  0  0  0  0  0  0  0  0  0  0
    1.8631  -12.7443    3.6456 C   0  0  0  0  0  0  0  0  0  0  0  0
    0.8552   -5.6321    3.4837 C   0  0  0  0  0  0  0  0  0  0  0  0
    1.2958   -4.4440    2.9259 C   0  0  0  0  0  0  0  0  0  0  0  0
    1.1779  -13.8203    3.0486 C   0  0  0  0  0  0  0  0  0  0  0  0
    1.6053  -15.1165    3.0853 O   0  0  0  0  0  0  0  0  0  0  0  0
  1  2  1  0
  3  1  1  1
  3  4  1  0
  4  5  1  0
  2  6  1  0
  5  6  1  0
  5  7  1  6
  7  8  2  0
  3  9  1  0
 10 11  1  0
  4 12  1  6
 11 12  1  0
 11 13  2  0
 10 14  1  6
  2 15  1  1
 15 16  2  0
 14 17  1  0
 17 18  1  0
  9 10  1  0
M  END

$$$$
No_402-/export/home/yangzhenyu/potential_scad_32_flow//YTHDC2/2024-12-06-03-22-00/
     RDKit          3D

 18 18  0  0  1  0  0  0  0  0999 V2000
    1.1787   -8.0297    3.5154 C   0  0  0  0  0  0  0  0  0  0  0  0
    1.0491   -6.8434    2.9820 C   0  0  0  0  0  0  0  0  0  0  0  0
    1.9985   -8.9840    2.8958 C   0  0  2  0  0  0  0  0  0  0  0  0
    1.7297   -9.2108    1.6335 C   0  0  0  0  0  0  0  0  0  0  0  0
    1.7343   -8.0566    0.8408 C   0  0  1  0  0  0  0  0  0  0  0  0
    1.0269   -6.8892    1.4456 C   0  0  0  0  0  0  0  0  0  0  0  0
    2.4114   -7.8399   -0.2028 C   0  0  0  0  0  0  0  0  0  0  0  0
    1.9539  -10.3659    3.6022 C   0  0  0  0  0  0  0  0  0  0  0  0
    2.9291  -10.5679    4.4464 N   0  0  0  0  0  0  0  0  0  0  0  0
    1.1926  -11.2974    3.3121 O   0  0  0  0  0  0  0  0  0  0  0  0
    2.3201   -8.6385   -1.2857 I   0  0  0  0  0  0  0  0  0  0  0  0
    0.9030   -5.6733    3.5511 C   0  0  0  0  0  0  0  0  0  0  0  0
    1.2336   -4.4597    2.9406 O   0  0  0  0  0  0  0  0  0  0  0  0
    3.0901  -11.8241    5.1441 N   0  0  0  0  0  0  0  0  0  0  0  0
    4.3621  -11.8753    5.4448 C   0  0  0  0  0  0  0  0  0  0  0  0
    5.2786  -10.8917    5.4400 O   0  0  0  0  0  0  0  0  0  0  0  0
    0.6155   -5.9326    0.7735 O   0  0  0  0  0  0  0  0  0  0  0  0
    1.0576   -5.6339    4.7662 O   0  0  0  0  0  0  0  0  0  0  0  0
  1  2  1  0
  1  3  1  0
  3  4  1  0
  4  5  1  0
  2  6  1  0
  5  6  1  0
  5  7  1  1
  3  8  1  1
  8  9  1  0
  8 10  2  0
  7 11  1  0
  2 12  1  0
 12 13  2  0
  9 14  1  0
 14 15  1  0
 15 16  2  0
  6 17  2  0
 12 18  1  0
M  END

$$$$
No_403-/export/home/yangzhenyu/potential_scad_32_flow//YTHDC2/2024-12-06-03-22-00/
     RDKit          3D

 19 19  0  0  1  0  0  0  0  0999 V2000
    1.1787   -8.0297    3.5154 C   0  0  0  0  0  0  0  0  0  0  0  0
    1.1048   -9.2215    3.2892 C   0  0  0  0  0  0  0  0  0  0  0  0
    1.2339   -9.7611    2.0189 C   0  0  0  0  0  0  0  0  0  0  0  0
    1.3583   -9.0036    0.9764 C   0  0  0  0  0  0  0  0  0  0  0  0
    1.5996   -7.6362    1.1311 C   0  0  0  0  0  0  0  0  0  0  0  0
    1.4830   -7.0928    2.3626 C   0  0  0  0  0  0  0  0  0  0  0  0
    1.4898   -5.7274    2.6199 C   0  0  0  0  0  0  0  0  0  0  0  0
    1.1681  -11.2222    1.8390 C   0  0  1  0  0  0  0  0  0  0  0  0
    0.7145  -11.5870    0.5424 C   0  0  0  0  0  0  0  0  0  0  0  0
   -0.1922  -10.9837   -0.0791 C   0  0  0  0  0  0  0  0  0  0  0  0
    2.2887  -11.8943    2.4259 C   0  0  0  0  0  0  0  0  0  0  0  0
    2.0044  -12.0656    3.8405 C   0  0  0  0  0  0  0  0  0  0  0  0
   -1.0730  -10.1831    0.6591 O   0  0  0  0  0  0  0  0  0  0  0  0
    1.2673   -4.8652    1.6090 O   0  0  0  0  0  0  0  0  0  0  0  0
    1.4615   -5.1636    3.8805 N   0  0  0  0  0  0  0  0  0  0  0  0
   -0.8588  -11.5328   -1.1600 O   0  0  0  0  0  0  0  0  0  0  0  0
    0.9997  -12.9996    3.9991 O   0  0  0  0  0  0  0  0  0  0  0  0
    2.9118  -11.8560    4.6961 O   0  0  0  0  0  0  0  0  0  0  0  0
   -2.0971  -11.3712   -1.3527 C   0  0  0  0  0  0  0  0  0  0  0  0
  6  7  1  0
  3  8  1  0
  8  9  1  0
  9 10  2  3
  8 11  1  6
 11 12  1  0
 10 13  1  0
  7 14  2  0
  7 15  1  0
 10 16  1  0
 12 17  2  0
 12 18  1  0
 16 19  1  0
  1  2  2  0
  2  3  1  0
  3  4  2  0
  4  5  1  0
  5  6  2  0
  1  6  1  0
M  END

$$$$
No_404-/export/home/yangzhenyu/potential_scad_32_flow//YTHDC2/2024-12-06-03-22-00/
     RDKit          3D

 17 17  0  0  1  0  0  0  0  0999 V2000
    1.1787   -8.0297    3.5154 C   0  0  0  0  0  0  0  0  0  0  0  0
    1.0491   -6.8434    2.9820 C   0  0  2  0  0  0  0  0  0  0  0  0
    1.9985   -8.9840    2.8958 C   0  0  1  0  0  0  0  0  0  0  0  0
    1.9135  -10.3404    3.6266 C   0  0  0  0  0  0  0  0  0  0  0  0
    1.3291  -11.3908    3.0222 C   0  0  1  0  0  0  0  0  0  0  0  0
    1.0344  -11.3281    1.7959 C   0  0  0  0  0  0  0  0  0  0  0  0
    0.5050   -6.6553    1.7492 F   0  0  0  0  0  0  0  0  0  0  0  0
    1.0066  -10.0487    1.1149 C   0  0  2  0  0  0  0  0  0  0  0  0
    1.5608   -8.9575    1.6430 C   0  0  0  0  0  0  0  0  0  0  0  0
    2.5530   -6.1466    2.8228 O   0  0  0  0  0  0  0  0  0  0  0  0
    1.3461  -12.5692    3.6558 C   0  0  2  0  0  0  0  0  0  0  0  0
    1.2209  -13.6610    2.7936 F   0  0  0  0  0  0  0  0  0  0  0  0
    0.3093   -9.9226   -0.1099 C   0  0  0  0  0  0  0  0  0  0  0  0
   -0.8084  -10.7353   -0.3978 C   0  0  0  0  0  0  0  0  0  0  0  0
    0.6313   -8.9564   -1.1147 O   0  0  0  0  0  0  0  0  0  0  0  0
   -0.0237  -12.6215    4.3363 Br  0  0  0  0  0  0  0  0  0  0  0  0
    0.9809  -12.3349    0.9057 O   0  0  0  0  0  0  0  0  0  0  0  0
  1  2  1  0
  3  1  1  1
  3  4  1  0
  5  4  1  6
  5  6  1  0
  2  7  1  0
  6  8  1  0
  3  9  1  0
  8  9  1  0
  2 10  1  6
  5 11  1  0
 11 12  1  6
  8 13  1  1
 13 14  2  0
 13 15  1  0
 11 16  1  0
  6 17  2  0
M  END

$$$$
No_405-/export/home/yangzhenyu/potential_scad_32_flow//YTHDC2/2024-12-06-03-22-00/
     RDKit          3D

 20 20  0  0  1  0  0  0  0  0999 V2000
    1.1787   -8.0297    3.5154 C   0  0  0  0  0  0  0  0  0  0  0  0
    1.0491   -6.8434    2.9820 P   0  0  0  0  0  0  0  0  0  0  0  0
    1.0985   -5.7885    3.7951 O   0  0  0  0  0  0  0  0  0  0  0  0
    0.8656   -6.6919    1.6269 O   0  0  0  0  0  0  0  0  0  0  0  0
    1.3467   -9.3396    2.6650 C   0  0  0  0  0  0  0  0  0  0  0  0
    1.7431  -10.6572    3.1843 C   0  0  0  0  0  0  0  0  0  0  0  0
    1.7059  -11.6996    2.3589 C   0  0  0  0  0  0  0  0  0  0  0  0
    1.5245  -11.5127    0.9755 C   0  0  0  0  0  0  0  0  0  0  0  0
    1.2162  -10.2928    0.5203 C   0  0  0  0  0  0  0  0  0  0  0  0
    1.1114   -9.1656    1.3757 C   0  0  0  0  0  0  0  0  0  0  0  0
    1.9638  -13.0079    2.8450 C   0  0  0  0  0  0  0  0  0  0  0  0
    1.2506  -14.0954    2.1091 C   0  0  1  0  0  0  0  0  0  0  0  0
    2.0129  -15.0226    1.5739 C   0  0  0  0  0  0  0  0  0  0  0  0
    3.3688  -15.1104    1.9627 N   0  0  0  0  0  0  0  0  0  0  0  0
    1.7147  -15.9122    0.7446 O   0  0  0  0  0  0  0  0  0  0  0  0
    0.2038  -14.7703    3.0212 C   0  0  0  0  0  0  0  0  0  0  0  0
   -0.5224  -15.7307    2.4162 C   0  0  0  0  0  0  0  0  0  0  0  0
   -1.5906  -15.4126    1.6646 C   0  0  0  0  0  0  0  0  0  0  0  0
   -1.6976  -15.9333    0.5049 C   0  0  0  0  0  0  0  0  0  0  0  0
   -1.7643  -15.1814   -0.6755 C   0  0  0  0  0  0  0  0  0  0  0  0
  1  2  1  0
  2  3  1  0
  2  4  2  0
  7 11  1  0
 12 11  1  1
 12 13  1  0
 13 14  1  0
 13 15  2  0
 12 16  1  0
 16 17  1  0
 17 18  1  0
 18 19  1  0
 19 20  2  0
  1  5  1  0
  5  6  2  0
  6  7  1  0
  7  8  2  0
  8  9  1  0
  9 10  2  0
  5 10  1  0
M  END

$$$$
No_406-/export/home/yangzhenyu/potential_scad_32_flow//YTHDC2/2024-12-06-03-22-00/
     RDKit          3D

 19 18  0  0  0  0  0  0  0  0999 V2000
    1.1787   -8.0297    3.5154 O   0  0  0  0  0  0  0  0  0  0  0  0
    0.9969   -8.9689    3.0048 C   0  0  0  0  0  0  0  0  0  0  0  0
    0.8148   -8.9936    1.6651 C   0  0  0  0  0  0  0  0  0  0  0  0
    1.1770  -10.1706    3.6799 N   0  0  0  0  0  0  0  0  0  0  0  0
    1.5220   -8.9928    0.8096 C   0  0  0  0  0  0  0  0  0  0  0  0
    1.4475   -8.9145   -0.6307 C   0  0  0  0  0  0  0  0  0  0  0  0
    2.4531   -8.8088   -1.4709 O   0  0  0  0  0  0  0  0  0  0  0  0
    0.3171   -9.2213   -1.1734 O   0  0  0  0  0  0  0  0  0  0  0  0
    1.0466  -11.5030    3.2484 C   0  0  0  0  0  0  0  0  0  0  0  0
   -0.2462  -12.0465    3.0506 O   0  0  0  0  0  0  0  0  0  0  0  0
    2.1407  -12.2842    3.0367 C   0  0  0  0  0  0  0  0  0  0  0  0
    1.8649  -13.6073    2.3995 C   0  0  0  0  0  0  0  0  0  0  0  0
    1.4483  -13.7195    1.1559 O   0  0  0  0  0  0  0  0  0  0  0  0
    1.9253  -14.7448    3.1126 O   0  0  0  0  0  0  0  0  0  0  0  0
   -0.6256   -9.4017    1.4058 O   0  0  0  0  0  0  0  0  0  0  0  0
   -1.5328   -8.4986    1.8650 C   0  0  0  0  0  0  0  0  0  0  0  0
   -2.4499   -8.7244    2.6457 C   0  0  0  0  0  0  0  0  0  0  0  0
   -3.3098   -7.8602    2.9771 C   0  0  0  0  0  0  0  0  0  0  0  0
   -3.2875   -6.5416    2.6014 C   0  0  0  0  0  0  0  0  0  0  0  0
  1  2  2  0
  2  3  1  0
  2  4  1  0
  3  5  2  3
  5  6  1  0
  6  7  2  0
  6  8  1  0
  4  9  1  0
  9 10  2  0
  9 11  1  0
 11 12  1  0
 12 13  1  0
 12 14  2  0
  3 15  1  0
 15 16  1  0
 16 17  1  0
 17 18  2  3
 18 19  1  0
M  END

$$$$
No_407-/export/home/yangzhenyu/potential_scad_32_flow//YTHDC2/2024-12-06-03-22-00/
     RDKit          3D

 19 18  0  0  1  0  0  0  0  0999 V2000
    1.1787   -8.0297    3.5154 O   0  0  0  0  0  0  0  0  0  0  0  0
    0.6747   -7.4019    2.7838 C   0  0  2  0  0  0  0  0  0  0  0  0
    0.7594   -8.0032    1.4295 C   0  0  0  0  0  0  0  0  0  0  0  0
    0.3459   -9.1500    1.3581 I   0  0  0  0  0  0  0  0  0  0  0  0
    1.3879   -7.0597    0.5118 C   0  0  0  0  0  0  0  0  0  0  0  0
    2.2607   -7.7637   -0.1681 C   0  0  0  0  0  0  0  0  0  0  0  0
    1.2342   -5.8744    2.9202 C   0  0  0  0  0  0  0  0  0  0  0  0
    2.2152   -5.5568    3.7202 O   0  0  0  0  0  0  0  0  0  0  0  0
    0.5693   -4.9770    2.2323 O   0  0  0  0  0  0  0  0  0  0  0  0
    3.1511   -8.7622    0.2006 C   0  0  0  0  0  0  0  0  0  0  0  0
    3.9612   -8.8272    1.2110 O   0  0  0  0  0  0  0  0  0  0  0  0
    2.7869   -9.9766   -0.4274 O   0  0  0  0  0  0  0  0  0  0  0  0
   -0.6558   -7.1428    3.2274 C   0  0  0  0  0  0  0  0  0  0  0  0
   -1.5490   -6.1725    2.6711 O   0  0  0  0  0  0  0  0  0  0  0  0
   -1.4038   -8.2290    3.7070 N   0  0  0  0  0  0  0  0  0  0  0  0
   -2.6293   -8.1836    4.2963 C   0  0  0  0  0  0  0  0  0  0  0  0
   -3.0348   -9.4747    4.7696 C   0  0  0  0  0  0  0  0  0  0  0  0
   -2.2490  -10.5775    4.3737 C   0  0  0  0  0  0  0  0  0  0  0  0
   -0.9745  -10.7560    4.6956 C   0  0  0  0  0  0  0  0  0  0  0  0
  2  1  1  1
  2  3  1  0
  3  4  1  0
  3  5  1  0
  5  6  2  3
  2  7  1  0
  7  8  1  0
  7  9  2  0
  6 10  1  0
 10 11  1  0
 10 12  2  0
  2 13  1  0
 13 14  2  0
 13 15  1  0
 15 16  1  0
 16 17  1  0
 17 18  1  0
 18 19  1  0
M  END

$$$$
No_408-/export/home/yangzhenyu/potential_scad_32_flow//YTHDC2/2024-12-06-03-22-00/
     RDKit          3D

 18 19  0  0  1  0  0  0  0  0999 V2000
    1.1787   -8.0297    3.5154 O   0  0  0  0  0  0  0  0  0  0  0  0
    0.9969   -8.9689    3.0048 C   0  0  1  0  0  0  0  0  0  0  0  0
    1.3055  -10.1056    3.6616 Cl  0  0  0  0  0  0  0  0  0  0  0  0
   -0.2155   -8.9050    2.1086 C   0  0  0  0  0  0  0  0  0  0  0  0
   -0.7296   -9.7707    1.9103 C   0  0  2  0  0  0  0  0  0  0  0  0
   -1.9084   -9.6482    0.8608 C   0  0  2  0  0  0  0  0  0  0  0  0
   -2.8132  -10.6650    0.7459 C   0  0  0  0  0  0  0  0  0  0  0  0
   -2.8297  -11.7731    1.5090 C   0  0  0  0  0  0  0  0  0  0  0  0
   -1.8143  -11.9978    2.4552 C   0  0  0  0  0  0  0  0  0  0  0  0
   -0.9020  -11.0068    2.7595 C   0  0  0  0  0  0  0  0  0  0  0  0
   -2.0292  -13.0811    3.2616 O   0  0  0  0  0  0  0  0  0  0  0  0
   -1.8703   -8.6241   -0.0107 C   0  0  0  0  0  0  0  0  0  0  0  0
   -2.5116   -7.5116    0.2296 C   0  0  0  0  0  0  0  0  0  0  0  0
   -2.5072   -6.3787   -0.7499 C   0  0  0  0  0  0  0  0  0  0  0  0
   -2.5833   -5.1331   -0.1689 C   0  0  0  0  0  0  0  0  0  0  0  0
   -2.5184   -4.9139    1.2633 C   0  0  0  0  0  0  0  0  0  0  0  0
   -2.5190   -5.9713    2.1159 C   0  0  0  0  0  0  0  0  0  0  0  0
   -2.3732   -7.2298    1.6702 C   0  0  0  0  0  0  0  0  0  0  0  0
  2  1  1  1
  2  3  1  0
  2  4  1  0
  5  6  1  0
  6  7  1  0
  8  9  1  0
  5 10  1  0
  9 10  1  0
  9 11  2  0
  6 12  1  6
  5  4  1  1
 12 13  1  0
  7  8  1  0
 13 14  2  0
 14 15  1  0
 15 16  2  0
 16 17  1  0
 17 18  2  0
 13 18  1  0
M  END

$$$$
No_409-/export/home/yangzhenyu/potential_scad_32_flow//YTHDC2/2024-12-06-03-22-00/
     RDKit          3D

 20 20  0  0  1  0  0  0  0  0999 V2000
    1.1787   -8.0297    3.5154 C   0  0  0  0  0  0  0  0  0  0  0  0
    1.0491   -6.8434    2.9820 C   0  0  0  0  0  0  0  0  0  0  0  0
    1.9985   -8.9840    2.8958 C   0  0  0  0  0  0  0  0  0  0  0  0
    1.1815  -10.1889    2.5497 C   0  0  1  0  0  0  0  0  0  0  0  0
    0.3496  -10.1352    1.6536 C   0  0  0  0  0  0  0  0  0  0  0  0
    0.7737   -9.6057    0.4354 C   0  0  0  0  0  0  0  0  0  0  0  0
   -0.1458   -9.3195   -0.5010 O   0  0  0  0  0  0  0  0  0  0  0  0
    2.0638   -9.6362   -0.1288 O   0  0  0  0  0  0  0  0  0  0  0  0
    0.2953   -6.6883    1.7947 O   0  0  0  0  0  0  0  0  0  0  0  0
    1.2818   -5.6340    3.5103 O   0  0  0  0  0  0  0  0  0  0  0  0
    2.2801  -11.4048    2.4599 C   0  0  0  0  0  0  0  0  0  0  0  0
    1.6699  -12.4761    1.7148 O   0  0  0  0  0  0  0  0  0  0  0  0
    1.2154  -13.3795    2.0240 C   0  0  0  0  0  0  0  0  0  0  0  0
    0.2943  -13.9652    1.3587 C   0  0  0  0  0  0  0  0  0  0  0  0
   -0.2703  -15.1568    1.8174 C   0  0  0  0  0  0  0  0  0  0  0  0
    0.2984  -15.7858    3.0230 C   0  0  0  0  0  0  0  0  0  0  0  0
    1.3244  -15.1356    3.6749 C   0  0  0  0  0  0  0  0  0  0  0  0
    1.8775  -13.9597    3.1393 C   0  0  0  0  0  0  0  0  0  0  0  0
   -0.2890  -16.9460    3.4073 O   0  0  0  0  0  0  0  0  0  0  0  0
    0.5296  -17.7376    4.0144 C   0  0  0  0  0  0  0  0  0  0  0  0
  1  2  1  0
  1  3  1  0
  4  3  1  6
  4  5  1  0
  5  6  1  0
  6  7  2  0
  6  8  1  0
  2  9  2  0
  2 10  1  0
  4 11  1  0
 11 12  1  0
 12 13  1  0
 16 19  1  0
 19 20  1  0
 13 14  2  0
 14 15  1  0
 15 16  2  0
 16 17  1  0
 17 18  2  0
 13 18  1  0
M  END

$$$$
No_410-/export/home/yangzhenyu/potential_scad_32_flow//YTHDC2/2024-12-06-03-22-00/
     RDKit          3D

 19 20  0  0  0  0  0  0  0  0999 V2000
    1.1787   -8.0297    3.5154 N   0  0  0  0  0  0  0  0  0  0  0  0
    1.0818   -9.0751    3.2053 C   0  0  0  0  0  0  0  0  0  0  0  0
    0.7576   -9.3725    1.9159 C   0  0  0  0  0  0  0  0  0  0  0  0
    0.7445  -10.8746    1.6491 C   0  0  0  0  0  0  0  0  0  0  0  0
    0.4267  -11.1283    0.3668 C   0  0  0  0  0  0  0  0  0  0  0  0
   -0.4331  -10.4839   -0.2801 C   0  0  0  0  0  0  0  0  0  0  0  0
   -0.6951   -9.0154    0.0775 C   0  0  0  0  0  0  0  0  0  0  0  0
   -0.1045   -8.5931    1.1754 C   0  0  0  0  0  0  0  0  0  0  0  0
   -0.0002   -7.2832    1.5122 C   0  0  0  0  0  0  0  0  0  0  0  0
    0.7093   -6.9092    2.7210 C   0  0  0  0  0  0  0  0  0  0  0  0
    1.5953  -11.6994    2.3304 C   0  0  0  0  0  0  0  0  0  0  0  0
    0.9521  -12.9312    2.8362 O   0  0  0  0  0  0  0  0  0  0  0  0
   -1.3514   -8.2329   -0.7276 C   0  0  0  0  0  0  0  0  0  0  0  0
   -2.6662   -7.9423   -0.5010 O   0  0  0  0  0  0  0  0  0  0  0  0
   -1.0210   -7.9964   -2.0280 O   0  0  0  0  0  0  0  0  0  0  0  0
    1.5145  -14.1587    2.6994 C   0  0  0  0  0  0  0  0  0  0  0  0
    0.8251   -5.5484    3.1448 F   0  0  0  0  0  0  0  0  0  0  0  0
    2.5639  -14.3683    1.9725 C   0  0  0  0  0  0  0  0  0  0  0  0
    1.0600  -15.0926    3.5238 O   0  0  0  0  0  0  0  0  0  0  0  0
  4 11  1  0
 11 12  1  0
  7 13  1  0
 13 14  2  0
 13 15  1  0
 12 16  1  0
 10 17  1  0
 16 18  1  0
 16 19  2  0
  3  4  2  0
  4  5  1  0
  5  6  2  0
  6  7  1  0
  7  8  2  0
  1  2  2  0
  2  3  1  0
  3  8  1  0
  8  9  1  0
  9 10  2  0
  1 10  1  0
M  END

$$$$
No_411-/export/home/yangzhenyu/potential_scad_32_flow//YTHDC2/2024-12-06-03-22-00/
     RDKit          3D

 19 20  0  0  1  0  0  0  0  0999 V2000
    1.1787   -8.0297    3.5154 C   0  0  2  0  0  0  0  0  0  0  0  0
    1.0491   -6.8434    2.9820 C   0  0  0  0  0  0  0  0  0  0  0  0
    1.9985   -8.9840    2.8958 C   0  0  0  0  0  0  0  0  0  0  0  0
    1.9135  -10.3404    3.6266 C   0  0  2  0  0  0  0  0  0  0  0  0
    0.9460  -10.6347    4.5748 C   0  0  1  0  0  0  0  0  0  0  0  0
   -0.0977   -9.6850    4.6652 C   0  0  0  0  0  0  0  0  0  0  0  0
   -0.0465   -8.4791    4.1040 C   0  0  0  0  0  0  0  0  0  0  0  0
    0.9518   -6.8330    1.6013 N   0  0  0  0  0  0  0  0  0  0  0  0
    0.2117   -6.4951    0.9862 C   0  0  0  0  0  0  0  0  0  0  0  0
   -0.6717   -5.3955    1.4660 C   0  0  0  0  0  0  0  0  0  0  0  0
   -0.5438   -5.1602    2.8987 C   0  0  0  0  0  0  0  0  0  0  0  0
    0.3474   -5.8614    3.5493 C   0  0  0  0  0  0  0  0  0  0  0  0
   -1.4946   -4.5271    0.7106 Cl  0  0  0  0  0  0  0  0  0  0  0  0
    0.8410  -11.8998    4.8709 O   0  0  0  0  0  0  0  0  0  0  0  0
   -1.4552   -4.1017    3.6262 Cl  0  0  0  0  0  0  0  0  0  0  0  0
    2.9719  -11.2147    3.3583 O   0  0  0  0  0  0  0  0  0  0  0  0
   -0.9945   -7.6711    4.5366 O   0  0  0  0  0  0  0  0  0  0  0  0
   -1.1640  -10.1613    5.4634 C   0  0  0  0  0  0  0  0  0  0  0  0
   -2.4264  -10.2785    4.7215 C   0  0  0  0  0  0  0  0  0  0  0  0
  1  2  1  6
  1  3  1  0
  4  5  1  0
  1  7  1  0
  6  7  1  0
 10 13  1  0
  5 14  1  6
 11 15  1  0
  4 16  1  1
  7 17  2  0
  6 18  1  0
 18 19  1  0
  3  4  1  0
  5  6  1  0
  2  8  2  0
  8  9  1  0
  9 10  2  0
 10 11  1  0
 11 12  2  0
  2 12  1  0
M  END

$$$$
No_412-/export/home/yangzhenyu/potential_scad_32_flow//YTHDC2/2024-12-06-03-22-00/
     RDKit          3D

 19 19  0  0  1  0  0  0  0  0999 V2000
    1.1787   -8.0297    3.5154 O   0  0  0  0  0  0  0  0  0  0  0  0
    0.6747   -7.4019    2.7838 C   0  0  0  0  0  0  0  0  0  0  0  0
    0.7594   -8.0032    1.4295 C   0  0  1  0  0  0  0  0  0  0  0  0
    0.3459   -9.1500    1.3581 C   0  0  0  0  0  0  0  0  0  0  0  0
    1.1876  -10.0065    2.0240 C   0  0  2  0  0  0  0  0  0  0  0  0
    1.2267   -9.5257    3.5507 C   0  0  1  0  0  0  0  0  0  0  0  0
    1.9919  -10.3918    4.3814 C   0  0  0  0  0  0  0  0  0  0  0  0
    3.2304  -10.3160    4.5861 O   0  0  0  0  0  0  0  0  0  0  0  0
    1.2826  -11.3653    4.9082 N   0  0  0  0  0  0  0  0  0  0  0  0
    0.1192   -6.9645    0.4930 C   0  0  0  0  0  0  0  0  0  0  0  0
   -1.1793   -6.7547    0.6292 C   0  0  0  0  0  0  0  0  0  0  0  0
   -1.8971   -7.4011    1.0834 O   0  0  0  0  0  0  0  0  0  0  0  0
   -1.5037   -5.3727    0.4123 O   0  0  0  0  0  0  0  0  0  0  0  0
    2.2150  -10.6361    1.6254 C   0  0  0  0  0  0  0  0  0  0  0  0
    2.0261  -11.3986    0.5350 C   0  0  0  0  0  0  0  0  0  0  0  0
    0.9972  -11.4267   -0.0661 O   0  0  0  0  0  0  0  0  0  0  0  0
    2.4443  -12.6715    0.6725 O   0  0  0  0  0  0  0  0  0  0  0  0
   -2.7413   -4.9196    0.4257 C   0  0  0  0  0  0  0  0  0  0  0  0
   -3.3574   -4.9810   -0.7362 C   0  0  0  0  0  0  0  0  0  0  0  0
  1  2  1  0
  2  3  1  0
  3  4  1  0
  4  5  1  0
  1  6  1  0
  5  6  1  0
  6  7  1  6
  7  8  2  0
  7  9  1  0
  3 10  1  6
 10 11  1  0
 11 12  2  0
 11 13  1  0
  5 14  1  6
 14 15  1  0
 15 16  2  0
 15 17  1  0
 13 18  1  0
 18 19  1  0
M  END

$$$$
No_413-/export/home/yangzhenyu/potential_scad_32_flow//YTHDC2/2024-12-06-03-22-00/
     RDKit          3D

 18 18  0  0  1  0  0  0  0  0999 V2000
    1.1787   -8.0297    3.5154 C   0  0  0  0  0  0  0  0  0  0  0  0
    1.0491   -6.8434    2.9820 C   0  0  0  0  0  0  0  0  0  0  0  0
    1.9985   -8.9840    2.8958 C   0  0  0  0  0  0  0  0  0  0  0  0
    1.9135  -10.3404    3.6266 C   0  0  0  0  0  0  0  0  0  0  0  0
    1.3291  -11.3908    3.0222 C   0  0  2  0  0  0  0  0  0  0  0  0
    1.2749  -12.5326    3.7562 C   0  0  0  0  0  0  0  0  0  0  0  0
    1.8025   -5.7637    3.3237 P   0  0  0  0  0  0  0  0  0  0  0  0
    1.0740   -4.6302    4.0170 O   0  0  0  0  0  0  0  0  0  0  0  0
    1.1256  -13.7048    3.1271 C   0  0  0  0  0  0  0  0  0  0  0  0
    1.2403  -13.7499    1.7121 C   0  0  0  0  0  0  0  0  0  0  0  0
    1.5266  -12.6383    0.9535 C   0  0  0  0  0  0  0  0  0  0  0  0
    1.5954  -11.4294    1.5913 C   0  0  0  0  0  0  0  0  0  0  0  0
    2.9068   -5.9750    4.2985 O   0  0  0  0  0  0  0  0  0  0  0  0
    1.8618  -10.3882    0.8224 O   0  0  0  0  0  0  0  0  0  0  0  0
    0.8883  -14.8925    3.7984 F   0  0  0  0  0  0  0  0  0  0  0  0
    2.3975   -5.0713    2.1294 O   0  0  0  0  0  0  0  0  0  0  0  0
    0.0823   -6.7017    1.9716 C   0  0  0  0  0  0  0  0  0  0  0  0
   -1.0948   -7.5791    2.0345 O   0  0  0  0  0  0  0  0  0  0  0  0
  1  2  1  0
  1  3  1  0
  3  4  1  0
  5  4  1  1
  5  6  1  0
  2  7  1  0
  7  8  1  0
  9 10  1  0
  5 12  1  0
 11 12  1  0
  7 13  1  0
 12 14  2  0
  9 15  1  0
  7 16  2  0
  2 17  1  0
 17 18  1  0
  6  9  1  0
 10 11  1  0
M  END

$$$$
No_414-/export/home/yangzhenyu/potential_scad_32_flow//YTHDC2/2024-12-06-03-22-00/
     RDKit          3D

 20 20  0  0  1  0  0  0  0  0999 V2000
    1.1787   -8.0297    3.5154 C   0  0  0  0  0  0  0  0  0  0  0  0
    1.0491   -6.8434    2.9820 C   0  0  1  0  0  0  0  0  0  0  0  0
    1.9985   -8.9840    2.8958 C   0  0  2  0  0  0  0  0  0  0  0  0
    1.7297   -9.2108    1.6335 C   0  0  1  0  0  0  0  0  0  0  0  0
    1.7343   -8.0566    0.8408 C   0  0  2  0  0  0  0  0  0  0  0  0
    1.0269   -6.8892    1.4456 C   0  0  0  0  0  0  0  0  0  0  0  0
    2.0740   -7.9416   -0.3682 C   0  0  0  0  0  0  0  0  0  0  0  0
    3.0714   -8.7358   -0.8759 O   0  0  0  0  0  0  0  0  0  0  0  0
    1.5652   -7.4484   -1.3109 O   0  0  0  0  0  0  0  0  0  0  0  0
    1.9433  -10.3608    3.5998 C   0  0  0  0  0  0  0  0  0  0  0  0
    3.0191  -10.6040    4.3292 O   0  0  0  0  0  0  0  0  0  0  0  0
    1.1648  -11.2996    3.4220 O   0  0  0  0  0  0  0  0  0  0  0  0
    0.3621   -5.8173    3.4260 C   0  0  0  0  0  0  0  0  0  0  0  0
    0.3012   -4.5627    2.7789 O   0  0  0  0  0  0  0  0  0  0  0  0
    2.3990  -10.2830    0.9522 C   0  0  0  0  0  0  0  0  0  0  0  0
    1.6764  -11.0759    0.1567 O   0  0  0  0  0  0  0  0  0  0  0  0
    3.4697  -10.8676    1.3113 O   0  0  0  0  0  0  0  0  0  0  0  0
   -0.1012   -5.7742    4.5139 O   0  0  0  0  0  0  0  0  0  0  0  0
    1.0337   -5.7883    0.7215 O   0  0  0  0  0  0  0  0  0  0  0  0
    0.2267  -11.0364    0.4306 C   0  0  0  0  0  0  0  0  0  0  0  0
  1  2  1  0
  1  3  1  0
  3  4  1  0
  4  5  1  0
  2  6  1  0
  5  6  1  0
  5  7  1  6
  7  8  1  0
  7  9  2  0
  3 10  1  1
 10 11  1  0
 10 12  2  0
  2 13  1  1
 13 14  2  0
  4 15  1  6
 15 16  1  0
 15 17  2  0
 13 18  1  0
  6 19  2  0
 16 20  1  0
M  END

$$$$
No_415-/export/home/yangzhenyu/potential_scad_32_flow//YTHDC2/2024-12-06-03-22-00/
     RDKit          3D

 16 16  0  0  1  0  0  0  0  0999 V2000
    1.1787   -8.0297    3.5154 C   0  0  0  0  0  0  0  0  0  0  0  0
    1.0491   -6.8434    2.9820 C   0  0  0  0  0  0  0  0  0  0  0  0
    1.9985   -8.9840    2.8958 C   0  0  2  0  0  0  0  0  0  0  0  0
    1.7297   -9.2108    1.6335 C   0  0  0  0  0  0  0  0  0  0  0  0
    1.7343   -8.0566    0.8408 C   0  0  2  0  0  0  0  0  0  0  0  0
    1.0269   -6.8892    1.4456 C   0  0  0  0  0  0  0  0  0  0  0  0
    2.0740   -7.9416   -0.3682 C   0  0  0  0  0  0  0  0  0  0  0  0
    1.3156   -7.8710   -1.3006 C   0  0  0  0  0  0  0  0  0  0  0  0
    3.5138   -8.2319   -0.7079 O   0  0  0  0  0  0  0  0  0  0  0  0
    1.9637  -10.3729    3.5728 C   0  0  0  0  0  0  0  0  0  0  0  0
    1.1538  -11.2817    3.3433 O   0  0  0  0  0  0  0  0  0  0  0  0
    3.0491  -10.6490    4.3920 P   0  0  0  0  0  0  0  0  0  0  0  0
    2.8395  -10.1091    5.7997 O   0  0  0  0  0  0  0  0  0  0  0  0
    4.5332   -9.9951    4.1883 O   0  0  0  0  0  0  0  0  0  0  0  0
    3.3437  -12.1576    4.6277 O   0  0  0  0  0  0  0  0  0  0  0  0
    1.8884  -10.3932    0.9922 O   0  0  0  0  0  0  0  0  0  0  0  0
  1  2  1  0
  1  3  1  0
  3  4  1  0
  4  5  1  0
  2  6  1  0
  5  6  1  0
  5  7  1  6
  7  8  2  0
  7  9  1  0
  3 10  1  1
 10 11  2  0
 10 12  1  0
 12 13  1  0
 12 14  2  0
 12 15  1  0
  4 16  2  0
M  END

$$$$
No_416-/export/home/yangzhenyu/potential_scad_32_flow//YTHDC2/2024-12-06-03-22-00/
     RDKit          3D

 18 17  0  0  1  0  0  0  0  0999 V2000
    1.1787   -8.0297    3.5154 C   0  0  0  0  0  0  0  0  0  0  0  0
    1.1048   -9.2215    3.2892 F   0  0  0  0  0  0  0  0  0  0  0  0
    0.0668   -7.3577    3.4997 O   0  0  0  0  0  0  0  0  0  0  0  0
    2.3260   -7.1975    3.5766 C   0  0  0  0  0  0  0  0  0  0  0  0
    1.9382   -5.8360    3.5505 N   0  0  0  0  0  0  0  0  0  0  0  0
    1.5360   -5.2075    2.3889 C   0  0  0  0  0  0  0  0  0  0  0  0
    1.2845   -3.8480    2.3756 O   0  0  0  0  0  0  0  0  0  0  0  0
    1.5546   -5.8675    1.1640 C   0  0  0  0  0  0  0  0  0  0  0  0
    2.2925   -6.8334    0.9825 C   0  0  0  0  0  0  0  0  0  0  0  0
    1.7746   -7.8153    0.1270 C   0  0  1  0  0  0  0  0  0  0  0  0
    0.4960   -8.0153   -0.2563 C   0  0  0  0  0  0  0  0  0  0  0  0
    2.6906   -8.4792   -0.8530 C   0  0  0  0  0  0  0  0  0  0  0  0
    3.5131   -8.0813   -1.3037 O   0  0  0  0  0  0  0  0  0  0  0  0
    2.5786   -9.7909   -1.0368 O   0  0  0  0  0  0  0  0  0  0  0  0
   -0.2237   -8.8419    0.6677 O   0  0  0  0  0  0  0  0  0  0  0  0
   -0.2882   -7.5393   -1.0752 O   0  0  0  0  0  0  0  0  0  0  0  0
   -1.5178   -8.8493    0.8929 C   0  0  0  0  0  0  0  0  0  0  0  0
   -2.0680   -9.6499    1.3840 C   0  0  0  0  0  0  0  0  0  0  0  0
  1  2  1  0
  1  3  2  0
  1  4  1  0
  4  5  1  0
  5  6  1  0
  6  7  2  0
  6  8  1  0
  8  9  1  0
 10  9  1  6
 10 11  1  0
 10 12  1  0
 12 13  2  0
 12 14  1  0
 11 15  1  0
 11 16  2  0
 15 17  1  0
 17 18  1  0
M  END

$$$$
No_417-/export/home/yangzhenyu/potential_scad_32_flow//YTHDC2/2024-12-06-03-22-00/
     RDKit          3D

 19 19  0  0  0  0  0  0  0  0999 V2000
    1.1787   -8.0297    3.5154 C   0  0  0  0  0  0  0  0  0  0  0  0
    1.1048   -9.2215    3.2892 C   0  0  0  0  0  0  0  0  0  0  0  0
    1.3627  -10.1721    4.3044 C   0  0  0  0  0  0  0  0  0  0  0  0
    1.0682  -11.5187    4.0618 C   0  0  0  0  0  0  0  0  0  0  0  0
    0.6332  -11.9655    2.9682 C   0  0  0  0  0  0  0  0  0  0  0  0
    0.4776  -11.1308    1.9203 C   0  0  0  0  0  0  0  0  0  0  0  0
    0.7470   -9.8274    2.0368 C   0  0  0  0  0  0  0  0  0  0  0  0
    0.5536   -7.1314    2.6860 O   0  0  0  0  0  0  0  0  0  0  0  0
    0.3433  -13.3587    2.7316 C   0  0  0  0  0  0  0  0  0  0  0  0
    1.3058  -14.3266    3.1725 C   0  0  0  0  0  0  0  0  0  0  0  0
    1.0629  -15.6866    2.9948 P   0  0  0  0  0  0  0  0  0  0  0  0
   -0.0274  -16.2334    3.9236 O   0  0  0  0  0  0  0  0  0  0  0  0
    2.2899  -16.6792    3.3904 O   0  0  0  0  0  0  0  0  0  0  0  0
    0.5782  -16.0377    1.6748 O   0  0  0  0  0  0  0  0  0  0  0  0
    2.0283   -7.4506    4.3462 N   0  0  0  0  0  0  0  0  0  0  0  0
    0.7367   -9.0427    0.9245 C   0  0  0  0  0  0  0  0  0  0  0  0
   -0.3597   -8.8168    0.2370 C   0  0  0  0  0  0  0  0  0  0  0  0
   -0.3610   -8.6250   -1.1714 C   0  0  0  0  0  0  0  0  0  0  0  0
   -1.4801   -8.5015   -1.7602 C   0  0  0  0  0  0  0  0  0  0  0  0
  1  2  1  0
  1  8  2  0
  5  9  1  0
  9 10  1  0
 10 11  1  0
 11 12  1  0
 11 13  2  0
 11 14  1  0
  1 15  1  0
  7 16  1  0
 16 17  1  0
 17 18  1  0
 18 19  2  0
  2  3  2  0
  3  4  1  0
  4  5  2  0
  5  6  1  0
  6  7  2  0
  2  7  1  0
M  END

$$$$
No_418-/export/home/yangzhenyu/potential_scad_32_flow//YTHDC2/2024-12-06-03-22-00/
     RDKit          3D

 17 17  0  0  1  0  0  0  0  0999 V2000
    1.1787   -8.0297    3.5154 O   0  0  0  0  0  0  0  0  0  0  0  0
    0.9969   -8.9689    3.0048 C   0  0  0  0  0  0  0  0  0  0  0  0
    0.9976   -8.9567    1.6341 C   0  0  0  0  0  0  0  0  0  0  0  0
    1.6062   -9.9071    0.9292 C   0  0  0  0  0  0  0  0  0  0  0  0
    2.1191  -10.9757    1.6503 C   0  0  0  0  0  0  0  0  0  0  0  0
    2.1177  -10.9891    3.0403 C   0  0  0  0  0  0  0  0  0  0  0  0
    1.5441   -9.8905    3.6897 C   0  0  0  0  0  0  0  0  0  0  0  0
    0.5010   -7.8164    1.0436 C   0  0  0  0  0  0  0  0  0  0  0  0
    1.0624   -6.6356    1.1779 P   0  0  0  0  0  0  0  0  0  0  0  0
    0.2486   -5.4576    0.8416 O   0  0  0  0  0  0  0  0  0  0  0  0
    2.1589   -6.1194   -0.0347 O   0  0  0  0  0  0  0  0  0  0  0  0
    1.9313   -6.2055    2.3814 O   0  0  0  0  0  0  0  0  0  0  0  0
    1.5883  -10.1366    5.0068 C   0  0  0  0  0  0  0  0  0  0  0  0
    0.4469  -10.2938    5.4654 O   0  0  0  0  0  0  0  0  0  0  0  0
    2.6577  -10.5075    5.6561 P   0  0  2  0  0  0  0  0  0  0  0  0
    3.1006  -11.6617    6.0247 O   0  0  0  0  0  0  0  0  0  0  0  0
    2.7047   -9.5687    7.0852 O   0  0  0  0  0  0  0  0  0  0  0  0
  1  2  1  0
  3  8  1  0
  8  9  1  0
  9 10  1  0
  9 11  2  0
  9 12  1  0
  7 13  1  0
 13 14  2  0
 13 15  1  0
 15 16  1  1
 15 17  2  0
  2  3  2  0
  3  4  1  0
  4  5  2  0
  5  6  1  0
  6  7  2  0
  2  7  1  0
M  END

$$$$
No_419-/export/home/yangzhenyu/potential_scad_32_flow//YTHDC2/2024-12-06-03-22-00/
     RDKit          3D

 20 20  0  0  1  0  0  0  0  0999 V2000
    1.1787   -8.0297    3.5154 C   0  0  0  0  0  0  0  0  0  0  0  0
    1.1048   -9.2215    3.2892 Cl  0  0  0  0  0  0  0  0  0  0  0  0
    0.2295   -7.0603    2.7853 C   0  0  0  0  0  0  0  0  0  0  0  0
    0.6531   -6.9396    1.4114 C   0  0  1  0  0  0  0  0  0  0  0  0
    1.3788   -7.7229    0.8919 C   0  0  2  0  0  0  0  0  0  0  0  0
    1.0531   -8.5661   -0.0946 C   0  0  0  0  0  0  0  0  0  0  0  0
    1.9390   -9.4400   -0.7364 C   0  0  0  0  0  0  0  0  0  0  0  0
    3.2024   -9.5381   -0.0765 C   0  0  0  0  0  0  0  0  0  0  0  0
    3.1486   -9.0246    1.2665 C   0  0  0  0  0  0  0  0  0  0  0  0
    2.4922   -8.0938    1.6569 C   0  0  0  0  0  0  0  0  0  0  0  0
   -0.1602   -8.6682   -0.6291 O   0  0  0  0  0  0  0  0  0  0  0  0
   -0.0623   -5.9075    0.9051 C   0  0  0  0  0  0  0  0  0  0  0  0
    0.3337   -4.5907    1.0566 O   0  0  0  0  0  0  0  0  0  0  0  0
   -1.1499   -5.9789    0.1636 O   0  0  0  0  0  0  0  0  0  0  0  0
   -0.2939   -3.4223    0.6436 C   0  0  0  0  0  0  0  0  0  0  0  0
   -0.0122   -2.8158   -0.3483 C   0  0  0  0  0  0  0  0  0  0  0  0
   -0.5703   -2.7697   -1.5157 C   0  0  0  0  0  0  0  0  0  0  0  0
   -1.3510   -3.7557   -1.7459 C   0  0  0  0  0  0  0  0  0  0  0  0
   -2.2125   -3.5904   -2.2716 C   0  0  0  0  0  0  0  0  0  0  0  0
   -2.5206   -2.3011   -3.1118 C   0  0  0  0  0  0  0  0  0  0  0  0
  1  2  1  0
  1  3  1  0
  4  3  1  6
  4  5  1  0
  5  6  1  0
  6  7  1  0
  7  8  1  0
  8  9  1  0
  5 10  1  1
  9 10  1  0
  6 11  2  0
  4 12  1  0
 12 13  1  0
 12 14  2  0
 13 15  1  0
 15 16  1  0
 16 17  1  0
 17 18  1  0
 18 19  2  3
 19 20  1  0
M  END

$$$$
No_420-/export/home/yangzhenyu/potential_scad_32_flow//YTHDC2/2024-12-06-03-22-00/
     RDKit          3D

 19 19  0  0  0  0  0  0  0  0999 V2000
    1.1787   -8.0297    3.5154 C   0  0  0  0  0  0  0  0  0  0  0  0
    1.1048   -9.2215    3.2892 C   0  0  0  0  0  0  0  0  0  0  0  0
    1.3627  -10.1721    4.3044 C   0  0  0  0  0  0  0  0  0  0  0  0
    1.7354  -11.4730    3.9023 C   0  0  0  0  0  0  0  0  0  0  0  0
    1.8080  -11.8127    2.7216 C   0  0  0  0  0  0  0  0  0  0  0  0
    1.5854  -11.0021    1.7249 C   0  0  0  0  0  0  0  0  0  0  0  0
    1.7689  -11.5851    0.3632 C   0  0  0  0  0  0  0  0  0  0  0  0
    1.3882   -9.6570    1.8502 C   0  0  0  0  0  0  0  0  0  0  0  0
    1.2998   -8.7744    0.9713 C   0  0  0  0  0  0  0  0  0  0  0  0
    0.3707   -7.9026    0.8553 O   0  0  0  0  0  0  0  0  0  0  0  0
    2.3225   -8.6572    0.0581 O   0  0  0  0  0  0  0  0  0  0  0  0
    2.0006  -13.1940    2.4246 C   0  0  0  0  0  0  0  0  0  0  0  0
    1.7270  -14.1367    3.3484 C   0  0  0  0  0  0  0  0  0  0  0  0
    0.4087  -14.5811    3.4187 C   0  0  0  0  0  0  0  0  0  0  0  0
    0.1625  -15.9252    3.7118 O   0  0  0  0  0  0  0  0  0  0  0  0
   -0.6083  -13.9745    2.8967 O   0  0  0  0  0  0  0  0  0  0  0  0
    2.4712   -7.3194    3.5533 O   0  0  0  0  0  0  0  0  0  0  0  0
    0.1406   -7.2959    3.7267 O   0  0  0  0  0  0  0  0  0  0  0  0
    2.6250  -13.5861    1.3386 O   0  0  0  0  0  0  0  0  0  0  0  0
  1  2  1  0
  6  7  1  0
  8  9  1  0
  9 10  1  0
  9 11  2  0
  5 12  1  0
 12 13  1  0
 13 14  1  0
 14 15  1  0
 14 16  2  0
  1 17  1  0
  1 18  2  0
 12 19  2  0
  2  3  2  0
  3  4  1  0
  4  5  2  0
  5  6  1  0
  6  8  2  0
  2  8  1  0
M  END

$$$$
No_421-/export/home/yangzhenyu/potential_scad_32_flow//YTHDC2/2024-12-06-03-22-00/
     RDKit          3D

 19 20  0  0  1  0  0  0  0  0999 V2000
    1.1787   -8.0297    3.5154 N   0  0  0  0  0  0  0  0  0  0  0  0
    0.8669   -7.0905    2.8589 C   0  0  1  0  0  0  0  0  0  0  0  0
    0.8842   -5.8387    3.2677 C   0  0  2  0  0  0  0  0  0  0  0  0
    1.2819   -9.4050    3.1259 C   0  0  2  0  0  0  0  0  0  0  0  0
    0.9982   -9.6626    1.9545 C   0  0  0  0  0  0  0  0  0  0  0  0
    0.5765   -8.7977    1.0818 C   0  0  0  0  0  0  0  0  0  0  0  0
    0.5834   -7.4551    1.4263 C   0  0  0  0  0  0  0  0  0  0  0  0
    0.3166   -9.1085   -0.2293 C   0  0  0  0  0  0  0  0  0  0  0  0
    1.0608  -11.1194    1.6133 C   0  0  0  0  0  0  0  0  0  0  0  0
    1.4849  -11.4084    0.5231 C   0  0  0  0  0  0  0  0  0  0  0  0
    0.8274  -10.4931   -0.6678 C   0  0  0  0  0  0  0  0  0  0  0  0
    0.2167   -6.4989    0.6921 O   0  0  0  0  0  0  0  0  0  0  0  0
   -0.2365   -5.0937    3.3707 F   0  0  0  0  0  0  0  0  0  0  0  0
    1.8113   -4.8182    2.6640 Br  0  0  0  0  0  0  0  0  0  0  0  0
    1.5664  -10.2942    4.2357 C   0  0  0  0  0  0  0  0  0  0  0  0
    2.9432  -10.5807    4.5516 N   0  0  0  0  0  0  0  0  0  0  0  0
    0.7032  -11.0784    4.8039 O   0  0  0  0  0  0  0  0  0  0  0  0
    3.3058  -11.5222    5.5385 C   0  0  0  0  0  0  0  0  0  0  0  0
    4.1033  -10.4246    6.4364 C   0  0  0  0  0  0  0  0  0  0  0  0
  2  1  1  6
  2  3  1  0
  1  4  1  0
  2  7  1  0
  6  7  1  0
  7 12  2  0
  3 13  1  6
  3 14  1  0
  4 15  1  1
 15 16  1  0
 15 17  2  0
 16 18  1  0
 18 19  1  0
  4  5  1  0
  5  6  2  0
  6  8  1  0
  8 11  2  0
 10 11  1  0
  9 10  2  0
  5  9  1  0
M  END

$$$$
No_422-/export/home/yangzhenyu/potential_scad_32_flow//YTHDC2/2024-12-06-03-22-00/
     RDKit          3D

 19 20  0  0  0  0  0  0  0  0999 V2000
    1.1787   -8.0297    3.5154 N   0  0  0  0  0  0  0  0  0  0  0  0
    0.8669   -7.0905    2.8589 C   0  0  0  0  0  0  0  0  0  0  0  0
    0.8842   -5.8387    3.2677 C   0  0  0  0  0  0  0  0  0  0  0  0
    1.2819   -9.4050    3.1259 C   0  0  0  0  0  0  0  0  0  0  0  0
    0.9577   -9.7285    2.0210 C   0  0  0  0  0  0  0  0  0  0  0  0
    0.5397   -8.8365    1.1063 C   0  0  0  0  0  0  0  0  0  0  0  0
    0.5474   -7.4800    1.4498 C   0  0  0  0  0  0  0  0  0  0  0  0
    0.1668   -6.5474    0.6211 C   0  0  0  0  0  0  0  0  0  0  0  0
    1.7684  -10.3713    4.2030 C   0  0  0  0  0  0  0  0  0  0  0  0
    2.9803  -10.5061    4.6071 C   0  0  0  0  0  0  0  0  0  0  0  0
    0.4831   -5.3223    0.6922 C   0  0  0  0  0  0  0  0  0  0  0  0
    0.6974   -4.8239    2.2170 C   0  0  0  0  0  0  0  0  0  0  0  0
    0.8525   -3.4116    2.6732 Br  0  0  0  0  0  0  0  0  0  0  0  0
    0.7264  -11.2685    4.7023 C   0  0  0  0  0  0  0  0  0  0  0  0
    3.3825  -11.6323    5.2986 O   0  0  0  0  0  0  0  0  0  0  0  0
   -0.5084  -10.8075    4.4935 O   0  0  0  0  0  0  0  0  0  0  0  0
    3.8184   -9.7252    4.6328 O   0  0  0  0  0  0  0  0  0  0  0  0
    0.9158  -12.4045    4.9564 O   0  0  0  0  0  0  0  0  0  0  0  0
    0.2706   -9.2587   -0.2140 C   0  0  0  0  0  0  0  0  0  0  0  0
  4  9  1  0
  9 10  1  0
 12 13  1  0
  9 14  1  0
 10 15  1  0
 14 16  1  0
 10 17  2  0
 14 18  2  0
  6 19  1  0
  1  2  2  0
  6  7  2  0
  5  6  1  0
  4  5  2  0
  1  4  1  0
  2  3  1  0
  3 12  2  0
 11 12  1  0
  8 11  2  0
  7  8  1  0
  2  7  1  0
M  END

$$$$
No_423-/export/home/yangzhenyu/potential_scad_32_flow//YTHDC2/2024-12-06-03-22-00/
     RDKit          3D

 19 20  0  0  1  0  0  0  0  0999 V2000
    1.1787   -8.0297    3.5154 O   0  0  0  0  0  0  0  0  0  0  0  0
    0.9969   -8.9689    3.0048 C   0  0  1  0  0  0  0  0  0  0  0  0
    0.9976   -8.9567    1.6341 C   0  0  2  0  0  0  0  0  0  0  0  0
    1.6062   -9.9071    0.9292 C   0  0  1  0  0  0  0  0  0  0  0  0
    2.1191  -10.9757    1.6503 C   0  0  0  0  0  0  0  0  0  0  0  0
    2.1177  -10.9891    3.0403 C   0  0  1  0  0  0  0  0  0  0  0  0
    1.5441   -9.8905    3.6897 C   0  0  0  0  0  0  0  0  0  0  0  0
    0.5010   -7.8165    1.0436 C   0  0  2  0  0  0  0  0  0  0  0  0
   -0.3627   -7.9721    0.1048 N   0  0  0  0  0  0  0  0  0  0  0  0
    1.1271   -6.5690    0.9265 O   0  0  0  0  0  0  0  0  0  0  0  0
    1.8316  -10.1101    4.9937 O   0  0  0  0  0  0  0  0  0  0  0  0
    1.9150   -6.2414    1.8850 C   0  0  0  0  0  0  0  0  0  0  0  0
    1.1011   -5.2952    2.7865 C   0  0  0  0  0  0  0  0  0  0  0  0
    1.5258   -5.3778    3.9861 O   0  0  0  0  0  0  0  0  0  0  0  0
    1.2496   -3.8916    2.3130 O   0  0  0  0  0  0  0  0  0  0  0  0
    2.6252  -12.1826    3.5462 O   0  0  0  0  0  0  0  0  0  0  0  0
    1.6205   -9.9696   -0.4083 C   0  0  0  0  0  0  0  0  0  0  0  0
    0.3070   -9.0216   -0.8800 C   0  0  0  0  0  0  0  0  0  0  0  0
   -0.0078   -9.0649   -2.1752 O   0  0  0  0  0  0  0  0  0  0  0  0
  2  1  1  1
  3  2  1  1
  4  5  1  1
  2  7  1  0
  6  7  1  0
  3  8  1  0
  8 10  1  6
  7 11  2  0
 10 12  1  0
 12 13  1  0
 13 14  1  0
 13 15  2  0
  6 16  1  6
  4 17  1  0
  9 18  1  0
 17 18  1  0
 18 19  2  0
  8  9  1  0
  3  4  1  0
  5  6  1  0
M  END

$$$$
No_424-/export/home/yangzhenyu/potential_scad_32_flow//YTHDC2/2024-12-06-03-22-00/
     RDKit          3D

 21 22  0  0  1  0  0  0  0  0999 V2000
    1.1787   -8.0297    3.5154 C   0  0  0  0  0  0  0  0  0  0  0  0
    1.1048   -9.2215    3.2892 C   0  0  0  0  0  0  0  0  0  0  0  0
    1.2339   -9.7611    2.0189 C   0  0  0  0  0  0  0  0  0  0  0  0
    1.3583   -9.0036    0.9764 C   0  0  0  0  0  0  0  0  0  0  0  0
    1.5996   -7.6362    1.1311 C   0  0  0  0  0  0  0  0  0  0  0  0
    1.4830   -7.0928    2.3626 C   0  0  0  0  0  0  0  0  0  0  0  0
    1.1008  -11.2372    1.8542 C   0  0  2  0  0  0  0  0  0  0  0  0
    1.9749  -12.0938    2.2342 C   0  0  0  0  0  0  0  0  0  0  0  0
    1.7533  -13.4231    1.8956 S   0  0  0  0  0  0  0  0  0  0  0  0
    0.4384  -13.2474    0.8964 C   0  0  1  0  0  0  0  0  0  0  0  0
    0.2719  -11.8454    0.9048 C   0  0  1  0  0  0  0  0  0  0  0  0
   -0.7520  -11.1659    0.3055 C   0  0  0  0  0  0  0  0  0  0  0  0
   -1.7845  -11.7573   -0.1831 O   0  0  0  0  0  0  0  0  0  0  0  0
   -1.0194   -9.8111    0.4661 O   0  0  0  0  0  0  0  0  0  0  0  0
    1.5118   -5.4661    2.7299 C   0  0  0  0  0  0  0  0  0  0  0  0
    1.4725   -5.1588    3.9068 N   0  0  0  0  0  0  0  0  0  0  0  0
    1.1931   -4.8399    1.6421 O   0  0  0  0  0  0  0  0  0  0  0  0
   -0.1257  -14.0387    0.1270 C   0  0  0  0  0  0  0  0  0  0  0  0
    0.0909  -14.1180   -1.2847 O   0  0  0  0  0  0  0  0  0  0  0  0
   -0.9164  -15.0076    0.5764 O   0  0  0  0  0  0  0  0  0  0  0  0
    0.8124  -10.1249    4.3645 O   0  0  0  0  0  0  0  0  0  0  0  0
  7  3  1  6
  7  8  1  0
  8  9  1  0
  9 10  1  0
  7 11  1  0
 10 11  1  0
 11 12  1  1
 12 13  2  0
 12 14  1  0
  6 15  1  0
 15 16  1  0
 15 17  2  0
 10 18  1  6
 18 19  2  0
 18 20  1  0
  2 21  1  0
  1  2  2  0
  2  3  1  0
  3  4  2  0
  4  5  1  0
  5  6  2  0
  1  6  1  0
M  END

$$$$
No_425-/export/home/yangzhenyu/potential_scad_32_flow//YTHDC2/2024-12-06-03-22-00/
     RDKit          3D

 18 18  0  0  1  0  0  0  0  0999 V2000
    1.1787   -8.0297    3.5154 C   0  0  0  0  0  0  0  0  0  0  0  0
    1.1048   -9.2215    3.2892 C   0  0  0  0  0  0  0  0  0  0  0  0
    1.3627  -10.1721    4.3044 C   0  0  0  0  0  0  0  0  0  0  0  0
    1.7354  -11.4730    3.9023 C   0  0  0  0  0  0  0  0  0  0  0  0
    1.8080  -11.8127    2.7216 C   0  0  0  0  0  0  0  0  0  0  0  0
    1.5854  -11.0021    1.7249 C   0  0  0  0  0  0  0  0  0  0  0  0
    1.3573   -9.7389    1.9287 C   0  0  0  0  0  0  0  0  0  0  0  0
    1.1102   -8.8712    0.9017 C   0  0  0  0  0  0  0  0  0  0  0  0
    1.5724   -9.1697   -0.3048 C   0  0  0  0  0  0  0  0  0  0  0  0
    1.2378   -8.2159   -1.4226 O   0  0  0  0  0  0  0  0  0  0  0  0
    2.1031  -13.4009    2.2918 P   0  0  2  0  0  0  0  0  0  0  0  0
    3.4148  -13.5809    1.5259 O   0  0  0  0  0  0  0  0  0  0  0  0
    0.8559  -13.8818    1.3689 O   0  0  0  0  0  0  0  0  0  0  0  0
    2.0779  -14.4239    3.3902 O   0  0  0  0  0  0  0  0  0  0  0  0
    2.2622   -7.1461    3.5436 O   0  0  0  0  0  0  0  0  0  0  0  0
    0.0420   -7.4829    4.0921 Cl  0  0  0  0  0  0  0  0  0  0  0  0
    2.3394  -10.0836   -0.6344 O   0  0  0  0  0  0  0  0  0  0  0  0
    1.5265  -15.7028    3.2808 C   0  0  0  0  0  0  0  0  0  0  0  0
  1  2  1  0
  7  8  1  0
  8  9  2  3
  9 10  1  0
  5 11  1  0
 11 12  1  6
 11 13  2  0
 11 14  1  0
  1 15  2  0
  1 16  1  0
  9 17  1  0
 14 18  1  0
  2  3  2  0
  3  4  1  0
  4  5  2  0
  5  6  1  0
  6  7  2  0
  2  7  1  0
M  END

$$$$
No_426-/export/home/yangzhenyu/potential_scad_32_flow//YTHDC2/2024-12-06-03-22-00/
     RDKit          3D

 20 21  0  0  0  0  0  0  0  0999 V2000
    1.1787   -8.0297    3.5154 C   0  0  0  0  0  0  0  0  0  0  0  0
    1.1048   -9.2215    3.2892 C   0  0  0  0  0  0  0  0  0  0  0  0
    1.4683  -10.2314    4.1915 C   0  0  0  0  0  0  0  0  0  0  0  0
    0.8445   -6.9865    2.5175 C   0  0  0  0  0  0  0  0  0  0  0  0
    0.3587   -7.3973    1.3953 C   0  0  0  0  0  0  0  0  0  0  0  0
    0.1901   -8.6971    1.0711 C   0  0  0  0  0  0  0  0  0  0  0  0
   -0.2481   -9.0183   -0.2764 C   0  0  0  0  0  0  0  0  0  0  0  0
    0.5381   -9.6766    1.9000 C   0  0  0  0  0  0  0  0  0  0  0  0
    2.7340  -10.5264    4.4692 C   0  0  0  0  0  0  0  0  0  0  0  0
   -0.4313  -10.2827   -0.5324 C   0  0  0  0  0  0  0  0  0  0  0  0
   -0.1392  -11.2862    0.4216 C   0  0  0  0  0  0  0  0  0  0  0  0
    0.3951  -10.9452    1.6944 C   0  0  0  0  0  0  0  0  0  0  0  0
    1.0884   -5.5502    2.8191 C   0  0  0  0  0  0  0  0  0  0  0  0
   -0.6453   -8.0919   -1.1807 Cl  0  0  0  0  0  0  0  0  0  0  0  0
    0.4454  -10.9355    4.8982 C   0  0  0  0  0  0  0  0  0  0  0  0
    3.6535  -10.5303    3.8092 O   0  0  0  0  0  0  0  0  0  0  0  0
    3.0615  -11.2524    5.6880 O   0  0  0  0  0  0  0  0  0  0  0  0
   -0.8332  -10.5636    4.7813 O   0  0  0  0  0  0  0  0  0  0  0  0
    0.6278  -12.0971    5.3340 O   0  0  0  0  0  0  0  0  0  0  0  0
    1.7793   -5.3095    3.9318 O   0  0  0  0  0  0  0  0  0  0  0  0
  2  3  1  0
  3  9  1  0
  4 13  1  0
  7 14  1  0
  3 15  1  0
  9 16  2  0
  9 17  1  0
 15 18  1  0
 15 19  2  0
 13 20  1  0
  1  2  2  0
  2  8  1  0
  5  6  1  0
  4  5  2  0
  1  4  1  0
  6  7  2  0
  7 10  1  0
 10 11  2  0
 11 12  1  0
  8 12  2  0
  6  8  1  0
M  END

$$$$
No_427-/export/home/yangzhenyu/potential_scad_32_flow//YTHDC2/2024-12-06-03-22-00/
     RDKit          3D

 19 20  0  0  1  0  0  0  0  0999 V2000
    1.1787   -8.0297    3.5154 O   0  0  0  0  0  0  0  0  0  0  0  0
    0.6747   -7.4019    2.7838 C   0  0  0  0  0  0  0  0  0  0  0  0
    0.7594   -8.0032    1.4295 C   0  0  1  0  0  0  0  0  0  0  0  0
    0.3459   -9.1500    1.3581 C   0  0  2  0  0  0  0  0  0  0  0  0
    1.1876  -10.0065    2.0240 C   0  0  0  0  0  0  0  0  0  0  0  0
    1.2267   -9.5257    3.5507 C   0  0  1  0  0  0  0  0  0  0  0  0
    1.6039  -10.3725    4.5012 C   0  0  0  0  0  0  0  0  0  0  0  0
    2.9639  -10.7957    4.5370 N   0  0  0  0  0  0  0  0  0  0  0  0
    0.1613   -6.9945    0.4957 C   0  0  0  0  0  0  0  0  0  0  0  0
   -0.3821   -7.4366   -0.5492 C   0  0  0  0  0  0  0  0  0  0  0  0
   -0.5612   -8.8410   -0.7932 C   0  0  0  0  0  0  0  0  0  0  0  0
   -0.0691   -9.7207    0.1756 C   0  0  0  0  0  0  0  0  0  0  0  0
   -1.0715   -9.3085   -1.9592 S   0  0  0  0  0  0  0  0  0  0  0  0
    0.7250  -11.0459    5.0630 N   0  0  0  0  0  0  0  0  0  0  0  0
    1.8580  -11.0521    1.8562 O   0  0  0  0  0  0  0  0  0  0  0  0
    0.7672   -6.0861    3.0090 F   0  0  0  0  0  0  0  0  0  0  0  0
   -0.1902  -11.0344   -0.0922 O   0  0  0  0  0  0  0  0  0  0  0  0
   -0.6227   -7.4126    3.4074 F   0  0  0  0  0  0  0  0  0  0  0  0
    0.9853  -11.8037    5.6779 H   0  0  0  0  0  0  0  0  0  0  0  0
  1  2  1  0
  2  3  1  0
  3  4  1  0
  4  5  1  6
  1  6  1  0
  5  6  1  0
  6  7  1  6
  7  8  1  0
  3  9  1  6
 10 11  1  0
  4 12  1  0
 11 12  1  0
 11 13  2  0
  7 14  2  0
  5 15  2  0
  2 16  1  0
 12 17  2  0
  2 18  1  0
  9 10  1  0
 14 19  1  0
M  END

$$$$
No_428-/export/home/yangzhenyu/potential_scad_32_flow//YTHDC2/2024-12-06-03-22-00/
     RDKit          3D

 17 16  0  0  1  0  0  0  0  0999 V2000
    1.1787   -8.0297    3.5154 O   0  0  0  0  0  0  0  0  0  0  0  0
    0.6747   -7.4019    2.7838 C   0  0  0  0  0  0  0  0  0  0  0  0
    0.7594   -8.0032    1.4295 C   0  0  0  0  0  0  0  0  0  0  0  0
    0.3459   -9.1500    1.3581 C   0  0  2  0  0  0  0  0  0  0  0  0
    0.9462   -9.9230    0.3351 C   0  0  0  0  0  0  0  0  0  0  0  0
    1.6884   -9.1549   -0.6693 O   0  0  0  0  0  0  0  0  0  0  0  0
    1.5531  -11.0838    0.5653 O   0  0  0  0  0  0  0  0  0  0  0  0
    0.3776   -6.2718    3.1283 O   0  0  0  0  0  0  0  0  0  0  0  0
   -1.1374   -9.1385    0.7308 C   0  0  0  0  0  0  0  0  0  0  0  0
   -1.5555   -8.4525   -0.2502 C   0  0  0  0  0  0  0  0  0  0  0  0
   -2.0110   -7.2846   -0.2339 O   0  0  0  0  0  0  0  0  0  0  0  0
   -0.9095   -8.7524   -1.5388 O   0  0  0  0  0  0  0  0  0  0  0  0
   -2.0229   -9.9510    1.4146 C   0  0  0  0  0  0  0  0  0  0  0  0
   -2.4268   -9.5500    2.7087 C   0  0  0  0  0  0  0  0  0  0  0  0
   -1.9160  -10.1648    3.7872 C   0  0  0  0  0  0  0  0  0  0  0  0
   -1.1133  -11.2900    3.5746 C   0  0  0  0  0  0  0  0  0  0  0  0
    0.2670  -11.3083    4.1837 C   0  0  0  0  0  0  0  0  0  0  0  0
  1  2  1  0
  2  3  1  0
  4  3  1  6
  4  5  1  0
  5  6  1  0
  5  7  2  0
  2  8  2  0
  4  9  1  0
  9 10  1  0
 10 11  1  0
 10 12  2  0
  9 13  1  0
 13 14  1  0
 14 15  1  0
 15 16  1  0
 16 17  2  0
M  END

$$$$
No_429-/export/home/yangzhenyu/potential_scad_32_flow//YTHDC2/2024-12-06-03-22-00/
     RDKit          3D

 19 18  0  0  0  0  0  0  0  0999 V2000
    1.1787   -8.0297    3.5154 C   0  0  0  0  0  0  0  0  0  0  0  0
    1.1048   -9.2215    3.2892 Cl  0  0  0  0  0  0  0  0  0  0  0  0
    1.1053   -7.0623    2.3233 C   0  0  0  0  0  0  0  0  0  0  0  0
    0.9916   -5.7309    2.4267 C   0  0  0  0  0  0  0  0  0  0  0  0
    0.8206   -5.0398    3.4905 C   0  0  0  0  0  0  0  0  0  0  0  0
    1.5531   -7.6202    1.0737 C   0  0  0  0  0  0  0  0  0  0  0  0
    1.2396   -3.6537    3.5258 C   0  0  0  0  0  0  0  0  0  0  0  0
    0.7819   -7.9545    0.1165 C   0  0  0  0  0  0  0  0  0  0  0  0
    1.2855   -8.6573   -1.0315 C   0  0  0  0  0  0  0  0  0  0  0  0
    0.4384   -8.9086   -1.9637 O   0  0  0  0  0  0  0  0  0  0  0  0
    2.5458   -8.9796   -1.2212 O   0  0  0  0  0  0  0  0  0  0  0  0
    1.8609   -3.0831    2.4898 C   0  0  0  0  0  0  0  0  0  0  0  0
   -0.5160   -7.6072    0.1389 O   0  0  0  0  0  0  0  0  0  0  0  0
    0.8622   -2.7558    4.6462 O   0  0  0  0  0  0  0  0  0  0  0  0
    0.1734   -1.7024    4.3949 C   0  0  0  0  0  0  0  0  0  0  0  0
   -1.0164   -1.7468    4.6563 C   0  0  0  0  0  0  0  0  0  0  0  0
   -1.5377   -3.0868    4.1619 C   0  0  0  0  0  0  0  0  0  0  0  0
   -2.3847   -3.8061    4.8815 C   0  0  0  0  0  0  0  0  0  0  0  0
   -3.0790   -4.9259    4.3500 C   0  0  0  0  0  0  0  0  0  0  0  0
  1  2  1  0
  1  3  1  0
  3  4  2  3
  4  5  1  0
  3  6  1  0
  5  7  2  3
  6  8  1  0
  8  9  1  0
  9 10  2  0
  9 11  1  0
  7 12  1  0
  8 13  2  0
  7 14  1  0
 14 15  1  0
 15 16  1  0
 16 17  1  0
 17 18  1  0
 18 19  2  0
M  END

$$$$
No_430-/export/home/yangzhenyu/potential_scad_32_flow//YTHDC2/2024-12-06-03-22-00/
     RDKit          3D

 17 18  0  0  1  0  0  0  0  0999 V2000
    1.1787   -8.0297    3.5154 O   0  0  0  0  0  0  0  0  0  0  0  0
    0.6747   -7.4019    2.7838 C   0  0  0  0  0  0  0  0  0  0  0  0
    0.7594   -8.0032    1.4295 C   0  0  1  0  0  0  0  0  0  0  0  0
    1.4743   -7.4398    0.6034 C   0  0  0  0  0  0  0  0  0  0  0  0
    1.8433   -8.4151   -0.4648 C   0  0  0  0  0  0  0  0  0  0  0  0
    1.1937   -9.5681   -0.1453 C   0  0  0  0  0  0  0  0  0  0  0  0
    0.5504   -9.4714    1.1124 C   0  0  0  0  0  0  0  0  0  0  0  0
   -0.0485  -10.2783    1.9398 C   0  0  2  0  0  0  0  0  0  0  0  0
    0.6753  -11.2752    2.4922 C   0  0  0  0  0  0  0  0  0  0  0  0
    1.7818  -11.0130    3.0418 C   0  0  0  0  0  0  0  0  0  0  0  0
    2.5366  -11.8044    3.7970 C   0  0  0  0  0  0  0  0  0  0  0  0
    1.9228  -12.9494    4.0148 C   0  0  0  0  0  0  0  0  0  0  0  0
    0.7975  -13.4506    3.3800 C   0  0  0  0  0  0  0  0  0  0  0  0
    0.1424  -12.5502    2.6144 C   0  0  0  0  0  0  0  0  0  0  0  0
    0.1263   -6.3688    2.9794 O   0  0  0  0  0  0  0  0  0  0  0  0
   -1.3603  -10.3255    1.7396 C   0  0  0  0  0  0  0  0  0  0  0  0
   -2.1713  -10.4336    2.8794 O   0  0  0  0  0  0  0  0  0  0  0  0
  1  2  1  0
  3  2  1  1
  3  4  1  0
  4  5  2  0
  5  6  1  0
  3  7  1  0
  6  7  1  0
  8  7  1  6
  8  9  1  0
  2 15  2  0
  8 16  1  0
 16 17  2  0
  9 10  2  0
 10 11  1  0
 11 12  2  0
 12 13  1  0
 13 14  2  0
  9 14  1  0
M  END

$$$$
No_431-/export/home/yangzhenyu/potential_scad_32_flow//YTHDC2/2024-12-06-03-22-00/
     RDKit          3D

 19 20  0  0  0  0  0  0  0  0999 V2000
    1.1787   -8.0297    3.5154 C   0  0  0  0  0  0  0  0  0  0  0  0
    1.0491   -6.8434    2.9820 C   0  0  0  0  0  0  0  0  0  0  0  0
    0.0950   -8.8404    3.2292 C   0  0  0  0  0  0  0  0  0  0  0  0
    0.0602  -10.1764    3.8231 C   0  0  0  0  0  0  0  0  0  0  0  0
    0.2248   -6.3830    2.0648 C   0  0  0  0  0  0  0  0  0  0  0  0
   -0.6745   -7.2322    1.6857 C   0  0  0  0  0  0  0  0  0  0  0  0
   -0.7374   -8.4992    2.1291 C   0  0  0  0  0  0  0  0  0  0  0  0
   -1.2197  -10.6611    4.0385 C   0  0  0  0  0  0  0  0  0  0  0  0
   -2.2122  -10.2766    3.1435 C   0  0  0  0  0  0  0  0  0  0  0  0
   -2.0039   -9.1685    2.3315 C   0  0  0  0  0  0  0  0  0  0  0  0
    0.2925   -5.1707    1.3181 Cl  0  0  0  0  0  0  0  0  0  0  0  0
   -3.4318  -10.9586    3.0837 O   0  0  0  0  0  0  0  0  0  0  0  0
   -3.4117  -12.2379    2.6999 C   0  0  0  0  0  0  0  0  0  0  0  0
    1.2878  -10.6973    4.7156 C   0  0  0  0  0  0  0  0  0  0  0  0
    1.5480  -12.0010    4.0654 O   0  0  0  0  0  0  0  0  0  0  0  0
    2.0102  -10.2907    5.4579 O   0  0  0  0  0  0  0  0  0  0  0  0
   -3.1761   -8.8013    1.6280 O   0  0  0  0  0  0  0  0  0  0  0  0
   -4.2692  -12.6343    2.2035 C   0  0  0  0  0  0  0  0  0  0  0  0
   -4.2882  -13.6561    1.4018 C   0  0  0  0  0  0  0  0  0  0  0  0
  5 11  1  0
  9 12  1  0
 12 13  1  0
  4 14  1  0
 14 15  2  0
 14 16  1  0
 10 17  1  0
 13 18  1  0
 18 19  2  0
  1  2  2  0
  2  5  1  0
  5  6  2  0
  6  7  1  0
  1  3  1  0
  3  4  2  0
  4  8  1  0
  8  9  2  0
  9 10  1  0
  7 10  2  0
  3  7  1  0
M  END

$$$$
No_432-/export/home/yangzhenyu/potential_scad_32_flow//YTHDC2/2024-12-06-03-22-00/
     RDKit          3D

 20 22  0  0  1  0  0  0  0  0999 V2000
    1.1787   -8.0297    3.5154 O   0  0  0  0  0  0  0  0  0  0  0  0
    0.9969   -8.9689    3.0048 C   0  0  1  0  0  0  0  0  0  0  0  0
    0.9976   -8.9567    1.6341 C   0  0  2  0  0  0  0  0  0  0  0  0
    1.6062   -9.9071    0.9292 C   0  0  0  0  0  0  0  0  0  0  0  0
    2.1191  -10.9757    1.6503 C   0  0  0  0  0  0  0  0  0  0  0  0
    2.1177  -10.9891    3.0403 C   0  0  0  0  0  0  0  0  0  0  0  0
    1.5441   -9.8905    3.6897 C   0  0  0  0  0  0  0  0  0  0  0  0
    0.4333   -7.7031    1.0153 C   0  0  1  0  0  0  0  0  0  0  0  0
    0.8525   -6.5693    1.1822 N   0  0  0  0  0  0  0  0  0  0  0  0
   -0.4800   -7.8536    0.0419 N   0  0  0  0  0  0  0  0  0  0  0  0
    1.6296  -10.1344    5.0038 O   0  0  0  0  0  0  0  0  0  0  0  0
   -1.0191   -6.7876   -0.3709 C   0  0  0  0  0  0  0  0  0  0  0  0
   -2.0086   -6.7419   -1.2907 C   0  0  0  0  0  0  0  0  0  0  0  0
   -2.4182   -5.5204   -1.7329 C   0  0  0  0  0  0  0  0  0  0  0  0
   -2.0489   -4.3861   -1.1216 C   0  0  0  0  0  0  0  0  0  0  0  0
   -1.1846   -4.3512   -0.1387 C   0  0  0  0  0  0  0  0  0  0  0  0
   -0.7084   -5.6182    0.3858 C   0  0  0  0  0  0  0  0  0  0  0  0
    0.3956   -5.5967    1.1559 C   0  0  0  0  0  0  0  0  0  0  0  0
    0.8920   -4.3661    1.7275 O   0  0  0  0  0  0  0  0  0  0  0  0
   -2.7243   -2.9084   -1.7001 O   0  0  0  0  0  0  0  0  0  0  0  0
  2  1  1  1
  2  3  1  0
  4  5  1  0
  2  7  1  0
  6  7  1  0
  3  8  1  0
  8  9  1  6
  7 11  2  0
 10 12  1  0
  9 18  1  0
 17 18  1  0
 18 19  2  0
 15 20  1  0
  8 10  1  0
  3  4  1  1
  5  6  1  0
 12 13  2  0
 13 14  1  0
 14 15  2  0
 15 16  1  0
 16 17  2  0
 12 17  1  0
M  END

$$$$
No_433-/export/home/yangzhenyu/potential_scad_32_flow//YTHDC2/2024-12-06-03-22-00/
     RDKit          3D

 19 19  0  0  0  0  0  0  0  0999 V2000
    1.1787   -8.0297    3.5154 C   0  0  0  0  0  0  0  0  0  0  0  0
    1.1048   -9.2215    3.2892 N   0  0  0  0  0  0  0  0  0  0  0  0
    1.5378  -10.1363    4.2323 C   0  0  0  0  0  0  0  0  0  0  0  0
    0.8191   -7.0289    2.5357 C   0  0  0  0  0  0  0  0  0  0  0  0
    0.3291   -7.6013    1.4499 C   0  0  0  0  0  0  0  0  0  0  0  0
    0.1648   -8.8030    1.1776 C   0  0  0  0  0  0  0  0  0  0  0  0
    0.6142   -9.7499    2.0807 C   0  0  0  0  0  0  0  0  0  0  0  0
    0.7807  -11.4726    4.2458 C   0  0  0  0  0  0  0  0  0  0  0  0
    1.5406  -12.5999    4.7709 N   0  0  0  0  0  0  0  0  0  0  0  0
   -0.3686  -11.6106    3.8476 O   0  0  0  0  0  0  0  0  0  0  0  0
   -0.1447   -6.6548    0.4159 C   0  0  0  0  0  0  0  0  0  0  0  0
   -0.3194   -5.3132    0.8480 O   0  0  0  0  0  0  0  0  0  0  0  0
   -0.5197   -6.8442   -0.6678 O   0  0  0  0  0  0  0  0  0  0  0  0
    1.1561  -13.7933    4.2496 C   0  0  0  0  0  0  0  0  0  0  0  0
    1.2892  -13.9940    2.7782 C   0  0  0  0  0  0  0  0  0  0  0  0
    0.7629  -15.1077    2.2466 C   0  0  0  0  0  0  0  0  0  0  0  0
    0.4142  -14.9629    1.0781 C   0  0  0  0  0  0  0  0  0  0  0  0
    0.2884  -16.1223    0.3185 N   0  0  0  0  0  0  0  0  0  0  0  0
    0.4809  -17.0222    0.7348 H   0  0  0  0  0  0  0  0  0  0  0  0
  1  2  1  0
  2  3  1  0
  4  5  1  0
  2  7  1  0
  6  7  1  0
  3  8  1  0
  8  9  1  0
  8 10  2  0
  5 11  1  0
 11 12  2  0
 11 13  1  0
  9 14  1  0
 14 15  1  0
 15 16  1  0
 16 17  1  0
 17 18  2  0
  1  4  1  0
  5  6  1  0
 18 19  1  0
M  END

$$$$
No_434-/export/home/yangzhenyu/potential_scad_32_flow//YTHDC2/2024-12-06-03-22-00/
     RDKit          3D

 18 18  0  0  1  0  0  0  0  0999 V2000
    1.1787   -8.0297    3.5154 O   0  0  0  0  0  0  0  0  0  0  0  0
    0.6747   -7.4019    2.7838 C   0  0  0  0  0  0  0  0  0  0  0  0
    0.7594   -8.0032    1.4295 C   0  0  2  0  0  0  0  0  0  0  0  0
    0.3459   -9.1500    1.3581 C   0  0  0  0  0  0  0  0  0  0  0  0
    1.1876  -10.0065    2.0239 C   0  0  2  0  0  0  0  0  0  0  0  0
    1.2267   -9.5257    3.5507 C   0  0  1  0  0  0  0  0  0  0  0  0
    1.9919  -10.3918    4.3814 C   0  0  0  0  0  0  0  0  0  0  0  0
    1.3664  -11.6452    4.6708 O   0  0  0  0  0  0  0  0  0  0  0  0
    3.0872  -10.2070    4.9651 O   0  0  0  0  0  0  0  0  0  0  0  0
    1.8774   -7.4286    0.7513 O   0  0  0  0  0  0  0  0  0  0  0  0
   -0.2606   -7.1725    0.6057 C   0  0  0  0  0  0  0  0  0  0  0  0
   -1.4045   -7.0784    1.0013 O   0  0  0  0  0  0  0  0  0  0  0  0
    0.0422   -6.6828   -0.5495 O   0  0  0  0  0  0  0  0  0  0  0  0
   -0.1639   -9.7953    0.2605 O   0  0  0  0  0  0  0  0  0  0  0  0
    2.3024  -10.6559    1.6460 C   0  0  0  0  0  0  0  0  0  0  0  0
    2.1203  -11.5338    0.6235 O   0  0  0  0  0  0  0  0  0  0  0  0
    0.3496   -6.2523    3.1440 O   0  0  0  0  0  0  0  0  0  0  0  0
   -1.1648   -6.0659   -1.0304 C   0  0  0  0  0  0  0  0  0  0  0  0
  1  2  1  0
  2  3  1  0
  3  4  1  0
  4  5  1  0
  1  6  1  0
  5  6  1  0
  6  7  1  6
  7  8  1  0
  7  9  2  0
  3 10  1  6
  3 11  1  0
 11 12  2  0
 11 13  1  0
  4 14  2  0
  5 15  1  6
 15 16  2  0
  2 17  2  0
 13 18  1  0
M  END

$$$$
No_435-/export/home/yangzhenyu/potential_scad_32_flow//YTHDC2/2024-12-06-03-22-00/
     RDKit          3D

 21 22  0  0  1  0  0  0  0  0999 V2000
    1.1787   -8.0297    3.5154 C   0  0  0  0  0  0  0  0  0  0  0  0
    1.0491   -6.8434    2.9820 C   0  0  0  0  0  0  0  0  0  0  0  0
    0.0950   -8.8404    3.2292 C   0  0  0  0  0  0  0  0  0  0  0  0
   -0.9173   -8.4596    2.5152 C   0  0  0  0  0  0  0  0  0  0  0  0
   -1.0331   -7.2162    2.0653 C   0  0  0  0  0  0  0  0  0  0  0  0
   -0.0105   -6.3168    2.3081 C   0  0  0  0  0  0  0  0  0  0  0  0
    0.1465  -10.2446    3.6981 C   0  0  0  0  0  0  0  0  0  0  0  0
   -1.0336  -10.8619    3.9439 C   0  0  0  0  0  0  0  0  0  0  0  0
   -2.1702  -10.4673    3.2991 C   0  0  0  0  0  0  0  0  0  0  0  0
   -2.1358   -9.2084    2.5791 C   0  0  0  0  0  0  0  0  0  0  0  0
   -0.0407   -4.9560    1.8452 C   0  0  0  0  0  0  0  0  0  0  0  0
   -0.7987   -4.0992    2.2489 O   0  0  0  0  0  0  0  0  0  0  0  0
    0.6659   -4.6123    0.7983 O   0  0  0  0  0  0  0  0  0  0  0  0
    1.3056  -10.7329    4.5355 C   0  0  0  0  0  0  0  0  0  0  0  0
    2.1920  -11.4647    3.6966 C   0  0  0  0  0  0  0  0  0  0  0  0
    1.7714  -11.9528    2.7226 C   0  0  1  0  0  0  0  0  0  0  0  0
    1.9151  -11.2659    1.3737 C   0  0  0  0  0  0  0  0  0  0  0  0
    2.7377  -10.1775    1.2674 O   0  0  0  0  0  0  0  0  0  0  0  0
    1.0059  -11.4277    0.5000 N   0  0  0  0  0  0  0  0  0  0  0  0
    2.4239  -13.3400    2.2672 C   0  0  0  0  0  0  0  0  0  0  0  0
    2.5424  -13.7853    1.0515 O   0  0  0  0  0  0  0  0  0  0  0  0
  6 11  1  0
 11 12  1  0
 11 13  2  0
  7 14  1  0
 14 15  1  0
 16 15  1  1
 16 17  1  0
 17 18  2  0
 17 19  1  0
 16 20  1  0
 20 21  2  0
  4 10  2  0
  9 10  1  0
  8  9  2  0
  7  8  1  0
  3  7  2  0
  1  2  2  0
  2  6  1  0
  5  6  2  0
  4  5  1  0
  3  4  1  0
  1  3  1  0
M  END

$$$$
No_436-/export/home/yangzhenyu/potential_scad_32_flow//YTHDC2/2024-12-06-03-22-00/
     RDKit          3D

 20 22  0  0  1  0  0  0  0  0999 V2000
    1.1787   -8.0297    3.5154 O   0  0  0  0  0  0  0  0  0  0  0  0
    0.6747   -7.4019    2.7838 C   0  0  2  0  0  0  0  0  0  0  0  0
    0.7594   -8.0032    1.4295 C   0  0  1  0  0  0  0  0  0  0  0  0
    0.3459   -9.1500    1.3581 C   0  0  0  0  0  0  0  0  0  0  0  0
    1.1876  -10.0065    2.0239 C   0  0  1  0  0  0  0  0  0  0  0  0
    1.2267   -9.5257    3.5507 C   0  0  1  0  0  0  0  0  0  0  0  0
    1.6039  -10.3725    4.5012 C   0  0  0  0  0  0  0  0  0  0  0  0
    2.1546  -11.6410    3.9991 O   0  0  0  0  0  0  0  0  0  0  0  0
    0.7573   -7.0208    0.4892 C   0  0  0  0  0  0  0  0  0  0  0  0
    0.0570   -6.3143    0.2602 C   0  0  0  0  0  0  0  0  0  0  0  0
    0.4593   -6.1332    3.0963 C   0  0  0  0  0  0  0  0  0  0  0  0
    0.3004   -5.1051    2.5427 C   0  0  0  0  0  0  0  0  0  0  0  0
   -0.0663   -4.9358    1.1080 C   0  0  0  0  0  0  0  0  0  0  0  0
   -0.4166   -3.7090    0.6706 C   0  0  0  0  0  0  0  0  0  0  0  0
   -1.6032   -3.5816   -0.0260 O   0  0  0  0  0  0  0  0  0  0  0  0
    0.4554   -2.6634    0.5295 O   0  0  0  0  0  0  0  0  0  0  0  0
    1.7055  -11.1334    1.8133 C   0  0  0  0  0  0  0  0  0  0  0  0
    2.0202  -12.0857    2.8186 C   0  0  2  0  0  0  0  0  0  0  0  0
    1.5963  -13.4332    2.8002 C   0  0  0  0  0  0  0  0  0  0  0  0
    1.3328  -14.0356    1.5937 C   0  0  0  0  0  0  0  0  0  0  0  0
  2  1  1  6
  2  3  1  0
  3  4  1  6
  5  4  1  1
  1  6  1  0
  5  6  1  0
  6  7  1  6
  7  8  1  0
  3  9  1  0
  9 10  2  0
  2 11  1  0
 11 12  2  0
 10 13  1  0
 12 13  1  0
 13 14  1  0
 14 15  2  0
 14 16  1  0
  5 17  1  0
  8 18  1  0
 17 18  1  0
 18 19  1  1
 19 20  1  0
M  END

$$$$
No_437-/export/home/yangzhenyu/potential_scad_32_flow//YTHDC2/2024-12-06-03-22-00/
     RDKit          3D

 19 19  0  0  1  0  0  0  0  0999 V2000
    1.1787   -8.0297    3.5154 C   0  0  0  0  0  0  0  0  0  0  0  0
    1.0491   -6.8434    2.9820 C   0  0  0  0  0  0  0  0  0  0  0  0
    1.0690   -9.1150    2.7206 C   0  0  0  0  0  0  0  0  0  0  0  0
    0.9689   -6.6391    1.6260 C   0  0  0  0  0  0  0  0  0  0  0  0
    0.9670   -9.0334    1.3824 C   0  0  0  0  0  0  0  0  0  0  0  0
    0.7641  -10.1483    0.4695 C   0  0  1  0  0  0  0  0  0  0  0  0
    0.8413   -7.7010    0.7982 C   0  0  0  0  0  0  0  0  0  0  0  0
   -0.3148  -10.7142    0.4500 O   0  0  0  0  0  0  0  0  0  0  0  0
    1.2299  -10.6298    3.2012 P   0  0  0  0  0  0  0  0  0  0  0  0
    1.5152  -11.6109    2.2081 O   0  0  0  0  0  0  0  0  0  0  0  0
   -0.1025  -11.0551    3.9574 O   0  0  0  0  0  0  0  0  0  0  0  0
    2.3034  -10.6181    4.4252 O   0  0  0  0  0  0  0  0  0  0  0  0
    0.9516   -5.3349    1.0391 C   0  0  0  0  0  0  0  0  0  0  0  0
   -0.2595   -4.8146    0.6532 O   0  0  0  0  0  0  0  0  0  0  0  0
    1.8212   -4.4404    1.3440 Cl  0  0  0  0  0  0  0  0  0  0  0  0
    1.6208  -10.2978   -0.5028 F   0  0  0  0  0  0  0  0  0  0  0  0
   -0.6322  -11.8535    0.1244 C   0  0  0  0  0  0  0  0  0  0  0  0
   -1.9579  -12.2499    0.2015 C   0  0  0  0  0  0  0  0  0  0  0  0
   -2.7051  -11.3915    0.1949 Cl  0  0  0  0  0  0  0  0  0  0  0  0
  5  6  1  0
  6  8  1  0
  3  9  1  0
  9 10  2  0
  9 11  1  0
  9 12  1  0
  4 13  1  0
 13 14  2  0
 13 15  1  0
  6 16  1  6
  8 17  1  0
 17 18  1  0
 18 19  1  0
  1  2  2  0
  2  4  1  0
  4  7  2  0
  5  7  1  0
  3  5  2  0
  1  3  1  0
M  END

$$$$
No_438-/export/home/yangzhenyu/potential_scad_32_flow//YTHDC2/2024-12-06-03-22-00/
     RDKit          3D

 19 19  0  0  1  0  0  0  0  0999 V2000
    1.1787   -8.0297    3.5154 N   0  0  0  0  0  0  0  0  0  0  0  0
    0.8669   -7.0905    2.8589 C   0  0  0  0  0  0  0  0  0  0  0  0
    0.8842   -5.8387    3.2677 N   0  0  0  0  0  0  0  0  0  0  0  0
    0.7046   -7.3396    1.4853 C   0  0  0  0  0  0  0  0  0  0  0  0
    1.1339   -9.2740    3.0829 C   0  0  0  0  0  0  0  0  0  0  0  0
    0.8384   -9.5970    1.8450 N   0  0  0  0  0  0  0  0  0  0  0  0
    0.5580   -8.5910    0.9796 C   0  0  0  0  0  0  0  0  0  0  0  0
    1.4913  -10.4925    3.9228 C   0  0  2  0  0  0  0  0  0  0  0  0
    2.7488  -10.7973    4.2116 C   0  0  0  0  0  0  0  0  0  0  0  0
    0.3033   -8.8253   -0.2866 C   0  0  2  0  0  0  0  0  0  0  0  0
   -0.8160   -8.3280   -0.8233 N   0  0  0  0  0  0  0  0  0  0  0  0
   -1.7275   -7.8345   -0.0183 C   0  0  0  0  0  0  0  0  0  0  0  0
   -2.1315   -6.5290   -0.2988 C   0  0  0  0  0  0  0  0  0  0  0  0
   -2.9169   -5.8691    0.7301 O   0  0  0  0  0  0  0  0  0  0  0  0
   -1.8953   -5.7858   -1.2912 O   0  0  0  0  0  0  0  0  0  0  0  0
    1.0864   -9.6705   -1.0385 C   0  0  0  0  0  0  0  0  0  0  0  0
    2.2412   -9.9269   -0.4185 O   0  0  0  0  0  0  0  0  0  0  0  0
    0.7049  -11.6703    3.5147 C   0  0  0  0  0  0  0  0  0  0  0  0
   -0.6842  -11.6349    3.5339 C   0  0  0  0  0  0  0  0  0  0  0  0
  2  3  1  0
  5  8  1  0
  8  9  1  6
  7 10  1  0
 10 11  1  0
 11 12  1  0
 12 13  1  0
 13 14  2  0
 13 15  1  0
 10 16  1  1
 16 17  1  0
  8 18  1  0
 18 19  1  0
  1  2  2  0
  2  4  1  0
  4  7  2  0
  6  7  1  0
  5  6  2  0
  1  5  1  0
M  END

$$$$
No_439-/export/home/yangzhenyu/potential_scad_32_flow//YTHDC2/2024-12-06-03-22-00/
     RDKit          3D

 19 19  0  0  0  0  0  0  0  0999 V2000
    1.1787   -8.0297    3.5154 C   0  0  0  0  0  0  0  0  0  0  0  0
    1.0491   -6.8434    2.9820 C   0  0  0  0  0  0  0  0  0  0  0  0
    1.9985   -8.9840    2.8958 C   0  0  0  0  0  0  0  0  0  0  0  0
    1.1815  -10.1889    2.5497 I   0  0  0  0  0  0  0  0  0  0  0  0
    0.5084   -6.7429    1.7431 C   0  0  0  0  0  0  0  0  0  0  0  0
   -0.4075   -5.8092    1.4443 C   0  0  0  0  0  0  0  0  0  0  0  0
   -0.4075   -4.6293    2.2602 C   0  0  0  0  0  0  0  0  0  0  0  0
    0.2835   -4.6493    3.4913 C   0  0  0  0  0  0  0  0  0  0  0  0
    1.0528   -5.7288    3.8033 C   0  0  0  0  0  0  0  0  0  0  0  0
   -1.1709   -3.5024    1.8379 O   0  0  0  0  0  0  0  0  0  0  0  0
   -0.9986   -5.7415    0.2819 C   0  0  0  0  0  0  0  0  0  0  0  0
   -1.3507   -6.8436   -0.3328 C   0  0  0  0  0  0  0  0  0  0  0  0
   -1.9382   -6.7929   -1.6362 C   0  0  0  0  0  0  0  0  0  0  0  0
   -2.1058   -8.0486   -2.2286 C   0  0  0  0  0  0  0  0  0  0  0  0
   -1.2067   -8.4875   -2.8276 C   0  0  0  0  0  0  0  0  0  0  0  0
    0.0162   -8.1955   -2.7802 C   0  0  0  0  0  0  0  0  0  0  0  0
   -1.5086   -9.7514   -3.6375 N   0  0  0  0  0  0  0  0  0  0  0  0
   -2.6072  -10.2229   -3.2150 C   0  0  0  0  0  0  0  0  0  0  0  0
   -3.2228  -11.3137   -3.6841 C   0  0  0  0  0  0  0  0  0  0  0  0
  1  2  1  0
  1  3  1  0
  3  4  1  0
  7 10  1  0
  6 11  1  0
 11 12  2  3
 12 13  1  0
 13 14  1  0
 14 15  1  0
 15 16  2  0
 15 17  1  0
 17 18  2  3
 18 19  1  0
  2  5  2  0
  5  6  1  0
  6  7  2  0
  7  8  1  0
  8  9  2  0
  2  9  1  0
M  END

$$$$
No_440-/export/home/yangzhenyu/potential_scad_32_flow//YTHDC2/2024-12-06-03-22-00/
     RDKit          3D

 17 17  0  0  0  0  0  0  0  0999 V2000
    1.1787   -8.0297    3.5154 C   0  0  0  0  0  0  0  0  0  0  0  0
    1.1048   -9.2215    3.2892 C   0  0  0  0  0  0  0  0  0  0  0  0
    1.3627  -10.1721    4.3044 C   0  0  0  0  0  0  0  0  0  0  0  0
    1.7354  -11.4730    3.9023 C   0  0  0  0  0  0  0  0  0  0  0  0
    1.8080  -11.8127    2.7216 C   0  0  0  0  0  0  0  0  0  0  0  0
    1.4028  -10.9289    1.8117 C   0  0  0  0  0  0  0  0  0  0  0  0
    1.2324   -9.6663    1.9861 C   0  0  0  0  0  0  0  0  0  0  0  0
    0.9285   -8.8287    0.9707 C   0  0  0  0  0  0  0  0  0  0  0  0
    1.3532   -9.0559   -0.2513 O   0  0  0  0  0  0  0  0  0  0  0  0
    0.6164   -7.4878    1.1236 O   0  0  0  0  0  0  0  0  0  0  0  0
    2.0075  -13.1854    2.2859 C   0  0  0  0  0  0  0  0  0  0  0  0
    1.9899  -14.2258    3.0629 N   0  0  0  0  0  0  0  0  0  0  0  0
    2.8316  -13.3522    1.1963 N   0  0  0  0  0  0  0  0  0  0  0  0
    0.1856   -7.1358    3.3181 Cl  0  0  0  0  0  0  0  0  0  0  0  0
    2.1355  -15.4613    2.4275 C   0  0  0  0  0  0  0  0  0  0  0  0
    2.7322  -15.5659    1.3803 N   0  0  0  0  0  0  0  0  0  0  0  0
    3.1834  -14.2703    0.9650 H   0  0  0  0  0  0  0  0  0  0  0  0
  1  2  1  0
  7  8  1  0
  8  9  2  0
  8 10  1  0
  5 11  1  0
 11 12  1  0
 11 13  2  0
  1 14  1  0
 12 15  2  3
 15 16  1  0
  2  3  2  0
  3  4  1  0
  4  5  2  0
  5  6  1  0
  6  7  2  0
  2  7  1  0
 13 17  1  0
M  END

$$$$
No_441-/export/home/yangzhenyu/potential_scad_32_flow//YTHDC2/2024-12-06-03-22-00/
     RDKit          3D

 21 21  0  0  0  0  0  0  0  0999 V2000
    1.1787   -8.0297    3.5154 C   0  0  0  0  0  0  0  0  0  0  0  0
    1.1048   -9.2215    3.2892 C   0  0  0  0  0  0  0  0  0  0  0  0
    1.3627  -10.1721    4.3044 C   0  0  0  0  0  0  0  0  0  0  0  0
    2.3720  -10.8948    4.2468 C   0  0  0  0  0  0  0  0  0  0  0  0
    1.0579   -7.0441    2.4219 C   0  0  0  0  0  0  0  0  0  0  0  0
    0.8578   -7.4970    1.1686 N   0  0  0  0  0  0  0  0  0  0  0  0
    0.7554   -8.7181    0.8785 C   0  0  0  0  0  0  0  0  0  0  0  0
    0.8990   -9.7053    1.8928 N   0  0  0  0  0  0  0  0  0  0  0  0
    0.5383   -9.2654   -0.3648 C   0  0  0  0  0  0  0  0  0  0  0  0
    0.4894  -10.3175   -0.6183 N   0  0  0  0  0  0  0  0  0  0  0  0
    0.2653   -8.2710   -1.3485 N   0  0  0  0  0  0  0  0  0  0  0  0
    1.1570   -5.5759    2.6837 C   0  0  0  0  0  0  0  0  0  0  0  0
    3.0870  -11.2686    4.8811 S   0  0  0  0  0  0  0  0  0  0  0  0
    3.3294  -10.0083    6.1141 O   0  0  0  0  0  0  0  0  0  0  0  0
   -0.2939   -8.8047   -2.3930 C   0  0  0  0  0  0  0  0  0  0  0  0
   -0.8631   -7.8823   -3.2985 C   0  0  0  0  0  0  0  0  0  0  0  0
   -1.0388   -6.6389   -2.9840 O   0  0  0  0  0  0  0  0  0  0  0  0
   -0.7323   -7.9288   -4.7040 O   0  0  0  0  0  0  0  0  0  0  0  0
    1.3700   -5.1886    3.8942 O   0  0  0  0  0  0  0  0  0  0  0  0
    1.2966   -4.7683    1.7071 O   0  0  0  0  0  0  0  0  0  0  0  0
    0.6499  -11.0163    0.0930 H   0  0  0  0  0  0  0  0  0  0  0  0
  2  3  1  0
  3  4  1  0
  7  9  1  0
  9 10  2  0
  9 11  1  0
  5 12  1  0
  4 13  1  0
 13 14  1  0
 11 15  1  0
 15 16  1  0
 16 17  2  0
 16 18  1  0
 12 19  2  0
 12 20  1  0
  1  2  2  0
  2  8  1  0
  7  8  2  0
  6  7  1  0
  5  6  2  0
  1  5  1  0
 10 21  1  0
M  END

$$$$
No_442-/export/home/yangzhenyu/potential_scad_32_flow//YTHDC2/2024-12-06-03-22-00/
     RDKit          3D

 19 20  0  0  1  0  0  0  0  0999 V2000
    1.1787   -8.0297    3.5154 O   0  0  0  0  0  0  0  0  0  0  0  0
    0.6747   -7.4019    2.7838 C   0  0  0  0  0  0  0  0  0  0  0  0
    0.7594   -8.0032    1.4295 C   0  0  2  0  0  0  0  0  0  0  0  0
    0.3459   -9.1500    1.3581 C   0  0  2  0  0  0  0  0  0  0  0  0
    0.9461   -9.9230    0.3350 C   0  0  0  0  0  0  0  0  0  0  0  0
    1.6883   -9.1548   -0.6694 C   0  0  0  0  0  0  0  0  0  0  0  0
    2.2919   -7.9289   -0.4546 C   0  0  0  0  0  0  0  0  0  0  0  0
    1.8021   -7.1760    0.6858 C   0  0  0  0  0  0  0  0  0  0  0  0
    0.6770  -11.1152    0.0462 O   0  0  0  0  0  0  0  0  0  0  0  0
   -1.0503   -9.2752    1.1837 C   0  0  0  0  0  0  0  0  0  0  0  0
   -1.9010   -8.7466    0.2826 C   0  0  0  0  0  0  0  0  0  0  0  0
   -3.2150   -8.8483    0.1516 C   0  0  0  0  0  0  0  0  0  0  0  0
   -3.8700   -9.6718    0.8983 C   0  0  0  0  0  0  0  0  0  0  0  0
   -3.1358  -10.2529    2.0047 C   0  0  0  0  0  0  0  0  0  0  0  0
   -1.7810  -10.1827    2.1079 C   0  0  0  0  0  0  0  0  0  0  0  0
    0.2049   -6.3081    3.1002 O   0  0  0  0  0  0  0  0  0  0  0  0
   -5.2002   -9.8389    0.9448 C   0  0  0  0  0  0  0  0  0  0  0  0
   -5.9520   -8.9729    1.5409 C   0  0  0  0  0  0  0  0  0  0  0  0
   -7.2110   -8.9638    1.4213 C   0  0  0  0  0  0  0  0  0  0  0  0
  1  2  1  0
  3  2  1  1
  3  4  1  0
  4  5  1  0
  5  6  1  0
  6  7  1  0
  3  8  1  0
  7  8  1  0
  5  9  2  0
  4 10  1  6
  2 16  2  0
 13 17  1  0
 17 18  1  0
 18 19  2  0
 10 11  2  0
 11 12  1  0
 12 13  2  0
 13 14  1  0
 14 15  2  0
 10 15  1  0
M  END

$$$$
No_443-/export/home/yangzhenyu/potential_scad_32_flow//YTHDC2/2024-12-06-03-22-00/
     RDKit          3D

 18 18  0  0  1  0  0  0  0  0999 V2000
    1.1787   -8.0297    3.5154 P   0  0  1  0  0  0  0  0  0  0  0  0
    1.2030   -9.2736    3.3536 O   0  0  0  0  0  0  0  0  0  0  0  0
    2.2726   -7.2253    3.0302 O   0  0  0  0  0  0  0  0  0  0  0  0
   -0.0263   -7.6136    2.3451 O   0  0  0  0  0  0  0  0  0  0  0  0
    0.3049  -10.3750    3.9081 C   0  0  0  0  0  0  0  0  0  0  0  0
    0.0354  -11.4729    3.0946 C   0  0  0  0  0  0  0  0  0  0  0  0
    1.0065  -12.5649    3.1838 C   0  0  0  0  0  0  0  0  0  0  0  0
    0.7983  -13.7505    2.5500 C   0  0  0  0  0  0  0  0  0  0  0  0
   -0.3393  -13.9336    1.9662 C   0  0  0  0  0  0  0  0  0  0  0  0
   -1.2075  -12.9475    1.7591 C   0  0  0  0  0  0  0  0  0  0  0  0
   -1.0028  -11.6986    2.3395 C   0  0  0  0  0  0  0  0  0  0  0  0
    1.7468  -14.8171    2.6835 C   0  0  0  0  0  0  0  0  0  0  0  0
    1.2875  -16.0608    3.1228 O   0  0  0  0  0  0  0  0  0  0  0  0
    2.9928  -14.7585    2.4279 O   0  0  0  0  0  0  0  0  0  0  0  0
   -1.9162  -10.6596    2.1683 C   0  0  0  0  0  0  0  0  0  0  0  0
   -2.8071  -10.2774    3.1669 O   0  0  0  0  0  0  0  0  0  0  0  0
   -2.0133   -9.9857    0.9987 N   0  0  0  0  0  0  0  0  0  0  0  0
   -1.0508  -10.1321   -0.0887 C   0  0  0  0  0  0  0  0  0  0  0  0
  1  2  1  0
  1  3  1  6
  1  4  2  0
  2  5  1  0
  5  6  1  0
  8 12  1  0
 12 13  1  0
 12 14  2  0
 11 15  1  0
 15 16  2  0
 15 17  1  0
 17 18  1  0
  6  7  2  0
  7  8  1  0
  8  9  2  0
  9 10  1  0
 10 11  2  0
  6 11  1  0
M  END

$$$$
No_444-/export/home/yangzhenyu/potential_scad_32_flow//YTHDC2/2024-12-06-03-22-00/
     RDKit          3D

 20 21  0  0  0  0  0  0  0  0999 V2000
    1.1787   -8.0297    3.5154 C   0  0  0  0  0  0  0  0  0  0  0  0
    1.1048   -9.2215    3.2892 C   0  0  0  0  0  0  0  0  0  0  0  0
    1.3627  -10.1721    4.3044 C   0  0  0  0  0  0  0  0  0  0  0  0
    1.0682  -11.5187    4.0618 C   0  0  0  0  0  0  0  0  0  0  0  0
    0.6332  -11.9655    2.9682 C   0  0  0  0  0  0  0  0  0  0  0  0
    0.4776  -11.1308    1.9203 C   0  0  0  0  0  0  0  0  0  0  0  0
    0.7470   -9.8274    2.0368 C   0  0  0  0  0  0  0  0  0  0  0  0
    1.0387   -7.0301    2.5175 F   0  0  0  0  0  0  0  0  0  0  0  0
    0.4075  -13.4293    2.8189 C   0  0  0  0  0  0  0  0  0  0  0  0
   -0.7654  -13.9122    2.3973 C   0  0  0  0  0  0  0  0  0  0  0  0
   -0.8568  -15.3416    2.3262 C   0  0  0  0  0  0  0  0  0  0  0  0
    0.2413  -16.1741    2.6436 C   0  0  0  0  0  0  0  0  0  0  0  0
    1.4238  -15.6260    3.0148 C   0  0  0  0  0  0  0  0  0  0  0  0
    1.5992  -14.2336    3.1499 C   0  0  0  0  0  0  0  0  0  0  0  0
    0.1068   -7.5276    4.1784 F   0  0  0  0  0  0  0  0  0  0  0  0
    2.4912  -16.4697    3.2883 O   0  0  0  0  0  0  0  0  0  0  0  0
    2.2255   -7.4372    4.0608 F   0  0  0  0  0  0  0  0  0  0  0  0
    0.5831   -8.9913    0.9469 C   0  0  0  0  0  0  0  0  0  0  0  0
    1.6772   -8.8654    0.0415 O   0  0  0  0  0  0  0  0  0  0  0  0
   -0.4281   -8.5048    0.4195 O   0  0  0  0  0  0  0  0  0  0  0  0
  1  2  1  0
  1  8  1  0
  5  9  1  0
 10 11  1  0
 12 13  1  0
  9 14  1  0
 13 14  1  0
  1 15  1  0
 13 16  2  0
  1 17  1  0
  7 18  1  0
 18 19  1  0
 18 20  2  0
 11 12  1  0
  9 10  1  0
  2  3  2  0
  3  4  1  0
  4  5  2  0
  5  6  1  0
  6  7  2  0
  2  7  1  0
M  END

$$$$
No_445-/export/home/yangzhenyu/potential_scad_32_flow//YTHDC2/2024-12-06-03-22-00/
     RDKit          3D

 20 20  0  0  1  0  0  0  0  0999 V2000
    1.1787   -8.0297    3.5154 C   0  0  0  0  0  0  0  0  0  0  0  0
    1.0491   -6.8434    2.9820 C   0  0  2  0  0  0  0  0  0  0  0  0
    1.9985   -8.9840    2.8958 C   0  0  2  0  0  0  0  0  0  0  0  0
    1.7297   -9.2108    1.6335 C   0  0  0  0  0  0  0  0  0  0  0  0
    1.7343   -8.0566    0.8408 C   0  0  0  0  0  0  0  0  0  0  0  0
    0.7286   -5.6388    3.4189 F   0  0  0  0  0  0  0  0  0  0  0  0
    1.1721   -6.8883    1.4590 C   0  0  0  0  0  0  0  0  0  0  0  0
    1.7342   -8.0104   -0.4705 O   0  0  0  0  0  0  0  0  0  0  0  0
    1.9642  -10.3814    3.5875 C   0  0  0  0  0  0  0  0  0  0  0  0
    1.1498  -11.3019    3.3077 C   0  0  0  0  0  0  0  0  0  0  0  0
   -0.2050  -11.0733    3.4733 O   0  0  0  0  0  0  0  0  0  0  0  0
    1.4964  -12.4798    2.9788 N   0  0  0  0  0  0  0  0  0  0  0  0
    0.6607  -13.5752    2.7296 C   0  0  1  0  0  0  0  0  0  0  0  0
    1.1072  -14.4585    1.6893 C   0  0  0  0  0  0  0  0  0  0  0  0
    0.7326  -15.5743    1.5110 O   0  0  0  0  0  0  0  0  0  0  0  0
    1.8889  -13.7998    0.7702 O   0  0  0  0  0  0  0  0  0  0  0  0
    2.0975  -10.2859    0.8954 O   0  0  0  0  0  0  0  0  0  0  0  0
    1.1324   -5.7519    0.7916 O   0  0  0  0  0  0  0  0  0  0  0  0
    2.9294  -10.5228    4.5598 O   0  0  0  0  0  0  0  0  0  0  0  0
    0.5810  -14.5263    3.8874 C   0  0  0  0  0  0  0  0  0  0  0  0
  1  2  1  0
  1  3  1  0
  3  4  1  0
  4  5  1  0
  2  6  1  6
  2  7  1  0
  5  7  1  0
  5  8  2  0
  3  9  1  1
  9 10  1  0
 10 11  2  0
 10 12  1  0
 12 13  1  0
 13 14  1  0
 14 15  2  0
 14 16  1  0
  4 17  2  0
  7 18  2  0
  9 19  2  0
 13 20  1  1
M  END

$$$$
No_446-/export/home/yangzhenyu/potential_scad_32_flow//YTHDC2/2024-12-06-03-22-00/
     RDKit          3D

 18 17  0  0  1  0  0  0  0  0999 V2000
    1.1787   -8.0297    3.5154 O   0  0  0  0  0  0  0  0  0  0  0  0
    0.9969   -8.9689    3.0048 C   0  0  0  0  0  0  0  0  0  0  0  0
    0.9976   -8.9567    1.6341 C   0  0  0  0  0  0  0  0  0  0  0  0
    0.7663   -7.7728    1.0082 C   0  0  2  0  0  0  0  0  0  0  0  0
    1.1468   -6.5619    1.6541 F   0  0  0  0  0  0  0  0  0  0  0  0
    0.8346  -10.1453    3.6334 C   0  0  0  0  0  0  0  0  0  0  0  0
    1.5589  -11.0229    3.7498 C   0  0  0  0  0  0  0  0  0  0  0  0
   -0.6255   -7.4618    0.6571 C   0  0  0  0  0  0  0  0  0  0  0  0
    1.3918  -12.3308    4.2300 N   0  0  0  0  0  0  0  0  0  0  0  0
    1.7579  -13.3398    3.2678 C   0  0  0  0  0  0  0  0  0  0  0  0
    1.4524   -7.6805   -0.2504 O   0  0  0  0  0  0  0  0  0  0  0  0
    1.1737  -14.5731    3.4086 O   0  0  0  0  0  0  0  0  0  0  0  0
    2.4384  -13.1079    2.1811 O   0  0  0  0  0  0  0  0  0  0  0  0
   -1.2392   -8.2760   -0.2010 O   0  0  0  0  0  0  0  0  0  0  0  0
   -1.1018   -6.1645    0.6958 N   0  0  0  0  0  0  0  0  0  0  0  0
   -2.3901   -5.9187    0.2816 C   0  0  0  0  0  0  0  0  0  0  0  0
   -3.3534   -6.2092    0.9561 C   0  0  0  0  0  0  0  0  0  0  0  0
   -4.1814   -5.5519    1.2254 C   0  0  0  0  0  0  0  0  0  0  0  0
  1  2  1  0
  2  3  1  0
  3  4  1  0
  4  5  1  0
  2  6  1  0
  6  7  2  3
  4  8  1  0
  7  9  1  0
  9 10  1  0
  4 11  1  6
 10 12  1  0
 10 13  2  0
  8 14  2  0
  8 15  1  0
 15 16  1  0
 16 17  1  0
 17 18  2  0
M  END

$$$$
No_447-/export/home/yangzhenyu/potential_scad_32_flow//YTHDC2/2024-12-06-03-22-00/
     RDKit          3D

 18 18  0  0  0  0  0  0  0  0999 V2000
    1.1787   -8.0297    3.5154 C   0  0  0  0  0  0  0  0  0  0  0  0
    1.1048   -9.2215    3.2892 N   0  0  0  0  0  0  0  0  0  0  0  0
    1.5378  -10.1363    4.2323 C   0  0  0  0  0  0  0  0  0  0  0  0
    0.9975   -7.0391    2.5788 C   0  0  0  0  0  0  0  0  0  0  0  0
    0.7137   -7.5395    1.3675 C   0  0  0  0  0  0  0  0  0  0  0  0
    0.6451   -8.7545    1.0015 C   0  0  0  0  0  0  0  0  0  0  0  0
    0.8770   -9.6930    1.9260 C   0  0  0  0  0  0  0  0  0  0  0  0
    2.8186  -10.6161    4.2637 C   0  0  0  0  0  0  0  0  0  0  0  0
    0.9215  -10.9932    1.7162 C   0  0  0  0  0  0  0  0  0  0  0  0
    0.3771  -11.4829    0.8008 O   0  0  0  0  0  0  0  0  0  0  0  0
    1.4174  -11.9687    2.5133 O   0  0  0  0  0  0  0  0  0  0  0  0
    1.1229   -5.5979    2.8475 F   0  0  0  0  0  0  0  0  0  0  0  0
    3.3830  -10.8523    5.5065 C   0  0  0  0  0  0  0  0  0  0  0  0
    2.8755  -10.3802    6.6217 O   0  0  0  0  0  0  0  0  0  0  0  0
    4.7435  -11.0554    5.5839 O   0  0  0  0  0  0  0  0  0  0  0  0
    0.3750   -9.0927   -0.4378 C   0  0  0  0  0  0  0  0  0  0  0  0
   -0.3728   -8.2350   -1.1277 O   0  0  0  0  0  0  0  0  0  0  0  0
    1.2330   -9.5786   -1.2215 O   0  0  0  0  0  0  0  0  0  0  0  0
  1  2  1  0
  2  3  1  0
  4  5  1  0
  2  7  1  0
  6  7  1  0
  3  8  1  0
  7  9  1  0
  9 10  2  0
  9 11  1  0
  4 12  1  0
  8 13  1  0
 13 14  2  0
 13 15  1  0
  6 16  1  0
 16 17  2  0
 16 18  1  0
  1  4  1  0
  5  6  1  0
M  END

$$$$
No_448-/export/home/yangzhenyu/potential_scad_32_flow//YTHDC2/2024-12-06-03-22-00/
     RDKit          3D

 17 17  0  0  1  0  0  0  0  0999 V2000
    1.1787   -8.0297    3.5154 C   0  0  0  0  0  0  0  0  0  0  0  0
    1.0491   -6.8434    2.9820 C   0  0  0  0  0  0  0  0  0  0  0  0
    0.0950   -8.8404    3.2292 C   0  0  0  0  0  0  0  0  0  0  0  0
   -0.9173   -8.4596    2.5152 C   0  0  0  0  0  0  0  0  0  0  0  0
   -1.0331   -7.2162    2.0653 C   0  0  0  0  0  0  0  0  0  0  0  0
   -0.0105   -6.3168    2.3081 C   0  0  0  0  0  0  0  0  0  0  0  0
    0.1150   -4.9910    1.8495 S   0  0  0  0  0  0  0  0  0  0  0  0
    0.1052  -10.2662    3.6738 S   0  0  0  0  0  0  0  0  0  0  0  0
   -1.1260  -10.7157    4.2184 O   0  0  0  0  0  0  0  0  0  0  0  0
    1.1392  -10.4505    4.9399 O   0  0  0  0  0  0  0  0  0  0  0  0
    0.5679  -11.3012    2.5797 C   0  0  1  0  0  0  0  0  0  0  0  0
    1.0889  -10.8283    1.4700 C   0  0  0  0  0  0  0  0  0  0  0  0
    0.5920  -12.6355    2.8504 C   0  0  0  0  0  0  0  0  0  0  0  0
    1.8595  -13.3523    2.6625 C   0  0  0  0  0  0  0  0  0  0  0  0
    1.7463  -14.6017    2.0080 C   0  0  0  0  0  0  0  0  0  0  0  0
    1.1605  -14.6456    1.0291 O   0  0  0  0  0  0  0  0  0  0  0  0
    2.0739  -15.6744    2.8083 O   0  0  0  0  0  0  0  0  0  0  0  0
  1  2  1  0
  1  3  2  0
  3  4  1  0
  4  5  2  0
  2  6  1  0
  5  6  1  0
  6  7  2  0
  3  8  1  0
  8  9  2  0
  8 10  2  0
  8 11  1  0
 11 12  1  1
 11 13  1  0
 13 14  1  0
 14 15  1  0
 15 16  2  0
 15 17  1  0
M  END

$$$$
No_449-/export/home/yangzhenyu/potential_scad_32_flow//YTHDC2/2024-12-06-03-22-00/
     RDKit          3D

 20 20  0  0  1  0  0  0  0  0999 V2000
    1.1787   -8.0297    3.5154 O   0  0  0  0  0  0  0  0  0  0  0  0
    0.6747   -7.4019    2.7838 C   0  0  1  0  0  0  0  0  0  0  0  0
    0.5570   -6.0797    2.8560 C   0  0  0  0  0  0  0  0  0  0  0  0
   -0.2158   -5.3007    2.0284 C   0  0  0  0  0  0  0  0  0  0  0  0
   -0.3300   -3.9374    2.0751 C   0  0  2  0  0  0  0  0  0  0  0  0
    0.3397   -8.1305    1.6922 C   0  0  1  0  0  0  0  0  0  0  0  0
    0.4832   -9.4760    1.7804 C   0  0  0  0  0  0  0  0  0  0  0  0
    1.6395  -10.0161    1.2172 C   0  0  0  0  0  0  0  0  0  0  0  0
    2.1482  -11.2602    1.6045 O   0  0  0  0  0  0  0  0  0  0  0  0
    2.2542   -9.4472    0.1614 O   0  0  0  0  0  0  0  0  0  0  0  0
    0.8058   -3.0825    2.4469 Cl  0  0  0  0  0  0  0  0  0  0  0  0
   -0.2909   -7.7145    0.6962 C   0  0  0  0  0  0  0  0  0  0  0  0
   -0.4987   -6.4703    0.3195 C   0  0  0  0  0  0  0  0  0  0  0  0
   -0.6568   -5.3985    0.8128 C   0  0  0  0  0  0  0  0  0  0  0  0
   -1.1614   -4.3728    0.0957 O   0  0  0  0  0  0  0  0  0  0  0  0
   -1.5383   -3.2544    2.2697 C   0  0  0  0  0  0  0  0  0  0  0  0
   -2.3318   -3.6519    3.3990 C   0  0  0  0  0  0  0  0  0  0  0  0
   -2.1099   -3.0799    4.6047 C   0  0  0  0  0  0  0  0  0  0  0  0
   -2.8437   -3.6602    5.6852 N   0  0  0  0  0  0  0  0  0  0  0  0
   -3.4675   -4.4357    5.5131 H   0  0  0  0  0  0  0  0  0  0  0  0
  2  1  1  6
  2  3  1  0
  3  4  2  0
  4  5  1  0
  2  6  1  0
  6  7  1  1
  7  8  1  0
  8  9  1  0
  8 10  2  0
  5 11  1  1
  6 12  1  0
 12 13  2  0
  4 14  1  0
 13 14  1  0
 14 15  2  0
  5 16  1  0
 16 17  1  0
 17 18  1  0
 18 19  2  0
 19 20  1  0
M  END

$$$$
No_450-/export/home/yangzhenyu/potential_scad_32_flow//YTHDC2/2024-12-06-03-22-00/
     RDKit          3D

 19 20  0  0  1  0  0  0  0  0999 V2000
    1.1787   -8.0297    3.5154 N   0  0  0  0  0  0  0  0  0  0  0  0
    0.8669   -7.0905    2.8589 C   0  0  1  0  0  0  0  0  0  0  0  0
    0.8842   -5.8387    3.2677 I   0  0  0  0  0  0  0  0  0  0  0  0
    0.6026   -7.6086    1.4225 C   0  0  0  0  0  0  0  0  0  0  0  0
    0.0117   -7.0198    0.7074 C   0  0  0  0  0  0  0  0  0  0  0  0
    1.6140   -8.4784    0.8247 C   0  0  0  0  0  0  0  0  0  0  0  0
    1.5099   -8.8305   -0.4664 C   0  0  0  0  0  0  0  0  0  0  0  0
    0.4896   -8.4020   -1.1794 C   0  0  0  0  0  0  0  0  0  0  0  0
   -0.4272   -7.4257   -0.6328 C   0  0  0  0  0  0  0  0  0  0  0  0
    2.3384   -9.8184   -0.9685 Cl  0  0  0  0  0  0  0  0  0  0  0  0
    0.2288   -8.7947   -2.4270 O   0  0  0  0  0  0  0  0  0  0  0  0
   -1.0567   -8.6817   -3.0300 C   0  0  0  0  0  0  0  0  0  0  0  0
   -1.1036   -7.9285   -4.1757 C   0  0  0  0  0  0  0  0  0  0  0  0
   -1.0814   -6.5342   -4.0293 C   0  0  0  0  0  0  0  0  0  0  0  0
   -0.6466   -5.9015   -5.2941 C   0  0  0  0  0  0  0  0  0  0  0  0
   -0.5540   -6.5459   -6.4815 C   0  0  0  0  0  0  0  0  0  0  0  0
   -0.5638   -7.8974   -6.5107 C   0  0  0  0  0  0  0  0  0  0  0  0
   -0.4249   -8.5365   -7.7884 C   0  0  0  0  0  0  0  0  0  0  0  0
   -0.8514   -8.6452   -5.4327 C   0  0  0  0  0  0  0  0  0  0  0  0
  2  1  1  6
  2  3  1  0
  2  4  1  0
  7 10  1  0
  8 11  1  0
 11 12  1  0
 12 13  1  0
 17 18  1  0
 13 14  2  0
 14 15  1  0
 15 16  2  0
 16 17  1  0
 17 19  2  0
 13 19  1  0
  4  5  2  0
  5  9  1  0
  8  9  2  0
  7  8  1  0
  6  7  2  0
  4  6  1  0
M  END

$$$$
No_451-/export/home/yangzhenyu/potential_scad_32_flow//YTHDC2/2024-12-06-03-22-00/
     RDKit          3D

 19 19  0  0  0  0  0  0  0  0999 V2000
    1.1787   -8.0297    3.5154 C   0  0  0  0  0  0  0  0  0  0  0  0
    1.1048   -9.2215    3.2892 C   0  0  0  0  0  0  0  0  0  0  0  0
    1.3627  -10.1721    4.3044 C   0  0  0  0  0  0  0  0  0  0  0  0
    1.0682  -11.5187    4.0618 C   0  0  0  0  0  0  0  0  0  0  0  0
    0.6332  -11.9655    2.9682 C   0  0  0  0  0  0  0  0  0  0  0  0
    0.4776  -11.1308    1.9203 C   0  0  0  0  0  0  0  0  0  0  0  0
    0.7470   -9.8274    2.0368 C   0  0  0  0  0  0  0  0  0  0  0  0
    1.0387   -7.0301    2.5175 O   0  0  0  0  0  0  0  0  0  0  0  0
    0.4220  -13.4291    2.8032 O   0  0  0  0  0  0  0  0  0  0  0  0
    1.2215  -14.1460    1.9686 C   0  0  0  0  0  0  0  0  0  0  0  0
    1.9601  -14.7377    2.3427 C   0  0  0  0  0  0  0  0  0  0  0  0
    0.6972   -9.0051    0.9481 C   0  0  0  0  0  0  0  0  0  0  0  0
    0.8290   -9.0931   -0.0903 C   0  0  0  0  0  0  0  0  0  0  0  0
    1.1619  -10.4972   -0.6777 C   0  0  0  0  0  0  0  0  0  0  0  0
    0.9152   -8.2154   -1.2989 O   0  0  0  0  0  0  0  0  0  0  0  0
    3.1180  -15.1547    1.7441 O   0  0  0  0  0  0  0  0  0  0  0  0
    1.8979  -15.3932    3.5705 O   0  0  0  0  0  0  0  0  0  0  0  0
    1.7525   -7.4494    4.5504 O   0  0  0  0  0  0  0  0  0  0  0  0
    0.9190  -14.0699    0.6084 C   0  0  0  0  0  0  0  0  0  0  0  0
  1  2  1  0
  1  8  2  0
  5  9  1  0
  9 10  1  0
 10 11  1  0
  7 12  1  0
 12 13  2  3
 13 14  1  0
 13 15  1  0
 11 16  2  0
 11 17  1  0
  1 18  1  0
 10 19  1  0
  2  3  2  0
  3  4  1  0
  4  5  2  0
  5  6  1  0
  6  7  2  0
  2  7  1  0
M  END

$$$$
No_452-/export/home/yangzhenyu/potential_scad_32_flow//YTHDC2/2024-12-06-03-22-00/
     RDKit          3D

 20 19  0  0  1  0  0  0  0  0999 V2000
    1.1787   -8.0297    3.5154 C   0  0  0  0  0  0  0  0  0  0  0  0
    1.0491   -6.8434    2.9820 C   0  0  1  0  0  0  0  0  0  0  0  0
    1.9985   -8.9840    2.8958 C   0  0  0  0  0  0  0  0  0  0  0  0
    1.9135  -10.3404    3.6266 C   0  0  1  0  0  0  0  0  0  0  0  0
    2.2847  -10.5440    4.7936 C   0  0  0  0  0  0  0  0  0  0  0  0
    1.7595   -5.7666    3.2682 N   0  0  0  0  0  0  0  0  0  0  0  0
    0.3872   -6.7686    1.7743 C   0  0  0  0  0  0  0  0  0  0  0  0
    0.4177   -5.5522    1.2249 O   0  0  0  0  0  0  0  0  0  0  0  0
   -0.3353   -7.6542    1.2419 N   0  0  0  0  0  0  0  0  0  0  0  0
    0.6469  -11.0439    3.3273 C   0  0  0  0  0  0  0  0  0  0  0  0
    0.5863  -12.0082    2.6728 C   0  0  0  0  0  0  0  0  0  0  0  0
    1.6097  -12.8666    2.4345 C   0  0  0  0  0  0  0  0  0  0  0  0
    2.0386  -13.3407    1.1695 C   0  0  0  0  0  0  0  0  0  0  0  0
    1.1230  -13.8732    0.4334 C   0  0  0  0  0  0  0  0  0  0  0  0
   -0.0352  -12.9629    0.0945 O   0  0  0  0  0  0  0  0  0  0  0  0
    1.0789  -14.8762   -0.3255 O   0  0  0  0  0  0  0  0  0  0  0  0
   -0.4440  -10.4924    3.8522 O   0  0  0  0  0  0  0  0  0  0  0  0
    3.5465  -11.2953    5.0548 O   0  0  0  0  0  0  0  0  0  0  0  0
   -1.2077   -7.6152    0.3559 C   0  0  0  0  0  0  0  0  0  0  0  0
   -1.9066   -8.6388   -0.1287 C   0  0  0  0  0  0  0  0  0  0  0  0
  1  2  1  0
  1  3  1  0
  4  3  1  1
  4  5  1  0
  2  6  1  6
  2  7  1  0
  7  8  2  0
  7  9  1  0
  4 10  1  0
 10 11  1  0
 11 12  1  0
 12 13  1  0
 13 14  1  0
 14 15  1  0
 14 16  2  0
 10 17  2  0
  5 18  2  0
  9 19  1  0
 19 20  1  0
M  END

$$$$
No_453-/export/home/yangzhenyu/potential_scad_32_flow//YTHDC2/2024-12-06-03-22-00/
     RDKit          3D

 18 18  0  0  0  0  0  0  0  0999 V2000
    1.1787   -8.0297    3.5154 C   0  0  0  0  0  0  0  0  0  0  0  0
    1.0491   -6.8434    2.9820 C   0  0  0  0  0  0  0  0  0  0  0  0
    0.0950   -8.8404    3.2292 C   0  0  0  0  0  0  0  0  0  0  0  0
   -0.9173   -8.4596    2.5152 C   0  0  0  0  0  0  0  0  0  0  0  0
   -1.0331   -7.2162    2.0653 C   0  0  0  0  0  0  0  0  0  0  0  0
   -0.0105   -6.3168    2.3081 C   0  0  0  0  0  0  0  0  0  0  0  0
    0.0485   -4.9783    1.8782 C   0  0  0  0  0  0  0  0  0  0  0  0
   -0.4744   -4.1559    2.2381 O   0  0  0  0  0  0  0  0  0  0  0  0
    0.9176   -4.7080    0.8087 O   0  0  0  0  0  0  0  0  0  0  0  0
    0.2222  -10.4891    3.7537 Br  0  0  0  0  0  0  0  0  0  0  0  0
   -2.2584   -6.7653    1.4857 C   0  0  0  0  0  0  0  0  0  0  0  0
   -2.2453   -6.8502    0.0112 C   0  0  0  0  0  0  0  0  0  0  0  0
   -1.7190   -7.7857   -0.6741 O   0  0  0  0  0  0  0  0  0  0  0  0
   -2.7372   -5.7945   -0.7629 O   0  0  0  0  0  0  0  0  0  0  0  0
   -1.0620   -7.8647   -1.7659 C   0  0  0  0  0  0  0  0  0  0  0  0
    0.0714   -8.3021   -1.8164 C   0  0  0  0  0  0  0  0  0  0  0  0
    0.8225   -8.4725   -0.6000 C   0  0  0  0  0  0  0  0  0  0  0  0
    0.5522   -9.5765    0.0796 C   0  0  0  0  0  0  0  0  0  0  0  0
  6  7  1  0
  7  8  2  0
  7  9  1  0
  3 10  1  0
  5 11  1  0
 11 12  1  0
 12 13  1  0
 12 14  2  0
 13 15  1  0
 15 16  1  0
 16 17  1  0
 17 18  1  0
  1  2  2  0
  2  6  1  0
  5  6  2  0
  4  5  1  0
  3  4  2  0
  1  3  1  0
M  END

$$$$
No_454-/export/home/yangzhenyu/potential_scad_32_flow//YTHDC2/2024-12-06-03-22-00/
     RDKit          3D

 17 17  0  0  1  0  0  0  0  0999 V2000
    1.1787   -8.0297    3.5154 C   0  0  0  0  0  0  0  0  0  0  0  0
    1.0491   -6.8434    2.9820 C   0  0  0  0  0  0  0  0  0  0  0  0
    0.9905   -9.0774    2.6527 C   0  0  1  0  0  0  0  0  0  0  0  0
    0.7897   -8.9519    1.3691 C   0  0  0  0  0  0  0  0  0  0  0  0
    0.7018   -7.7198    0.7892 C   0  0  1  0  0  0  0  0  0  0  0  0
    0.8918   -6.5957    1.6117 C   0  0  0  0  0  0  0  0  0  0  0  0
    1.0998  -10.4710    3.2437 C   0  0  2  0  0  0  0  0  0  0  0  0
    2.1917  -10.8879    3.7399 F   0  0  0  0  0  0  0  0  0  0  0  0
    0.6955  -11.4571    2.3511 Br  0  0  0  0  0  0  0  0  0  0  0  0
    0.8436   -5.2540    1.2024 O   0  0  0  0  0  0  0  0  0  0  0  0
    0.3526  -10.3688    4.4992 P   0  0  0  0  0  0  0  0  0  0  0  0
    0.7078  -11.2230    5.5019 O   0  0  0  0  0  0  0  0  0  0  0  0
   -1.2522  -10.8481    4.0937 O   0  0  0  0  0  0  0  0  0  0  0  0
    1.2966   -5.7043    3.7959 O   0  0  0  0  0  0  0  0  0  0  0  0
    0.6805   -9.9527    0.3815 Br  0  0  0  0  0  0  0  0  0  0  0  0
    0.0531   -9.0174    5.2431 O   0  0  0  0  0  0  0  0  0  0  0  0
    0.5602   -7.4424   -0.4543 Cl  0  0  0  0  0  0  0  0  0  0  0  0
  1  2  1  0
  3  4  1  0
  2  6  1  0
  5  6  1  0
  3  7  1  0
  7  8  1  1
  7  9  1  0
  6 10  2  0
  7 11  1  0
 11 12  1  0
 11 13  2  0
  2 14  2  0
  4 15  1  0
 11 16  1  0
  5 17  1  6
  3  1  1  6
  4  5  1  0
M  END

$$$$
No_455-/export/home/yangzhenyu/potential_scad_32_flow//YTHDC2/2024-12-06-03-22-00/
     RDKit          3D

 20 21  0  0  0  0  0  0  0  0999 V2000
    1.1787   -8.0297    3.5154 C   0  0  0  0  0  0  0  0  0  0  0  0
    1.1048   -9.2215    3.2892 C   0  0  0  0  0  0  0  0  0  0  0  0
    1.3627  -10.1721    4.3044 C   0  0  0  0  0  0  0  0  0  0  0  0
    1.0682  -11.5187    4.0618 C   0  0  0  0  0  0  0  0  0  0  0  0
    0.6332  -11.9655    2.9682 C   0  0  0  0  0  0  0  0  0  0  0  0
    0.4776  -11.1308    1.9203 C   0  0  0  0  0  0  0  0  0  0  0  0
    0.7470   -9.8274    2.0368 C   0  0  0  0  0  0  0  0  0  0  0  0
    1.0387   -7.0301    2.5175 O   0  0  0  0  0  0  0  0  0  0  0  0
    0.4168  -13.5765    2.8119 N   0  0  0  0  0  0  0  0  0  0  0  0
    1.4459  -14.3627    3.0473 C   0  0  0  0  0  0  0  0  0  0  0  0
    1.0763  -15.7340    2.8738 C   0  0  0  0  0  0  0  0  0  0  0  0
    2.1908  -16.6213    2.6335 O   0  0  0  0  0  0  0  0  0  0  0  0
    0.0302  -16.2955    3.2484 O   0  0  0  0  0  0  0  0  0  0  0  0
    0.6425   -9.1009    0.9272 C   0  0  0  0  0  0  0  0  0  0  0  0
    0.8869   -9.2409   -0.0794 C   0  0  0  0  0  0  0  0  0  0  0  0
    0.4738   -8.4389   -1.2701 N   0  0  0  0  0  0  0  0  0  0  0  0
   -0.3306   -7.5724   -0.6393 N   0  0  0  0  0  0  0  0  0  0  0  0
   -0.3664   -7.9868    0.7169 C   0  0  0  0  0  0  0  0  0  0  0  0
   -1.2300   -6.6768   -1.1462 C   0  0  0  0  0  0  0  0  0  0  0  0
   -1.6459   -5.6291   -0.3448 C   0  0  0  0  0  0  0  0  0  0  0  0
  1  2  1  0
  1  8  2  0
  5  9  1  0
  9 10  1  0
 10 11  1  0
 11 12  2  0
 11 13  1  0
  7 14  1  0
 14 15  2  0
 15 16  1  0
 16 17  1  0
 14 18  1  0
 17 18  1  0
 17 19  1  0
 19 20  1  0
  2  3  2  0
  3  4  1  0
  4  5  2  0
  5  6  1  0
  6  7  2  0
  2  7  1  0
M  END

$$$$
No_456-/export/home/yangzhenyu/potential_scad_32_flow//YTHDC2/2024-12-06-03-22-00/
     RDKit          3D

 19 18  0  0  1  0  0  0  0  0999 V2000
    1.1787   -8.0297    3.5154 C   0  0  0  0  0  0  0  0  0  0  0  0
    1.1048   -9.2215    3.2892 P   0  0  2  0  0  0  0  0  0  0  0  0
    1.8083   -9.6820    2.1466 C   0  0  1  0  0  0  0  0  0  0  0  0
    1.8432   -8.9413    0.9485 C   0  0  0  0  0  0  0  0  0  0  0  0
    2.3154   -9.5021   -0.2741 C   0  0  0  0  0  0  0  0  0  0  0  0
   -0.4180   -9.8227    3.0885 O   0  0  0  0  0  0  0  0  0  0  0  0
    1.7335   -9.2126   -1.2482 O   0  0  0  0  0  0  0  0  0  0  0  0
    1.5179  -10.1536    4.5716 O   0  0  0  0  0  0  0  0  0  0  0  0
    3.2881  -10.1947   -0.2420 O   0  0  0  0  0  0  0  0  0  0  0  0
    0.6616   -6.9703    2.5997 C   0  0  0  0  0  0  0  0  0  0  0  0
    1.5789   -5.8689    2.1890 C   0  0  0  0  0  0  0  0  0  0  0  0
    1.1217   -5.1424    1.1777 O   0  0  0  0  0  0  0  0  0  0  0  0
    2.3695   -5.3367    3.0144 O   0  0  0  0  0  0  0  0  0  0  0  0
    2.5960  -10.8635    2.1462 C   0  0  0  0  0  0  0  0  0  0  0  0
    1.9110  -11.9280    1.4466 C   0  0  0  0  0  0  0  0  0  0  0  0
    1.2307  -12.9200    2.2876 C   0  0  0  0  0  0  0  0  0  0  0  0
    2.0224  -13.7958    2.9058 C   0  0  0  0  0  0  0  0  0  0  0  0
    1.5126  -15.1731    2.5325 C   0  0  0  0  0  0  0  0  0  0  0  0
    0.3375  -15.5508    3.1550 O   0  0  0  0  0  0  0  0  0  0  0  0
  1  2  1  0
  2  3  1  0
  3  4  1  1
  4  5  1  0
  2  6  2  0
  5  7  1  0
  2  8  1  1
  5  9  2  0
  1 10  1  0
 10 11  1  0
 11 12  2  0
 11 13  1  0
  3 14  1  0
 14 15  1  0
 15 16  1  0
 16 17  1  0
 17 18  1  0
 18 19  1  0
M  END

$$$$
No_457-/export/home/yangzhenyu/potential_scad_32_flow//YTHDC2/2024-12-06-03-22-00/
     RDKit          3D

 18 18  0  0  1  0  0  0  0  0999 V2000
    1.1787   -8.0297    3.5154 O   0  0  0  0  0  0  0  0  0  0  0  0
    0.9969   -8.9689    3.0048 C   0  0  1  0  0  0  0  0  0  0  0  0
    0.9976   -8.9567    1.6341 C   0  0  0  0  0  0  0  0  0  0  0  0
    0.7663   -7.7728    1.0082 C   0  0  0  0  0  0  0  0  0  0  0  0
    1.1468   -6.5619    1.6541 C   0  0  0  0  0  0  0  0  0  0  0  0
    1.3592   -6.6155    3.0007 C   0  0  1  0  0  0  0  0  0  0  0  0
    0.9781  -10.1276    3.6866 C   0  0  1  0  0  0  0  0  0  0  0  0
    1.9856  -10.9664    3.7361 C   0  0  0  0  0  0  0  0  0  0  0  0
    0.4808   -7.7281   -0.2477 O   0  0  0  0  0  0  0  0  0  0  0  0
    1.1868  -10.0306    0.8771 O   0  0  0  0  0  0  0  0  0  0  0  0
    1.6055  -12.3460    3.7127 C   0  0  0  0  0  0  0  0  0  0  0  0
    2.1594  -13.1814    2.6814 C   0  0  0  0  0  0  0  0  0  0  0  0
    1.7675  -14.5448    2.5839 C   0  0  0  0  0  0  0  0  0  0  0  0
    2.5512  -15.4726    2.0574 O   0  0  0  0  0  0  0  0  0  0  0  0
    0.7901  -15.0507    3.2944 O   0  0  0  0  0  0  0  0  0  0  0  0
    1.6169   -5.6199    3.7678 C   0  0  0  0  0  0  0  0  0  0  0  0
    1.0980   -5.3676    1.0340 O   0  0  0  0  0  0  0  0  0  0  0  0
   -0.2429  -10.2765    4.4690 C   0  0  0  0  0  0  0  0  0  0  0  0
  2  1  1  1
  2  3  1  0
  3  4  1  0
  4  5  1  0
  1  6  1  0
  5  6  1  0
  2  7  1  0
  7  8  1  0
  4  9  2  0
  3 10  2  0
  8 11  1  0
 11 12  1  0
 12 13  1  0
 13 14  2  0
 13 15  1  0
  6 16  1  1
  5 17  2  0
  7 18  1  1
M  END

$$$$
No_458-/export/home/yangzhenyu/potential_scad_32_flow//YTHDC2/2024-12-06-03-22-00/
     RDKit          3D

 19 20  0  0  1  0  0  0  0  0999 V2000
    1.1787   -8.0297    3.5154 O   0  0  0  0  0  0  0  0  0  0  0  0
    0.6747   -7.4019    2.7838 C   0  0  0  0  0  0  0  0  0  0  0  0
    0.5570   -6.0797    2.8560 C   0  0  0  0  0  0  0  0  0  0  0  0
   -0.2158   -5.3007    2.0284 C   0  0  0  0  0  0  0  0  0  0  0  0
   -0.8260   -5.9169    1.0290 C   0  0  0  0  0  0  0  0  0  0  0  0
   -0.6925   -7.2407    0.8216 C   0  0  0  0  0  0  0  0  0  0  0  0
    0.1645   -8.0156    1.6621 C   0  0  0  0  0  0  0  0  0  0  0  0
    0.4049   -9.3434    1.4877 C   0  0  0  0  0  0  0  0  0  0  0  0
    0.0670  -10.2565    2.0992 C   0  0  0  0  0  0  0  0  0  0  0  0
    0.4824  -11.6260    1.9392 C   0  0  2  0  0  0  0  0  0  0  0  0
    1.2322  -11.8668    0.6178 C   0  0  0  0  0  0  0  0  0  0  0  0
    1.2752   -9.5456    0.1607 C   0  0  0  0  0  0  0  0  0  0  0  0
    1.6369  -10.8571   -0.0664 N   0  0  0  0  0  0  0  0  0  0  0  0
    1.8094   -8.5944   -0.6113 O   0  0  0  0  0  0  0  0  0  0  0  0
    0.0564  -12.7221    2.7059 C   0  0  0  0  0  0  0  0  0  0  0  0
    1.1803  -13.4884    3.1240 O   0  0  0  0  0  0  0  0  0  0  0  0
   -0.8857  -13.6654    2.0546 O   0  0  0  0  0  0  0  0  0  0  0  0
   -0.3882   -3.6121    2.3595 O   0  0  0  0  0  0  0  0  0  0  0  0
    0.6121   -2.9972    2.0610 C   0  0  0  0  0  0  0  0  0  0  0  0
  1  2  1  0
  7  8  1  0
  9 10  1  0
 10 11  1  0
  8 12  1  0
 12 13  1  0
 12 14  2  0
 10 15  1  6
 15 16  1  0
 15 17  1  0
  4 18  1  0
 18 19  1  0
  8  9  1  0
 11 13  1  0
  2  3  2  0
  3  4  1  0
  4  5  2  0
  5  6  1  0
  6  7  2  0
  2  7  1  0
M  END

$$$$
No_459-/export/home/yangzhenyu/potential_scad_32_flow//YTHDC2/2024-12-06-03-22-00/
     RDKit          3D

 18 18  0  0  0  0  0  0  0  0999 V2000
    1.1787   -8.0297    3.5154 C   0  0  0  0  0  0  0  0  0  0  0  0
    1.1048   -9.2215    3.2892 C   0  0  0  0  0  0  0  0  0  0  0  0
    1.3627  -10.1721    4.3044 C   0  0  0  0  0  0  0  0  0  0  0  0
    1.7354  -11.4730    3.9023 C   0  0  0  0  0  0  0  0  0  0  0  0
    1.8080  -11.8127    2.7216 C   0  0  0  0  0  0  0  0  0  0  0  0
    1.5854  -11.0021    1.7249 C   0  0  0  0  0  0  0  0  0  0  0  0
    1.3573   -9.7389    1.9287 C   0  0  0  0  0  0  0  0  0  0  0  0
    1.2865   -8.8078    0.9161 C   0  0  0  0  0  0  0  0  0  0  0  0
    1.6845   -9.1638   -0.2896 C   0  0  0  0  0  0  0  0  0  0  0  0
    2.8611   -9.7120   -0.5522 O   0  0  0  0  0  0  0  0  0  0  0  0
    1.0038   -8.9122   -1.3119 O   0  0  0  0  0  0  0  0  0  0  0  0
    2.0935  -13.4579    2.3844 O   0  0  0  0  0  0  0  0  0  0  0  0
    2.2948   -7.1926    3.6458 O   0  0  0  0  0  0  0  0  0  0  0  0
    0.0072   -7.3461    3.1971 O   0  0  0  0  0  0  0  0  0  0  0  0
    1.5448  -14.3161    3.0435 C   0  0  0  0  0  0  0  0  0  0  0  0
    0.9671  -15.3893    2.1991 C   0  0  0  0  0  0  0  0  0  0  0  0
    1.6246  -16.4850    2.4160 O   0  0  0  0  0  0  0  0  0  0  0  0
    1.2706  -17.5776    1.7739 C   0  0  0  0  0  0  0  0  0  0  0  0
  1  2  1  0
  7  8  1  0
  8  9  1  0
  9 10  1  0
  9 11  2  0
  5 12  1  0
  1 13  2  0
  1 14  1  0
 12 15  1  0
 15 16  1  0
 16 17  1  0
 17 18  1  0
  2  3  2  0
  3  4  1  0
  4  5  2  0
  5  6  1  0
  6  7  2  0
  2  7  1  0
M  END

$$$$
No_460-/export/home/yangzhenyu/potential_scad_32_flow//YTHDC2/2024-12-06-03-22-00/
     RDKit          3D

 18 19  0  0  1  0  0  0  0  0999 V2000
    1.1787   -8.0297    3.5154 C   0  0  0  0  0  0  0  0  0  0  0  0
    1.0491   -6.8434    2.9820 C   0  0  2  0  0  0  0  0  0  0  0  0
    0.9905   -9.0774    2.6527 C   0  0  1  0  0  0  0  0  0  0  0  0
    0.7897   -8.9519    1.3691 C   0  0  0  0  0  0  0  0  0  0  0  0
    0.7018   -7.7198    0.7892 C   0  0  0  0  0  0  0  0  0  0  0  0
    0.8918   -6.5957    1.6117 C   0  0  0  0  0  0  0  0  0  0  0  0
    1.0998  -10.4710    3.2437 C   0  0  1  0  0  0  0  0  0  0  0  0
    0.0472  -11.2546    3.3963 C   0  0  1  0  0  0  0  0  0  0  0  0
    0.1622  -12.5732    3.4140 C   0  0  0  0  0  0  0  0  0  0  0  0
    1.4182  -13.1957    3.4048 C   0  0  2  0  0  0  0  0  0  0  0  0
    2.5550  -12.3947    3.0877 C   0  0  0  0  0  0  0  0  0  0  0  0
    2.4166  -11.0849    2.9699 C   0  0  0  0  0  0  0  0  0  0  0  0
    0.8571   -5.2495    1.2086 O   0  0  0  0  0  0  0  0  0  0  0  0
    1.4152  -14.5596    3.3708 Br  0  0  0  0  0  0  0  0  0  0  0  0
    0.6237   -9.9546    0.3386 Cl  0  0  0  0  0  0  0  0  0  0  0  0
    1.3367   -5.6973    3.7856 F   0  0  0  0  0  0  0  0  0  0  0  0
   -1.1521  -10.6012    3.6703 Cl  0  0  0  0  0  0  0  0  0  0  0  0
    3.4617  -10.3188    2.7382 O   0  0  0  0  0  0  0  0  0  0  0  0
  1  2  1  0
  3  4  1  0
  2  6  1  0
  5  6  1  0
  3  7  1  0
  7  8  1  0
  9 10  1  0
  7 12  1  6
 11 12  1  0
  6 13  2  0
 10 14  1  6
  4 15  1  0
  2 16  1  6
  8 17  1  1
 12 18  2  0
  3  1  1  6
  4  5  1  0
  8  9  1  0
 10 11  1  0
M  END

$$$$
No_461-/export/home/yangzhenyu/potential_scad_32_flow//YTHDC2/2024-12-06-03-22-00/
     RDKit          3D

 19 20  0  0  1  0  0  0  0  0999 V2000
    1.1787   -8.0297    3.5154 O   0  0  0  0  0  0  0  0  0  0  0  0
    0.9969   -8.9689    3.0048 C   0  0  1  0  0  0  0  0  0  0  0  0
    0.9976   -8.9567    1.6341 C   0  0  2  0  0  0  0  0  0  0  0  0
    1.6062   -9.9071    0.9292 C   0  0  1  0  0  0  0  0  0  0  0  0
    2.1191  -10.9757    1.6503 C   0  0  0  0  0  0  0  0  0  0  0  0
    2.1177  -10.9891    3.0403 C   0  0  1  0  0  0  0  0  0  0  0  0
    1.5441   -9.8905    3.6897 C   0  0  0  0  0  0  0  0  0  0  0  0
    0.5010   -7.8164    1.0436 C   0  0  0  0  0  0  0  0  0  0  0  0
    1.0624   -6.6356    1.1779 C   0  0  0  0  0  0  0  0  0  0  0  0
    0.3391   -5.4799    1.3521 C   0  0  0  0  0  0  0  0  0  0  0  0
   -0.9371   -5.5444    1.0250 C   0  0  0  0  0  0  0  0  0  0  0  0
   -1.5495   -6.6729    0.6526 C   0  0  0  0  0  0  0  0  0  0  0  0
   -0.8374   -7.8619    0.6909 C   0  0  0  0  0  0  0  0  0  0  0  0
    1.6440  -10.1577    5.0236 O   0  0  0  0  0  0  0  0  0  0  0  0
   -1.5523   -9.0515    0.5680 Cl  0  0  0  0  0  0  0  0  0  0  0  0
    1.0584   -4.2077    1.5990 Br  0  0  0  0  0  0  0  0  0  0  0  0
    2.6548  -12.2784    3.6418 O   0  0  0  0  0  0  0  0  0  0  0  0
    1.6544   -9.9934   -0.4485 C   0  0  0  0  0  0  0  0  0  0  0  0
    1.5754   -8.7180   -1.1657 C   0  0  0  0  0  0  0  0  0  0  0  0
  2  1  1  1
  2  3  1  0
  4  5  1  0
  2  7  1  0
  6  7  1  0
  3  8  1  1
  7 14  2  0
 13 15  1  0
 10 16  1  0
  6 17  1  6
  4 18  1  6
 18 19  1  0
  3  4  1  0
  5  6  1  0
  8  9  2  0
  9 10  1  0
 10 11  2  0
 11 12  1  0
 12 13  2  0
  8 13  1  0
M  END

$$$$
No_462-/export/home/yangzhenyu/potential_scad_32_flow//YTHDC2/2024-12-06-03-22-00/
     RDKit          3D

 18 18  0  0  1  0  0  0  0  0999 V2000
    1.1787   -8.0297    3.5154 C   0  0  0  0  0  0  0  0  0  0  0  0
    1.1048   -9.2215    3.2892 C   0  0  0  0  0  0  0  0  0  0  0  0
    1.2339   -9.7611    2.0189 C   0  0  0  0  0  0  0  0  0  0  0  0
    1.3583   -9.0036    0.9764 C   0  0  0  0  0  0  0  0  0  0  0  0
    1.5996   -7.6362    1.1311 C   0  0  0  0  0  0  0  0  0  0  0  0
    1.4830   -7.0928    2.3626 C   0  0  0  0  0  0  0  0  0  0  0  0
    1.1008  -11.2372    1.8542 C   0  0  0  0  0  0  0  0  0  0  0  0
    1.9749  -12.0938    2.2342 P   0  0  2  0  0  0  0  0  0  0  0  0
    2.8633  -11.7545    3.0202 O   0  0  0  0  0  0  0  0  0  0  0  0
    2.9226  -12.6865    1.0825 O   0  0  0  0  0  0  0  0  0  0  0  0
    1.1888  -13.4173    2.8150 O   0  0  0  0  0  0  0  0  0  0  0  0
    1.5130   -5.6393    2.6457 Cl  0  0  0  0  0  0  0  0  0  0  0  0
    1.6252   -9.4715   -0.3307 C   0  0  0  0  0  0  0  0  0  0  0  0
    0.4880   -9.7189   -1.0045 O   0  0  0  0  0  0  0  0  0  0  0  0
    2.6793   -9.3249   -1.0647 O   0  0  0  0  0  0  0  0  0  0  0  0
    0.1390  -14.2362    2.2526 C   0  0  0  0  0  0  0  0  0  0  0  0
   -0.9571  -13.7961    2.1881 C   0  0  0  0  0  0  0  0  0  0  0  0
   -1.6958  -14.1182    1.1649 O   0  0  0  0  0  0  0  0  0  0  0  0
  3  7  1  0
  7  8  1  0
  8  9  1  1
  8 10  2  0
  8 11  1  0
  6 12  1  0
  4 13  1  0
 13 14  2  0
 13 15  1  0
 11 16  1  0
 16 17  1  0
 17 18  2  0
  1  2  2  0
  2  3  1  0
  3  4  2  0
  4  5  1  0
  5  6  2  0
  1  6  1  0
M  END

$$$$
No_463-/export/home/yangzhenyu/potential_scad_32_flow//YTHDC2/2024-12-06-03-22-00/
     RDKit          3D

 19 19  0  0  0  0  0  0  0  0999 V2000
    1.1787   -8.0297    3.5154 C   0  0  0  0  0  0  0  0  0  0  0  0
    1.1048   -9.2215    3.2892 C   0  0  0  0  0  0  0  0  0  0  0  0
    1.3627  -10.1721    4.3044 C   0  0  0  0  0  0  0  0  0  0  0  0
    1.7354  -11.4730    3.9023 C   0  0  0  0  0  0  0  0  0  0  0  0
    1.8080  -11.8127    2.7216 C   0  0  0  0  0  0  0  0  0  0  0  0
    1.5854  -11.0021    1.7249 C   0  0  0  0  0  0  0  0  0  0  0  0
    1.3573   -9.7389    1.9287 C   0  0  0  0  0  0  0  0  0  0  0  0
    1.1102   -8.8712    0.9017 C   0  0  0  0  0  0  0  0  0  0  0  0
    0.5299   -7.6926    1.0325 O   0  0  0  0  0  0  0  0  0  0  0  0
    1.1841   -9.3630   -0.4581 C   0  0  0  0  0  0  0  0  0  0  0  0
    0.6656   -8.6316   -1.4219 O   0  0  0  0  0  0  0  0  0  0  0  0
    2.1149  -13.2082    2.3496 C   0  0  0  0  0  0  0  0  0  0  0  0
    2.4471  -13.5807    1.0858 O   0  0  0  0  0  0  0  0  0  0  0  0
    2.3102  -14.1720    3.2182 O   0  0  0  0  0  0  0  0  0  0  0  0
    1.7519  -10.3310   -0.8216 O   0  0  0  0  0  0  0  0  0  0  0  0
    0.1978   -7.1846    3.6878 N   0  0  0  0  0  0  0  0  0  0  0  0
   -0.9676   -7.9206    4.0101 C   0  0  0  0  0  0  0  0  0  0  0  0
   -2.2654   -7.4561    4.0706 O   0  0  0  0  0  0  0  0  0  0  0  0
   -0.9453   -9.3103    4.3420 N   0  0  0  0  0  0  0  0  0  0  0  0
  1  2  1  0
  7  8  1  0
  8  9  2  0
  8 10  1  0
 10 11  2  0
  5 12  1  0
 12 13  2  0
 12 14  1  0
 10 15  1  0
  1 16  1  0
 16 17  1  0
 17 18  2  0
 17 19  1  0
  2  3  2  0
  3  4  1  0
  4  5  2  0
  5  6  1  0
  6  7  2  0
  2  7  1  0
M  END

$$$$
No_464-/export/home/yangzhenyu/potential_scad_32_flow//YTHDC2/2024-12-06-03-22-00/
     RDKit          3D

 18 18  0  0  0  0  0  0  0  0999 V2000
    1.1787   -8.0297    3.5154 O   0  0  0  0  0  0  0  0  0  0  0  0
    0.9969   -8.9689    3.0048 C   0  0  0  0  0  0  0  0  0  0  0  0
    0.9976   -8.9567    1.6341 C   0  0  0  0  0  0  0  0  0  0  0  0
    1.6062   -9.9071    0.9292 C   0  0  0  0  0  0  0  0  0  0  0  0
    2.1191  -10.9757    1.6503 N   0  0  0  0  0  0  0  0  0  0  0  0
    2.0886  -10.9867    2.9870 C   0  0  0  0  0  0  0  0  0  0  0  0
    1.5470   -9.9062    3.6686 N   0  0  0  0  0  0  0  0  0  0  0  0
    1.5647   -9.9605   -0.3967 N   0  0  0  0  0  0  0  0  0  0  0  0
    0.4542   -7.7591    1.0008 C   0  0  0  0  0  0  0  0  0  0  0  0
   -0.8073   -7.9449    0.4541 O   0  0  0  0  0  0  0  0  0  0  0  0
    1.1723   -6.8008    0.4248 N   0  0  0  0  0  0  0  0  0  0  0  0
    2.5834  -12.2175    3.6463 N   0  0  0  0  0  0  0  0  0  0  0  0
    1.4996   -5.7705    1.4071 C   0  0  0  0  0  0  0  0  0  0  0  0
    0.6121   -4.5830    1.2695 C   0  0  0  0  0  0  0  0  0  0  0  0
    0.9138   -3.4878    2.1452 C   0  0  0  0  0  0  0  0  0  0  0  0
    0.9925   -3.9204    3.5851 C   0  0  0  0  0  0  0  0  0  0  0  0
    2.1624   -4.6941    3.8188 S   0  0  0  0  0  0  0  0  0  0  0  0
   -0.5592   -4.6841    0.7152 O   0  0  0  0  0  0  0  0  0  0  0  0
  1  2  1  0
  4  8  1  0
  3  9  1  0
  9 10  2  0
  9 11  1  0
  6 12  1  0
 11 13  1  0
 13 14  1  0
 14 15  1  0
 15 16  1  0
 16 17  1  0
 14 18  2  0
  2  3  2  0
  3  4  1  0
  4  5  2  0
  5  6  1  0
  6  7  2  0
  2  7  1  0
M  END

$$$$
No_465-/export/home/yangzhenyu/potential_scad_32_flow//YTHDC2/2024-12-06-03-22-00/
     RDKit          3D

 19 19  0  0  1  0  0  0  0  0999 V2000
    1.1787   -8.0297    3.5154 F   0  0  0  0  0  0  0  0  0  0  0  0
    0.9085   -8.9213    2.9287 C   0  0  0  0  0  0  0  0  0  0  0  0
    0.9042   -8.7651    1.6474 C   0  0  0  0  0  0  0  0  0  0  0  0
    1.1632   -9.8140    0.8407 C   0  0  0  0  0  0  0  0  0  0  0  0
    1.3763  -11.0768    1.3698 C   0  0  0  0  0  0  0  0  0  0  0  0
    1.4870  -11.2132    2.7065 C   0  0  0  0  0  0  0  0  0  0  0  0
    1.3529  -10.0769    3.4809 C   0  0  0  0  0  0  0  0  0  0  0  0
    0.5012   -7.5508    1.0364 C   0  0  1  0  0  0  0  0  0  0  0  0
   -0.5116   -7.6241    0.0923 N   0  0  0  0  0  0  0  0  0  0  0  0
    1.8864  -12.4488    3.3367 C   0  0  0  0  0  0  0  0  0  0  0  0
    0.8284  -13.5061    3.2251 O   0  0  0  0  0  0  0  0  0  0  0  0
    0.7221   -6.3662    1.5184 Cl  0  0  0  0  0  0  0  0  0  0  0  0
    0.9455  -14.4661    2.3382 C   0  0  0  0  0  0  0  0  0  0  0  0
   -0.1866  -14.9598    2.0503 C   0  0  0  0  0  0  0  0  0  0  0  0
   -1.1390  -14.0978    1.7681 C   0  0  0  0  0  0  0  0  0  0  0  0
   -2.0175  -13.6561    2.6586 C   0  0  0  0  0  0  0  0  0  0  0  0
   -3.1093  -12.8573    2.2305 C   0  0  0  0  0  0  0  0  0  0  0  0
   -3.2589  -12.5219    0.9754 C   0  0  0  0  0  0  0  0  0  0  0  0
   -1.9045  -13.1991    0.2752 C   0  0  0  0  0  0  0  0  0  0  0  0
  1  2  1  0
  3  8  1  0
  8  9  1  1
  6 10  1  0
 10 11  1  0
  8 12  1  0
 11 13  1  0
 13 14  1  0
 14 15  1  0
 15 16  1  0
 16 17  2  3
 17 18  1  0
 18 19  2  0
  2  3  2  0
  3  4  1  0
  4  5  2  0
  5  6  1  0
  6  7  2  0
  2  7  1  0
M  END

$$$$
No_466-/export/home/yangzhenyu/potential_scad_32_flow//YTHDC2/2024-12-06-03-22-00/
     RDKit          3D

 18 18  0  0  0  0  0  0  0  0999 V2000
    1.1787   -8.0297    3.5154 C   0  0  0  0  0  0  0  0  0  0  0  0
    1.1048   -9.2215    3.2892 C   0  0  0  0  0  0  0  0  0  0  0  0
    1.3627  -10.1721    4.3044 C   0  0  0  0  0  0  0  0  0  0  0  0
    1.7354  -11.4730    3.9023 C   0  0  0  0  0  0  0  0  0  0  0  0
    1.8080  -11.8127    2.7216 C   0  0  0  0  0  0  0  0  0  0  0  0
    1.5854  -11.0021    1.7249 C   0  0  0  0  0  0  0  0  0  0  0  0
    1.3573   -9.7389    1.9287 C   0  0  0  0  0  0  0  0  0  0  0  0
    1.2865   -8.8078    0.9161 C   0  0  0  0  0  0  0  0  0  0  0  0
    1.6845   -9.1638   -0.2896 C   0  0  0  0  0  0  0  0  0  0  0  0
    2.0771  -13.2284    2.3629 C   0  0  0  0  0  0  0  0  0  0  0  0
    1.8625  -14.2425    3.1385 O   0  0  0  0  0  0  0  0  0  0  0  0
    2.9265  -13.4375    1.3576 O   0  0  0  0  0  0  0  0  0  0  0  0
    2.0139   -8.5770   -1.1857 O   0  0  0  0  0  0  0  0  0  0  0  0
    0.1140   -7.2117    3.3465 N   0  0  0  0  0  0  0  0  0  0  0  0
   -1.1409   -7.8035    3.4630 C   0  0  0  0  0  0  0  0  0  0  0  0
   -1.3976   -8.6721    4.1496 O   0  0  0  0  0  0  0  0  0  0  0  0
   -2.2982   -6.8098    3.3935 C   0  0  0  0  0  0  0  0  0  0  0  0
   -2.0367   -5.7472    2.6444 C   0  0  0  0  0  0  0  0  0  0  0  0
  1  2  1  0
  7  8  1  0
  8  9  2  3
  5 10  1  0
 10 11  1  0
 10 12  2  0
  9 13  1  0
  1 14  1  0
 14 15  1  0
 15 16  2  0
 15 17  1  0
 17 18  2  0
  2  3  2  0
  3  4  1  0
  4  5  2  0
  5  6  1  0
  6  7  2  0
  2  7  1  0
M  END

$$$$
No_467-/export/home/yangzhenyu/potential_scad_32_flow//YTHDC2/2024-12-06-03-22-00/
     RDKit          3D

 19 19  0  0  0  0  0  0  0  0999 V2000
    1.1787   -8.0297    3.5154 N   0  0  0  0  0  0  0  0  0  0  0  0
    0.8669   -7.0905    2.8589 C   0  0  0  0  0  0  0  0  0  0  0  0
    0.8842   -5.8387    3.2677 C   0  0  0  0  0  0  0  0  0  0  0  0
    1.2819   -9.4050    3.1259 C   0  0  0  0  0  0  0  0  0  0  0  0
    0.9577   -9.7285    2.0210 C   0  0  0  0  0  0  0  0  0  0  0  0
    0.5397   -8.8365    1.1063 C   0  0  0  0  0  0  0  0  0  0  0  0
    0.5474   -7.4800    1.4498 C   0  0  0  0  0  0  0  0  0  0  0  0
    0.1668   -6.5474    0.6211 C   0  0  0  0  0  0  0  0  0  0  0  0
    1.8318  -10.5193    4.3169 C   0  0  0  0  0  0  0  0  0  0  0  0
    3.0212  -10.5502    4.6266 O   0  0  0  0  0  0  0  0  0  0  0  0
    0.9258  -11.3626    4.6090 O   0  0  0  0  0  0  0  0  0  0  0  0
    0.4663   -5.3214    0.7206 O   0  0  0  0  0  0  0  0  0  0  0  0
   -0.5179   -6.8545   -0.4551 O   0  0  0  0  0  0  0  0  0  0  0  0
   -0.2959   -5.2422    3.5828 C   0  0  0  0  0  0  0  0  0  0  0  0
    2.1735   -5.1549    3.4419 C   0  0  0  0  0  0  0  0  0  0  0  0
   -0.1542   -3.8579    3.9313 C   0  0  0  0  0  0  0  0  0  0  0  0
   -1.4205   -3.0808    4.1205 C   0  0  0  0  0  0  0  0  0  0  0  0
   -1.1417   -1.9502    4.5844 O   0  0  0  0  0  0  0  0  0  0  0  0
    0.3408   -1.7917    4.4453 C   0  0  0  0  0  0  0  0  0  0  0  0
  2  3  1  0
  7  8  1  0
  4  9  1  0
  9 10  1  0
  9 11  2  0
  8 12  2  0
  8 13  1  0
  3 14  2  3
  3 15  1  0
 14 16  1  0
 16 17  1  0
 17 18  1  0
 18 19  1  0
  1  2  2  0
  2  7  1  0
  6  7  2  0
  5  6  1  0
  4  5  2  0
  1  4  1  0
M  END

$$$$
No_468-/export/home/yangzhenyu/potential_scad_32_flow//YTHDC2/2024-12-06-03-22-00/
     RDKit          3D

 18 18  0  0  1  0  0  0  0  0999 V2000
    1.1787   -8.0297    3.5154 O   0  0  0  0  0  0  0  0  0  0  0  0
    0.6747   -7.4019    2.7838 C   0  0  2  0  0  0  0  0  0  0  0  0
    0.7594   -8.0032    1.4295 C   0  0  0  0  0  0  0  0  0  0  0  0
    0.3459   -9.1500    1.3581 C   0  0  0  0  0  0  0  0  0  0  0  0
   -0.4155   -9.6726    2.0240 C   0  0  0  0  0  0  0  0  0  0  0  0
   -0.0317  -10.8325    2.6657 C   0  0  0  0  0  0  0  0  0  0  0  0
    1.1427  -11.4689    2.2181 C   0  0  0  0  0  0  0  0  0  0  0  0
    1.9817  -10.9207    1.2505 C   0  0  0  0  0  0  0  0  0  0  0  0
    1.5970   -9.7197    0.7186 C   0  0  0  0  0  0  0  0  0  0  0  0
    1.9613   -9.3049   -0.4678 C   0  0  0  0  0  0  0  0  0  0  0  0
    1.2405   -9.0842   -1.5957 O   0  0  0  0  0  0  0  0  0  0  0  0
    3.2766   -9.0423   -0.7189 O   0  0  0  0  0  0  0  0  0  0  0  0
    0.4077   -6.2000    3.1161 C   0  0  0  0  0  0  0  0  0  0  0  0
    1.3784   -5.1886    3.4148 C   0  0  0  0  0  0  0  0  0  0  0  0
    1.4652  -12.8120    2.6981 C   0  0  0  0  0  0  0  0  0  0  0  0
    1.6314  -13.8441    1.8865 O   0  0  0  0  0  0  0  0  0  0  0  0
    1.5023  -13.0498    3.9581 O   0  0  0  0  0  0  0  0  0  0  0  0
    1.1028   -3.8224    3.1499 O   0  0  0  0  0  0  0  0  0  0  0  0
  2  1  1  6
  2  3  1  0
  3  4  1  0
  9 10  1  0
 10 11  2  0
 10 12  1  0
  2 13  1  0
 13 14  1  0
  7 15  1  0
 15 16  2  0
 15 17  1  0
 14 18  1  0
  4  5  2  0
  5  6  1  0
  6  7  2  0
  7  8  1  0
  8  9  2  0
  4  9  1  0
M  END

$$$$
No_469-/export/home/yangzhenyu/potential_scad_32_flow//YTHDC2/2024-12-06-03-22-00/
     RDKit          3D

 18 17  0  0  1  0  0  0  0  0999 V2000
    1.1787   -8.0297    3.5154 C   0  0  0  0  0  0  0  0  0  0  0  0
    1.1048   -9.2215    3.2892 Cl  0  0  0  0  0  0  0  0  0  0  0  0
    1.1053   -7.0623    2.3233 C   0  0  0  0  0  0  0  0  0  0  0  0
    0.9916   -5.7309    2.4267 C   0  0  0  0  0  0  0  0  0  0  0  0
    0.8878   -5.1247    1.0062 C   0  0  0  0  0  0  0  0  0  0  0  0
   -0.0421   -4.7753    0.8594 C   0  0  0  0  0  0  0  0  0  0  0  0
    1.2816   -7.7178    0.9953 C   0  0  0  0  0  0  0  0  0  0  0  0
   -1.3461   -5.2700    1.3010 C   0  0  0  0  0  0  0  0  0  0  0  0
   -2.4568   -5.0466    0.4088 C   0  0  0  0  0  0  0  0  0  0  0  0
   -2.3319   -4.7514   -0.7597 O   0  0  0  0  0  0  0  0  0  0  0  0
   -3.6245   -4.7541    0.9673 O   0  0  0  0  0  0  0  0  0  0  0  0
    0.6498   -8.3414    0.1818 C   0  0  2  0  0  0  0  0  0  0  0  0
   -0.6055   -8.7357    0.4880 C   0  0  0  0  0  0  0  0  0  0  0  0
    0.9889   -8.9327   -1.0089 C   0  0  0  0  0  0  0  0  0  0  0  0
    2.2874   -9.3987   -1.0382 O   0  0  0  0  0  0  0  0  0  0  0  0
    0.5691   -8.7186   -2.1758 N   0  0  0  0  0  0  0  0  0  0  0  0
   -1.0533   -9.5764    1.4085 O   0  0  0  0  0  0  0  0  0  0  0  0
   -1.7445   -7.9922   -0.1903 O   0  0  0  0  0  0  0  0  0  0  0  0
  1  2  1  0
  1  3  1  0
  3  4  2  3
  4  5  1  0
  5  6  2  3
  3  7  1  0
  6  8  1  0
  8  9  1  0
  9 10  2  0
  9 11  1  0
 12  7  1  1
 12 13  1  0
 12 14  1  0
 14 15  2  0
 14 16  1  0
 13 17  1  0
 13 18  2  0
M  END

$$$$
No_470-/export/home/yangzhenyu/potential_scad_32_flow//YTHDC2/2024-12-06-03-22-00/
     RDKit          3D

 19 19  0  0  1  0  0  0  0  0999 V2000
    1.1787   -8.0297    3.5154 O   0  0  0  0  0  0  0  0  0  0  0  0
    0.9969   -8.9689    3.0048 C   0  0  1  0  0  0  0  0  0  0  0  0
    0.9976   -8.9567    1.6341 C   0  0  2  0  0  0  0  0  0  0  0  0
    1.6062   -9.9071    0.9292 C   0  0  0  0  0  0  0  0  0  0  0  0
    2.1191  -10.9757    1.6503 C   0  0  0  0  0  0  0  0  0  0  0  0
    2.1177  -10.9891    3.0403 C   0  0  1  0  0  0  0  0  0  0  0  0
    1.5441   -9.8905    3.6897 C   0  0  0  0  0  0  0  0  0  0  0  0
    0.5010   -7.8164    1.0436 C   0  0  0  0  0  0  0  0  0  0  0  0
    1.0624   -6.6356    1.1779 O   0  0  0  0  0  0  0  0  0  0  0  0
   -0.4567   -7.7893    0.1161 O   0  0  0  0  0  0  0  0  0  0  0  0
    1.6319  -10.1449    5.0154 O   0  0  0  0  0  0  0  0  0  0  0  0
    2.5895  -12.1989    3.5656 O   0  0  0  0  0  0  0  0  0  0  0  0
   -0.4808   -8.4458   -1.0878 C   0  0  0  0  0  0  0  0  0  0  0  0
   -1.4660   -9.4440   -1.0628 C   0  0  0  0  0  0  0  0  0  0  0  0
   -2.4130   -9.1612   -1.4611 O   0  0  0  0  0  0  0  0  0  0  0  0
   -1.1191  -10.5072   -0.4781 O   0  0  0  0  0  0  0  0  0  0  0  0
    0.2781   -8.1484   -2.0160 C   0  0  0  0  0  0  0  0  0  0  0  0
   -0.5286   -7.7625   -3.1539 C   0  0  0  0  0  0  0  0  0  0  0  0
   -1.3536   -8.4878   -3.8663 C   0  0  0  0  0  0  0  0  0  0  0  0
  2  1  1  1
  2  3  1  0
  4  5  1  0
  2  7  1  0
  6  7  1  0
  3  8  1  1
  8  9  2  0
  8 10  1  0
  7 11  2  0
  6 12  1  6
 10 13  1  0
 13 14  1  0
 14 15  2  0
 14 16  1  0
 13 17  1  0
 17 18  1  0
 18 19  1  0
  3  4  1  0
  5  6  1  0
M  END

$$$$
No_471-/export/home/yangzhenyu/potential_scad_32_flow//YTHDC2/2024-12-06-03-22-00/
     RDKit          3D

 20 20  0  0  0  0  0  0  0  0999 V2000
    1.1787   -8.0297    3.5154 C   0  0  0  0  0  0  0  0  0  0  0  0
    1.0491   -6.8434    2.9820 C   0  0  0  0  0  0  0  0  0  0  0  0
    1.9985   -8.9840    2.8958 C   0  0  0  0  0  0  0  0  0  0  0  0
    1.7297   -9.2108    1.6335 C   0  0  0  0  0  0  0  0  0  0  0  0
    1.5234   -8.1478    0.8618 C   0  0  0  0  0  0  0  0  0  0  0  0
    1.0558   -6.9632    1.4912 C   0  0  0  0  0  0  0  0  0  0  0  0
    1.5402   -8.1720   -0.5079 C   0  0  0  0  0  0  0  0  0  0  0  0
    0.4802   -8.4561   -1.1320 O   0  0  0  0  0  0  0  0  0  0  0  0
    2.6466   -8.3758   -1.1971 O   0  0  0  0  0  0  0  0  0  0  0  0
    2.2169  -10.4980    3.7251 C   0  0  0  0  0  0  0  0  0  0  0  0
    1.6214  -11.5023    3.6400 C   0  0  0  0  0  0  0  0  0  0  0  0
    0.2158  -11.3387    3.9139 O   0  0  0  0  0  0  0  0  0  0  0  0
    1.9635  -12.6345    3.3983 O   0  0  0  0  0  0  0  0  0  0  0  0
    0.7040   -5.7131    3.5530 Cl  0  0  0  0  0  0  0  0  0  0  0  0
    2.3153  -10.5062    0.8978 Cl  0  0  0  0  0  0  0  0  0  0  0  0
    3.2429  -10.2930    4.6101 O   0  0  0  0  0  0  0  0  0  0  0  0
    0.7605   -5.7874    0.8185 C   0  0  0  0  0  0  0  0  0  0  0  0
   -0.6848   -5.8278    0.3669 C   0  0  0  0  0  0  0  0  0  0  0  0
   -1.5442   -6.5899    0.7642 O   0  0  0  0  0  0  0  0  0  0  0  0
   -1.1323   -4.8055   -0.3640 O   0  0  0  0  0  0  0  0  0  0  0  0
  5  7  1  0
  7  8  2  0
  7  9  1  0
  3 10  1  0
 10 11  1  0
 11 12  1  0
 11 13  2  0
  2 14  1  0
  4 15  1  0
 10 16  2  0
  6 17  1  0
 17 18  1  0
 18 19  2  0
 18 20  1  0
  1  2  2  0
  2  6  1  0
  5  6  2  0
  4  5  1  0
  3  4  2  0
  1  3  1  0
M  END

$$$$
No_472-/export/home/yangzhenyu/potential_scad_32_flow//YTHDC2/2024-12-06-03-22-00/
     RDKit          3D

 18 19  0  0  0  0  0  0  0  0999 V2000
    1.1787   -8.0297    3.5154 C   0  0  0  0  0  0  0  0  0  0  0  0
    1.1048   -9.2215    3.2892 C   0  0  0  0  0  0  0  0  0  0  0  0
    1.3627  -10.1721    4.3044 C   0  0  0  0  0  0  0  0  0  0  0  0
    1.7354  -11.4730    3.9023 C   0  0  0  0  0  0  0  0  0  0  0  0
    1.8080  -11.8127    2.7216 C   0  0  0  0  0  0  0  0  0  0  0  0
    2.0797  -13.2205    2.4264 C   0  0  0  0  0  0  0  0  0  0  0  0
    1.0424   -7.1607    2.3029 C   0  0  0  0  0  0  0  0  0  0  0  0
    1.1066   -7.6297    1.0940 C   0  0  0  0  0  0  0  0  0  0  0  0
    1.2742   -8.8824    0.8244 C   0  0  0  0  0  0  0  0  0  0  0  0
    1.2734   -9.8055    1.8891 C   0  0  0  0  0  0  0  0  0  0  0  0
    1.6366  -11.0387    1.6628 C   0  0  0  0  0  0  0  0  0  0  0  0
    1.9294  -14.1619    3.3978 O   0  0  0  0  0  0  0  0  0  0  0  0
    2.4497  -13.5979    1.1799 O   0  0  0  0  0  0  0  0  0  0  0  0
    0.8979   -5.6430    2.5038 I   0  0  0  0  0  0  0  0  0  0  0  0
    1.4618   -9.4321   -0.6040 O   0  0  0  0  0  0  0  0  0  0  0  0
    1.7303  -11.4711    0.5161 O   0  0  0  0  0  0  0  0  0  0  0  0
    1.1572   -6.9012   -0.0196 O   0  0  0  0  0  0  0  0  0  0  0  0
    1.6595   -8.5516   -1.5510 C   0  0  0  0  0  0  0  0  0  0  0  0
  2  3  1  0
  4  5  1  0
  5  6  1  0
  5 11  1  0
 10 11  1  0
  6 12  2  0
  6 13  1  0
  7 14  1  0
  9 15  1  0
 11 16  2  0
  8 17  1  0
 15 18  1  0
  3  4  1  0
  1  2  2  0
  2 10  1  0
  9 10  2  0
  8  9  1  0
  7  8  2  0
  1  7  1  0
M  END

$$$$
No_473-/export/home/yangzhenyu/potential_scad_32_flow//YTHDC2/2024-12-06-03-22-00/
     RDKit          3D

 20 20  0  0  1  0  0  0  0  0999 V2000
    1.1787   -8.0297    3.5154 O   0  0  0  0  0  0  0  0  0  0  0  0
    0.9969   -8.9689    3.0048 C   0  0  0  0  0  0  0  0  0  0  0  0
    0.9976   -8.9567    1.6341 C   0  0  0  0  0  0  0  0  0  0  0  0
    0.7663   -7.7728    1.0082 C   0  0  0  0  0  0  0  0  0  0  0  0
    1.1468   -6.5619    1.6541 C   0  0  0  0  0  0  0  0  0  0  0  0
    0.8575   -5.3105    0.9942 C   0  0  0  0  0  0  0  0  0  0  0  0
    0.8018  -10.1566    3.6714 C   0  0  0  0  0  0  0  0  0  0  0  0
    1.8582  -11.0477    3.8464 C   0  0  0  0  0  0  0  0  0  0  0  0
    1.1617   -4.1825    1.9515 O   0  0  0  0  0  0  0  0  0  0  0  0
    1.7149  -12.3583    3.7052 C   0  0  0  0  0  0  0  0  0  0  0  0
    1.0116  -12.5755    2.3665 C   0  0  2  0  0  0  0  0  0  0  0  0
   -0.1841  -12.8359    2.3856 C   0  0  0  0  0  0  0  0  0  0  0  0
   -0.8987  -13.5176    2.9209 C   0  0  0  0  0  0  0  0  0  0  0  0
   -2.3400  -13.5058    2.6229 C   0  0  0  0  0  0  0  0  0  0  0  0
   -2.7489  -12.5853    1.7403 C   0  0  0  0  0  0  0  0  0  0  0  0
   -1.9272  -11.7821    1.0021 C   0  0  0  0  0  0  0  0  0  0  0  0
   -0.5404  -11.8898    1.1704 C   0  0  0  0  0  0  0  0  0  0  0  0
    0.5397   -5.0408    0.0019 O   0  0  0  0  0  0  0  0  0  0  0  0
    2.0874  -13.0230    1.4794 C   0  0  0  0  0  0  0  0  0  0  0  0
    2.2750  -12.3544    0.4489 O   0  0  0  0  0  0  0  0  0  0  0  0
  1  2  1  0
  2  3  1  0
  3  4  1  0
  4  5  1  0
  5  6  1  0
  2  7  1  0
  7  8  1  0
  6  9  1  0
  8 10  1  0
 11 10  1  1
 11 12  1  0
  6 18  2  0
 11 19  1  0
 19 20  2  0
 12 13  2  0
 13 14  1  0
 14 15  2  0
 15 16  1  0
 16 17  2  0
 12 17  1  0
M  END

$$$$
No_474-/export/home/yangzhenyu/potential_scad_32_flow//YTHDC2/2024-12-06-03-22-00/
     RDKit          3D

 18 19  0  0  0  0  0  0  0  0999 V2000
    1.1787   -8.0297    3.5154 Cl  0  0  0  0  0  0  0  0  0  0  0  0
    0.7279   -9.0023    2.8722 C   0  0  0  0  0  0  0  0  0  0  0  0
   -0.0117   -8.9271    1.8829 C   0  0  0  0  0  0  0  0  0  0  0  0
   -0.2543  -10.1657    1.2408 C   0  0  0  0  0  0  0  0  0  0  0  0
    0.0020  -11.3985    1.5577 C   0  0  0  0  0  0  0  0  0  0  0  0
    0.9301  -11.4970    2.6344 C   0  0  0  0  0  0  0  0  0  0  0  0
    1.3031  -10.3535    3.2942 C   0  0  0  0  0  0  0  0  0  0  0  0
    2.1347  -10.5317    4.3636 N   0  0  0  0  0  0  0  0  0  0  0  0
   -1.2089  -10.0376   -0.0201 C   0  0  0  0  0  0  0  0  0  0  0  0
   -2.3574  -10.5692   -0.0938 C   0  0  0  0  0  0  0  0  0  0  0  0
   -2.7674  -10.9342   -1.3237 C   0  0  0  0  0  0  0  0  0  0  0  0
   -2.2638  -10.4202   -2.4727 C   0  0  0  0  0  0  0  0  0  0  0  0
   -1.0388   -9.6834   -2.4182 C   0  0  0  0  0  0  0  0  0  0  0  0
   -0.4568   -9.4759   -1.1421 C   0  0  0  0  0  0  0  0  0  0  0  0
    0.5542   -8.6257   -1.0661 P   0  0  0  0  0  0  0  0  0  0  0  0
    1.3016   -8.7745    0.2554 O   0  0  0  0  0  0  0  0  0  0  0  0
    0.2009   -7.2338   -0.9276 O   0  0  0  0  0  0  0  0  0  0  0  0
    1.4374   -8.6417   -2.2026 O   0  0  0  0  0  0  0  0  0  0  0  0
  1  2  1  0
  4  9  1  0
 14 15  1  0
 15 16  1  0
 15 17  1  0
 15 18  2  0
  7  8  1  0
  2  3  2  0
  3  4  1  0
  4  5  2  0
  5  6  1  0
  6  7  2  0
  2  7  1  0
  9 10  2  0
 10 11  1  0
 11 12  2  0
 12 13  1  0
 13 14  2  0
  9 14  1  0
M  END

$$$$
No_475-/export/home/yangzhenyu/potential_scad_32_flow//YTHDC2/2024-12-06-03-22-00/
     RDKit          3D

 19 19  0  0  1  0  0  0  0  0999 V2000
    1.1787   -8.0297    3.5154 C   0  0  0  0  0  0  0  0  0  0  0  0
    1.1048   -9.2215    3.2892 C   0  0  1  0  0  0  0  0  0  0  0  0
    1.2339   -9.7611    2.0189 C   0  0  0  0  0  0  0  0  0  0  0  0
    1.1954  -11.2312    1.8661 C   0  0  0  0  0  0  0  0  0  0  0  0
    1.2996  -11.5815    0.5387 O   0  0  0  0  0  0  0  0  0  0  0  0
    1.3149   -7.1045    2.3637 C   0  0  1  0  0  0  0  0  0  0  0  0
    1.2262   -7.9529    1.0350 C   0  0  0  0  0  0  0  0  0  0  0  0
    1.4135   -9.0196    0.8489 C   0  0  0  0  0  0  0  0  0  0  0  0
    1.5179  -11.9926    2.8188 O   0  0  0  0  0  0  0  0  0  0  0  0
    1.1644   -5.6881    2.4233 C   0  0  0  0  0  0  0  0  0  0  0  0
    1.5216   -9.4411   -0.3731 O   0  0  0  0  0  0  0  0  0  0  0  0
    1.6774   -5.1009    3.4255 O   0  0  0  0  0  0  0  0  0  0  0  0
    0.7920   -4.9841    1.4173 O   0  0  0  0  0  0  0  0  0  0  0  0
    1.1122  -10.1132    4.4295 S   0  0  0  0  0  0  0  0  0  0  0  0
   -0.1825  -10.9132    4.5284 C   0  0  0  0  0  0  0  0  0  0  0  0
   -1.4309  -10.4770    4.1397 P   0  0  0  0  0  0  0  0  0  0  0  0
   -1.9737   -9.4933    5.1076 O   0  0  0  0  0  0  0  0  0  0  0  0
   -1.6211  -10.0327    2.8059 O   0  0  0  0  0  0  0  0  0  0  0  0
   -2.5608  -11.6328    4.3148 O   0  0  0  0  0  0  0  0  0  0  0  0
  1  2  1  0
  3  4  1  0
  4  5  1  0
  6  7  1  0
  3  8  1  0
  7  8  1  0
  4  9  2  0
  6 10  1  6
  8 11  2  0
 10 12  1  0
 10 13  2  0
  2 14  1  1
 14 15  1  0
 15 16  1  0
 16 17  1  0
 16 18  2  0
 16 19  1  0
  2  3  1  0
  1  6  1  0
M  END

$$$$
No_476-/export/home/yangzhenyu/potential_scad_32_flow//YTHDC2/2024-12-06-03-22-00/
     RDKit          3D

 19 19  0  0  1  0  0  0  0  0999 V2000
    1.1787   -8.0297    3.5154 O   0  0  0  0  0  0  0  0  0  0  0  0
    0.9969   -8.9689    3.0048 C   0  0  1  0  0  0  0  0  0  0  0  0
    0.9976   -8.9567    1.6341 C   0  0  0  0  0  0  0  0  0  0  0  0
    0.7663   -7.7728    1.0082 C   0  0  1  0  0  0  0  0  0  0  0  0
    1.1468   -6.5619    1.6541 I   0  0  0  0  0  0  0  0  0  0  0  0
    0.9186  -10.2277    3.6485 C   0  0  0  0  0  0  0  0  0  0  0  0
   -0.0930  -10.8573    3.9986 C   0  0  0  0  0  0  0  0  0  0  0  0
   -0.2559  -12.1708    3.7022 C   0  0  0  0  0  0  0  0  0  0  0  0
    0.7060  -12.9998    3.4334 C   0  0  0  0  0  0  0  0  0  0  0  0
    1.9660  -12.4632    3.0914 C   0  0  0  0  0  0  0  0  0  0  0  0
    2.1056  -11.1068    3.2164 C   0  0  0  0  0  0  0  0  0  0  0  0
    0.6314  -14.5176    3.2701 C   0  0  0  0  0  0  0  0  0  0  0  0
   -0.3277  -15.1645    3.4729 N   0  0  0  0  0  0  0  0  0  0  0  0
    1.8201  -15.1821    3.0165 O   0  0  0  0  0  0  0  0  0  0  0  0
    0.9060   -8.0558   -0.5185 C   0  0  0  0  0  0  0  0  0  0  0  0
    1.8696   -8.5416   -1.1641 O   0  0  0  0  0  0  0  0  0  0  0  0
   -0.1336   -7.7073   -1.2906 O   0  0  0  0  0  0  0  0  0  0  0  0
   -0.4313  -16.5584    3.5259 C   0  0  0  0  0  0  0  0  0  0  0  0
   -0.3887  -17.3310    2.4657 C   0  0  0  0  0  0  0  0  0  0  0  0
  2  1  1  6
  2  3  1  0
  3  4  1  0
  4  5  1  1
  2  6  1  0
  9 12  1  0
 12 13  1  0
 12 14  2  0
  4 15  1  0
 15 16  2  0
 15 17  1  0
 13 18  1  0
 18 19  1  0
  6  7  2  0
  7  8  1  0
  8  9  2  0
  9 10  1  0
 10 11  2  0
  6 11  1  0
M  END

$$$$
No_477-/export/home/yangzhenyu/potential_scad_32_flow//YTHDC2/2024-12-06-03-22-00/
     RDKit          3D

 20 19  0  0  1  0  0  0  0  0999 V2000
    1.1787   -8.0297    3.5154 C   0  0  0  0  0  0  0  0  0  0  0  0
    1.0491   -6.8434    2.9820 C   0  0  0  0  0  0  0  0  0  0  0  0
    1.9985   -8.9840    2.8958 C   0  0  0  0  0  0  0  0  0  0  0  0
    1.9135  -10.3404    3.6266 C   0  0  2  0  0  0  0  0  0  0  0  0
    2.2847  -10.5440    4.7936 C   0  0  0  0  0  0  0  0  0  0  0  0
    0.3304   -6.7696    1.8077 C   0  0  2  0  0  0  0  0  0  0  0  0
    0.3816   -7.5583    0.9388 C   0  0  0  0  0  0  0  0  0  0  0  0
    0.4592   -5.2950    1.3477 C   0  0  0  0  0  0  0  0  0  0  0  0
    1.6480  -11.4171    2.7598 C   0  0  0  0  0  0  0  0  0  0  0  0
    1.5554  -12.6293    3.2580 C   0  0  0  0  0  0  0  0  0  0  0  0
    0.1311  -13.1022    3.1956 C   0  0  0  0  0  0  0  0  0  0  0  0
   -0.7865  -12.3475    2.6510 O   0  0  0  0  0  0  0  0  0  0  0  0
   -0.0049  -14.5410    2.5872 O   0  0  0  0  0  0  0  0  0  0  0  0
    1.8810  -11.1034    5.7692 N   0  0  0  0  0  0  0  0  0  0  0  0
    3.7000   -9.9490    5.2597 O   0  0  0  0  0  0  0  0  0  0  0  0
    1.3637   -4.4839    1.7021 O   0  0  0  0  0  0  0  0  0  0  0  0
   -0.5295   -4.7445    0.6567 C   0  0  0  0  0  0  0  0  0  0  0  0
   -1.5076   -5.5179    0.0890 N   0  0  0  0  0  0  0  0  0  0  0  0
    0.9890  -11.5766    5.7473 H   0  0  0  0  0  0  0  0  0  0  0  0
   -1.4819   -6.5221    0.1940 H   0  0  0  0  0  0  0  0  0  0  0  0
  1  2  1  0
  1  3  1  0
  4  3  1  6
  4  5  1  0
  2  6  1  0
  6  7  1  6
  6  8  1  0
  4  9  1  0
  9 10  1  0
 10 11  1  0
 11 12  1  0
 11 13  1  0
  5 14  2  0
  5 15  1  0
  8 16  2  0
  8 17  1  0
 17 18  2  0
 14 19  1  0
 18 20  1  0
M  END

$$$$
No_478-/export/home/yangzhenyu/potential_scad_32_flow//YTHDC2/2024-12-06-03-22-00/
     RDKit          3D

 18 18  0  0  0  0  0  0  0  0999 V2000
    1.1787   -8.0297    3.5154 N   0  0  0  0  0  0  0  0  0  0  0  0
    0.8669   -7.0905    2.8589 C   0  0  0  0  0  0  0  0  0  0  0  0
    0.8842   -5.8387    3.2677 C   0  0  0  0  0  0  0  0  0  0  0  0
    1.2042   -9.3413    3.1417 C   0  0  0  0  0  0  0  0  0  0  0  0
    0.8983   -9.6945    2.0312 N   0  0  0  0  0  0  0  0  0  0  0  0
    0.3994   -8.8617    1.1487 C   0  0  0  0  0  0  0  0  0  0  0  0
    0.4542   -7.5076    1.4723 C   0  0  0  0  0  0  0  0  0  0  0  0
    0.1550   -9.1781   -0.1782 C   0  0  0  0  0  0  0  0  0  0  0  0
    1.7144  -10.3974    4.1282 C   0  0  0  0  0  0  0  0  0  0  0  0
   -0.9699  -10.0632   -0.3008 O   0  0  0  0  0  0  0  0  0  0  0  0
    0.6528   -8.7107   -1.2563 O   0  0  0  0  0  0  0  0  0  0  0  0
   -0.0671   -4.9458    2.8117 O   0  0  0  0  0  0  0  0  0  0  0  0
    1.8953   -5.2840    3.9560 O   0  0  0  0  0  0  0  0  0  0  0  0
    2.9119  -10.5433    4.5046 C   0  0  0  0  0  0  0  0  0  0  0  0
    0.6560  -11.2851    4.5845 C   0  0  0  0  0  0  0  0  0  0  0  0
    3.2652  -11.6874    5.2591 O   0  0  0  0  0  0  0  0  0  0  0  0
   -0.5961  -10.7903    4.3764 C   0  0  0  0  0  0  0  0  0  0  0  0
   -1.1825   -9.7352    5.0934 C   0  0  0  0  0  0  0  0  0  0  0  0
  2  3  1  0
  6  8  1  0
  4  9  1  0
  8 10  1  0
  8 11  2  0
  3 12  1  0
  3 13  2  0
  9 14  1  0
  9 15  1  0
 14 16  2  0
 15 17  1  0
 17 18  2  0
  1  2  2  0
  2  7  1  0
  6  7  2  0
  5  6  1  0
  4  5  2  0
  1  4  1  0
M  END

$$$$
No_479-/export/home/yangzhenyu/potential_scad_32_flow//YTHDC2/2024-12-06-03-22-00/
     RDKit          3D

 19 20  0  0  1  0  0  0  0  0999 V2000
    1.1787   -8.0297    3.5154 O   0  0  0  0  0  0  0  0  0  0  0  0
    0.6747   -7.4019    2.7838 C   0  0  0  0  0  0  0  0  0  0  0  0
    0.7594   -8.0032    1.4295 C   0  0  0  0  0  0  0  0  0  0  0  0
    0.3459   -9.1500    1.3581 C   0  0  0  0  0  0  0  0  0  0  0  0
    1.1876  -10.0065    2.0240 C   0  0  2  0  0  0  0  0  0  0  0  0
    1.9076   -9.7379    2.7265 C   0  0  0  0  0  0  0  0  0  0  0  0
    2.6678  -11.1535    2.9505 C   0  0  0  0  0  0  0  0  0  0  0  0
    2.1272  -11.9195    2.1886 N   0  0  0  0  0  0  0  0  0  0  0  0
    1.1426  -11.2955    1.4439 C   0  0  0  0  0  0  0  0  0  0  0  0
    0.5175   -6.0408    3.0306 O   0  0  0  0  0  0  0  0  0  0  0  0
    0.4870  -11.8081    0.5402 C   0  0  0  0  0  0  0  0  0  0  0  0
    0.2878  -13.1707    0.3758 C   0  0  0  0  0  0  0  0  0  0  0  0
   -0.5347  -13.7291   -0.6096 C   0  0  0  0  0  0  0  0  0  0  0  0
   -0.3873  -15.0881   -0.9184 C   0  0  0  0  0  0  0  0  0  0  0  0
    0.3936  -15.8900   -0.0989 C   0  0  0  0  0  0  0  0  0  0  0  0
    1.2134  -15.3806    0.8416 C   0  0  0  0  0  0  0  0  0  0  0  0
    1.1554  -14.0387    1.1711 C   0  0  0  0  0  0  0  0  0  0  0  0
   -0.5878   -9.2847    0.3799 O   0  0  0  0  0  0  0  0  0  0  0  0
    1.9773  -16.2723    1.5396 O   0  0  0  0  0  0  0  0  0  0  0  0
  1  2  1  0
  2  3  1  0
  3  4  1  0
  5  4  1  6
  5  6  1  0
  6  7  2  0
  7  8  1  0
  5  9  1  0
  8  9  1  0
  2 10  2  0
  9 11  1  0
  4 18  2  0
 16 19  1  0
 11 12  1  0
 12 13  2  0
 13 14  1  0
 14 15  2  0
 15 16  1  0
 16 17  2  0
 12 17  1  0
M  END

$$$$
No_480-/export/home/yangzhenyu/potential_scad_32_flow//YTHDC2/2024-12-06-03-22-00/
     RDKit          3D

 19 19  0  0  1  0  0  0  0  0999 V2000
    1.1787   -8.0297    3.5154 C   0  0  0  0  0  0  0  0  0  0  0  0
    1.0491   -6.8434    2.9820 C   0  0  0  0  0  0  0  0  0  0  0  0
    0.9905   -9.0774    2.6527 C   0  0  1  0  0  0  0  0  0  0  0  0
    0.7897   -8.9519    1.3691 C   0  0  0  0  0  0  0  0  0  0  0  0
    0.7018   -7.7198    0.7892 C   0  0  0  0  0  0  0  0  0  0  0  0
    0.8918   -6.5957    1.6117 C   0  0  0  0  0  0  0  0  0  0  0  0
    1.0998  -10.4710    3.2437 C   0  0  0  0  0  0  0  0  0  0  0  0
    0.0472  -11.2546    3.3963 C   0  0  0  0  0  0  0  0  0  0  0  0
    0.1622  -12.5732    3.4140 C   0  0  0  0  0  0  0  0  0  0  0  0
    1.4182  -13.1957    3.4048 C   0  0  0  0  0  0  0  0  0  0  0  0
    1.4947  -14.7093    3.1402 C   0  0  0  0  0  0  0  0  0  0  0  0
    0.2472  -15.3423    3.3057 N   0  0  0  0  0  0  0  0  0  0  0  0
    0.8508   -5.2849    1.2144 O   0  0  0  0  0  0  0  0  0  0  0  0
    2.5208  -15.3862    3.0225 O   0  0  0  0  0  0  0  0  0  0  0  0
    2.4478  -10.7700    3.6773 O   0  0  0  0  0  0  0  0  0  0  0  0
    0.6818   -9.9871    0.3712 O   0  0  0  0  0  0  0  0  0  0  0  0
    0.2322  -16.7081    3.0009 C   0  0  0  0  0  0  0  0  0  0  0  0
    0.1943  -17.2255    1.7247 C   0  0  0  0  0  0  0  0  0  0  0  0
    1.0458  -18.3315    1.6137 O   0  0  0  0  0  0  0  0  0  0  0  0
  1  2  1  0
  3  4  1  0
  2  6  1  0
  5  6  1  0
  3  7  1  6
  7  8  1  0
  8  9  2  3
  9 10  1  0
 10 11  1  0
 11 12  1  0
  6 13  2  0
 11 14  2  0
  7 15  2  0
  4 16  1  0
 12 17  1  0
 17 18  1  0
 18 19  1  0
  1  3  1  0
  4  5  1  0
M  END

$$$$
No_481-/export/home/yangzhenyu/potential_scad_32_flow//YTHDC2/2024-12-06-03-22-00/
     RDKit          3D

 16 16  0  0  1  0  0  0  0  0999 V2000
    1.1787   -8.0297    3.5154 C   0  0  0  0  0  0  0  0  0  0  0  0
    1.1048   -9.2215    3.2892 C   0  0  1  0  0  0  0  0  0  0  0  0
    1.2339   -9.7611    2.0189 C   0  0  0  0  0  0  0  0  0  0  0  0
    1.4306   -8.9466    1.1170 C   0  0  2  0  0  0  0  0  0  0  0  0
    1.7533   -9.5159   -0.2897 C   0  0  0  0  0  0  0  0  0  0  0  0
    1.4215   -7.0791    2.4025 C   0  0  1  0  0  0  0  0  0  0  0  0
    1.5409   -7.5780    1.1516 C   0  0  0  0  0  0  0  0  0  0  0  0
    2.0997   -8.7639   -1.2659 O   0  0  0  0  0  0  0  0  0  0  0  0
    1.2966  -10.6872   -0.4761 O   0  0  0  0  0  0  0  0  0  0  0  0
    0.9938  -10.1776    4.4115 C   0  0  0  0  0  0  0  0  0  0  0  0
    0.7659  -11.7248    3.9657 C   0  0  0  0  0  0  0  0  0  0  0  0
    1.9904  -12.5256    4.1008 I   0  0  0  0  0  0  0  0  0  0  0  0
    1.4063   -5.6061    2.6809 Cl  0  0  0  0  0  0  0  0  0  0  0  0
   -0.4411  -12.1037    3.5420 O   0  0  0  0  0  0  0  0  0  0  0  0
    1.7007   -6.8415    0.2139 O   0  0  0  0  0  0  0  0  0  0  0  0
    0.7675   -9.9041    5.5617 O   0  0  0  0  0  0  0  0  0  0  0  0
  1  2  1  0
  3  4  1  0
  4  5  1  1
  4  7  1  0
  6  7  1  0
  5  8  2  0
  5  9  1  0
  2 10  1  1
 10 11  1  0
 11 12  1  0
  6 13  1  6
 11 14  2  0
  7 15  2  0
 10 16  2  0
  2  3  1  0
  1  6  1  0
M  END

$$$$
No_482-/export/home/yangzhenyu/potential_scad_32_flow//YTHDC2/2024-12-06-03-22-00/
     RDKit          3D

 19 19  0  0  1  0  0  0  0  0999 V2000
    1.1787   -8.0297    3.5154 N   0  0  0  0  0  0  0  0  0  0  0  0
    0.8669   -7.0905    2.8589 C   0  0  0  0  0  0  0  0  0  0  0  0
    1.0447   -7.3244    1.4123 C   0  0  0  0  0  0  0  0  0  0  0  0
    1.3746   -8.4389    1.0864 C   0  0  0  0  0  0  0  0  0  0  0  0
    1.8493   -9.4093    1.8124 C   0  0  0  0  0  0  0  0  0  0  0  0
    1.7421   -9.2119    3.1541 C   0  0  0  0  0  0  0  0  0  0  0  0
    2.0453  -10.3375    4.1403 C   0  0  1  0  0  0  0  0  0  0  0  0
    1.7628   -8.7393   -0.5317 C   0  0  0  0  0  0  0  0  0  0  0  0
    0.9309   -8.7274   -1.1779 O   0  0  0  0  0  0  0  0  0  0  0  0
    2.9903   -8.8606   -0.9541 O   0  0  0  0  0  0  0  0  0  0  0  0
    3.1568  -10.5066    4.6181 P   0  0  0  0  0  0  0  0  0  0  0  0
    3.3739  -10.1462    5.9304 O   0  0  0  0  0  0  0  0  0  0  0  0
    4.4252   -9.9608    3.9733 O   0  0  0  0  0  0  0  0  0  0  0  0
    3.3832  -12.1311    4.6799 O   0  0  0  0  0  0  0  0  0  0  0  0
    0.8411  -11.0787    4.4610 C   0  0  0  0  0  0  0  0  0  0  0  0
   -0.3670  -11.1723    3.5920 O   0  0  0  0  0  0  0  0  0  0  0  0
    0.6425  -11.5649    5.5029 O   0  0  0  0  0  0  0  0  0  0  0  0
    0.5099   -5.8203    3.3187 C   0  0  0  0  0  0  0  0  0  0  0  0
    1.4799   -4.7757    3.4828 N   0  0  0  0  0  0  0  0  0  0  0  0
  6  7  1  0
  4  8  1  0
  8  9  2  0
  8 10  1  0
  7 11  1  0
 11 12  1  0
 11 13  2  0
 11 14  1  0
  7 15  1  1
 15 16  2  0
 15 17  1  0
  2 18  1  0
 18 19  1  0
  1  2  2  0
  2  3  1  0
  3  4  2  0
  4  5  1  0
  5  6  2  0
  1  6  1  0
M  END

$$$$
No_483-/export/home/yangzhenyu/potential_scad_32_flow//YTHDC2/2024-12-06-03-22-00/
     RDKit          3D

 19 19  0  0  1  0  0  0  0  0999 V2000
    1.1787   -8.0297    3.5154 C   0  0  0  0  0  0  0  0  0  0  0  0
    1.1048   -9.2215    3.2892 P   0  0  1  0  0  0  0  0  0  0  0  0
    1.8083   -9.6820    2.1466 C   0  0  0  0  0  0  0  0  0  0  0  0
    1.8432   -8.9413    0.9485 C   0  0  1  0  0  0  0  0  0  0  0  0
    1.6606   -7.5750    1.0143 C   0  0  0  0  0  0  0  0  0  0  0  0
    1.1224   -7.0018    2.2472 C   0  0  2  0  0  0  0  0  0  0  0  0
    1.6085  -10.1118    4.5168 O   0  0  0  0  0  0  0  0  0  0  0  0
    2.1561   -9.3203   -0.3018 C   0  0  0  0  0  0  0  0  0  0  0  0
    2.9231   -8.6286   -0.9855 O   0  0  0  0  0  0  0  0  0  0  0  0
   -0.3942   -9.6394    3.4547 O   0  0  0  0  0  0  0  0  0  0  0  0
    1.9206  -10.4904   -0.7559 O   0  0  0  0  0  0  0  0  0  0  0  0
    0.7753   -5.6370    2.5084 C   0  0  0  0  0  0  0  0  0  0  0  0
    0.8100   -4.9299    1.6892 C   0  0  0  0  0  0  0  0  0  0  0  0
    0.4764   -3.5058    1.9267 C   0  0  0  0  0  0  0  0  0  0  0  0
    1.1580   -2.7329    3.0290 C   0  0  0  0  0  0  0  0  0  0  0  0
    0.5787   -2.2367    3.7484 C   0  0  0  0  0  0  0  0  0  0  0  0
   -0.2988   -2.8083    4.8078 C   0  0  0  0  0  0  0  0  0  0  0  0
   -1.7637   -2.5661    4.5253 C   0  0  0  0  0  0  0  0  0  0  0  0
   -2.0111   -2.6509    3.0375 O   0  0  0  0  0  0  0  0  0  0  0  0
  1  2  1  0
  2  3  1  0
  3  4  1  0
  4  5  1  0
  6  1  1  1
  5  6  1  0
  2  7  1  1
  4  8  1  1
  8  9  2  0
  2 10  2  0
  8 11  1  0
  6 12  1  0
 12 13  2  3
 13 14  1  0
 14 15  1  0
 15 16  1  0
 16 17  1  0
 17 18  1  0
 18 19  2  0
M  END

$$$$
No_484-/export/home/yangzhenyu/potential_scad_32_flow//YTHDC2/2024-12-06-03-22-00/
     RDKit          3D

 20 20  0  0  1  0  0  0  0  0999 V2000
    1.1787   -8.0297    3.5154 C   0  0  0  0  0  0  0  0  0  0  0  0
    1.0491   -6.8434    2.9820 C   0  0  0  0  0  0  0  0  0  0  0  0
    1.9985   -8.9840    2.8958 C   0  0  2  0  0  0  0  0  0  0  0  0
    1.7297   -9.2108    1.6335 C   0  0  0  0  0  0  0  0  0  0  0  0
    1.7343   -8.0566    0.8408 C   0  0  2  0  0  0  0  0  0  0  0  0
    1.0269   -6.8892    1.4456 C   0  0  0  0  0  0  0  0  0  0  0  0
    2.0740   -7.9416   -0.3682 C   0  0  0  0  0  0  0  0  0  0  0  0
    2.2588   -9.0634   -1.1089 O   0  0  0  0  0  0  0  0  0  0  0  0
    2.3796  -10.1799    3.6333 C   0  0  0  0  0  0  0  0  0  0  0  0
    1.4421  -11.0490    4.0511 C   0  0  0  0  0  0  0  0  0  0  0  0
    0.2576  -10.7428    4.1924 O   0  0  0  0  0  0  0  0  0  0  0  0
    1.8362  -12.2584    4.4521 O   0  0  0  0  0  0  0  0  0  0  0  0
    2.3393   -7.0538   -1.0552 O   0  0  0  0  0  0  0  0  0  0  0  0
    0.6766   -5.6768    3.4690 O   0  0  0  0  0  0  0  0  0  0  0  0
    1.8053  -10.3863    1.0397 O   0  0  0  0  0  0  0  0  0  0  0  0
    0.7940   -5.7367    0.8782 O   0  0  0  0  0  0  0  0  0  0  0  0
    1.4914  -13.3222    3.3874 C   0  0  0  0  0  0  0  0  0  0  0  0
    0.3760  -13.1883    2.5972 C   0  0  0  0  0  0  0  0  0  0  0  0
    0.6878  -13.6730    1.4143 C   0  0  0  0  0  0  0  0  0  0  0  0
   -0.1305  -13.2771    0.3032 C   0  0  0  0  0  0  0  0  0  0  0  0
  1  2  1  0
  1  3  1  0
  3  4  1  0
  4  5  1  0
  2  6  1  0
  5  6  1  0
  5  7  1  6
  7  8  1  0
  3  9  1  1
  9 10  1  0
 10 11  2  0
 10 12  1  0
  7 13  2  0
  2 14  2  0
  4 15  2  0
  6 16  2  0
 12 17  1  0
 17 18  1  0
 18 19  1  0
 19 20  2  0
M  END

$$$$
No_485-/export/home/yangzhenyu/potential_scad_32_flow//YTHDC2/2024-12-06-03-22-00/
     RDKit          3D

 18 18  0  0  0  0  0  0  0  0999 V2000
    1.1787   -8.0297    3.5154 C   0  0  0  0  0  0  0  0  0  0  0  0
    1.1048   -9.2215    3.2892 C   0  0  0  0  0  0  0  0  0  0  0  0
    1.3627  -10.1721    4.3044 C   0  0  0  0  0  0  0  0  0  0  0  0
    1.7354  -11.4730    3.9023 C   0  0  0  0  0  0  0  0  0  0  0  0
    1.8080  -11.8127    2.7216 C   0  0  0  0  0  0  0  0  0  0  0  0
    1.5854  -11.0021    1.7249 C   0  0  0  0  0  0  0  0  0  0  0  0
    1.3573   -9.7389    1.9287 C   0  0  0  0  0  0  0  0  0  0  0  0
    1.1102   -8.8712    0.9017 C   0  0  0  0  0  0  0  0  0  0  0  0
    0.5299   -7.6926    1.0325 O   0  0  0  0  0  0  0  0  0  0  0  0
    1.1841   -9.3630   -0.4581 O   0  0  0  0  0  0  0  0  0  0  0  0
    2.1111  -13.2043    2.3260 S   0  0  0  0  0  0  0  0  0  0  0  0
    1.7242  -14.2012    3.3878 O   0  0  0  0  0  0  0  0  0  0  0  0
    1.1529  -13.6598    1.1157 C   0  0  0  0  0  0  0  0  0  0  0  0
    3.4680  -13.6629    2.0840 O   0  0  0  0  0  0  0  0  0  0  0  0
    2.5107   -7.3612    3.5526 O   0  0  0  0  0  0  0  0  0  0  0  0
    0.2035   -7.3087    3.7985 O   0  0  0  0  0  0  0  0  0  0  0  0
   -0.1147  -13.4234    1.0278 C   0  0  0  0  0  0  0  0  0  0  0  0
   -0.9905  -13.7058    1.7570 C   0  0  0  0  0  0  0  0  0  0  0  0
  1  2  1  0
  7  8  1  0
  8  9  2  0
  8 10  1  0
  5 11  1  0
 11 12  2  0
 11 13  1  0
 11 14  2  0
  1 15  2  0
  1 16  1  0
 13 17  1  0
 17 18  1  0
  2  3  2  0
  3  4  1  0
  4  5  2  0
  5  6  1  0
  6  7  2  0
  2  7  1  0
M  END

$$$$
No_486-/export/home/yangzhenyu/potential_scad_32_flow//YTHDC2/2024-12-06-03-22-00/
     RDKit          3D

 18 18  0  0  1  0  0  0  0  0999 V2000
    1.1787   -8.0297    3.5154 C   0  0  0  0  0  0  0  0  0  0  0  0
    1.0491   -6.8434    2.9820 P   0  0  2  0  0  0  0  0  0  0  0  0
   -0.0813   -6.5951    2.3686 O   0  0  0  0  0  0  0  0  0  0  0  0
    2.4013   -6.6010    1.9007 O   0  0  0  0  0  0  0  0  0  0  0  0
    0.2183   -9.1235    3.3237 Cl  0  0  0  0  0  0  0  0  0  0  0  0
    1.5511   -5.7512    3.9217 O   0  0  0  0  0  0  0  0  0  0  0  0
   -0.9049   -5.5526    2.8239 C   0  0  1  0  0  0  0  0  0  0  0  0
   -0.8629   -4.4150    1.7948 C   0  0  0  0  0  0  0  0  0  0  0  0
   -1.4843   -3.3867    2.1683 O   0  0  0  0  0  0  0  0  0  0  0  0
   -0.1488   -4.4543    0.7739 O   0  0  0  0  0  0  0  0  0  0  0  0
    2.5473   -8.7204    3.9545 O   0  0  0  0  0  0  0  0  0  0  0  0
   -2.4722   -6.0834    2.7950 C   0  0  0  0  0  0  0  0  0  0  0  0
   -2.8342   -6.8218    1.8316 C   0  0  0  0  0  0  0  0  0  0  0  0
   -2.6547   -8.0374    1.8480 C   0  0  0  0  0  0  0  0  0  0  0  0
   -2.2364   -8.7444    0.7198 C   0  0  0  0  0  0  0  0  0  0  0  0
   -2.4571   -8.2323   -0.5045 C   0  0  0  0  0  0  0  0  0  0  0  0
   -2.7796   -6.8792   -0.5789 C   0  0  0  0  0  0  0  0  0  0  0  0
   -2.9104   -6.1483    0.5720 C   0  0  0  0  0  0  0  0  0  0  0  0
  1  2  1  0
  2  3  1  0
  2  4  1  6
  1  5  1  0
  2  6  2  0
  3  7  1  0
  7  8  1  0
  8  9  1  0
  8 10  2  0
  1 11  2  0
  7 12  1  6
 12 13  1  0
 13 14  2  0
 14 15  1  0
 15 16  2  0
 16 17  1  0
 17 18  2  0
 13 18  1  0
M  END

$$$$
No_487-/export/home/yangzhenyu/potential_scad_32_flow//YTHDC2/2024-12-06-03-22-00/
     RDKit          3D

 18 18  0  0  1  0  0  0  0  0999 V2000
    1.1787   -8.0297    3.5154 Cl  0  0  0  0  0  0  0  0  0  0  0  0
    0.7279   -9.0023    2.8722 C   0  0  2  0  0  0  0  0  0  0  0  0
    1.3852  -10.2194    3.0621 C   0  0  0  0  0  0  0  0  0  0  0  0
    1.9070  -10.5856    4.2215 C   0  0  0  0  0  0  0  0  0  0  0  0
    2.3356  -11.9512    4.4039 C   0  0  0  0  0  0  0  0  0  0  0  0
    1.4986  -11.1223    2.0140 C   0  0  0  0  0  0  0  0  0  0  0  0
    2.0884  -12.3795    2.0640 C   0  0  0  0  0  0  0  0  0  0  0  0
    2.3778  -12.8533    3.3347 C   0  0  0  0  0  0  0  0  0  0  0  0
    0.3514   -8.7562    1.4235 C   0  0  2  0  0  0  0  0  0  0  0  0
    1.1216   -8.5112    0.4967 C   0  0  0  0  0  0  0  0  0  0  0  0
    2.2803   -7.7511    0.6186 O   0  0  0  0  0  0  0  0  0  0  0  0
    1.1581   -9.2281   -0.6796 O   0  0  0  0  0  0  0  0  0  0  0  0
    2.7414  -14.0963    3.5506 N   0  0  0  0  0  0  0  0  0  0  0  0
    2.6965  -14.9351    2.4665 C   0  0  0  0  0  0  0  0  0  0  0  0
    1.6472  -15.8442    2.4833 C   0  0  0  0  0  0  0  0  0  0  0  0
    0.6301  -15.6398    3.3924 O   0  0  0  0  0  0  0  0  0  0  0  0
    1.5313  -16.8545    1.7263 O   0  0  0  0  0  0  0  0  0  0  0  0
   -0.6490   -7.5513    1.3751 C   0  0  0  0  0  0  0  0  0  0  0  0
  2  1  1  6
  2  3  1  0
  2  9  1  0
  9 10  1  0
 10 11  1  0
 10 12  2  0
 13 14  1  0
 14 15  1  0
 15 16  1  0
 15 17  2  0
  9 18  1  1
  8 13  1  0
  3  4  2  0
  4  5  1  0
  5  8  2  0
  7  8  1  0
  6  7  2  0
  3  6  1  0
M  END

$$$$
No_488-/export/home/yangzhenyu/potential_scad_32_flow//YTHDC2/2024-12-06-03-22-00/
     RDKit          3D

 19 19  0  0  1  0  0  0  0  0999 V2000
    1.1787   -8.0297    3.5154 C   0  0  0  0  0  0  0  0  0  0  0  0
    1.0491   -6.8434    2.9820 C   0  0  0  0  0  0  0  0  0  0  0  0
    0.0950   -8.8404    3.2292 C   0  0  0  0  0  0  0  0  0  0  0  0
    0.0602  -10.1764    3.8231 C   0  0  0  0  0  0  0  0  0  0  0  0
    0.2248   -6.3830    2.0648 C   0  0  0  0  0  0  0  0  0  0  0  0
   -0.6745   -7.2322    1.6857 C   0  0  0  0  0  0  0  0  0  0  0  0
   -0.7374   -8.4992    2.1291 C   0  0  0  0  0  0  0  0  0  0  0  0
    1.0201  -10.8960    4.1038 O   0  0  0  0  0  0  0  0  0  0  0  0
   -1.1635  -10.5670    4.3290 P   0  0  2  0  0  0  0  0  0  0  0  0
   -1.4428  -11.9517    4.1556 O   0  0  0  0  0  0  0  0  0  0  0  0
    0.4355   -4.9996    1.3967 O   0  0  0  0  0  0  0  0  0  0  0  0
   -2.3904   -9.7031    3.8948 O   0  0  0  0  0  0  0  0  0  0  0  0
   -1.5223   -6.7641    0.6597 C   0  0  0  0  0  0  0  0  0  0  0  0
   -2.4371   -5.8280    0.9229 O   0  0  0  0  0  0  0  0  0  0  0  0
   -1.8425   -7.6372   -0.3944 Cl  0  0  0  0  0  0  0  0  0  0  0  0
    1.0743   -4.1693    1.7106 C   0  0  0  0  0  0  0  0  0  0  0  0
    0.5300   -2.8245    2.0620 C   0  0  0  0  0  0  0  0  0  0  0  0
    0.0497   -2.1538    0.9379 C   0  0  0  0  0  0  0  0  0  0  0  0
    0.9451   -1.6647   -0.0287 C   0  0  0  0  0  0  0  0  0  0  0  0
  3  4  1  0
  4  8  2  0
  4  9  1  0
  9 10  1  6
  5 11  1  0
  9 12  2  0
  6 13  1  0
 13 14  2  0
 13 15  1  0
 11 16  1  0
 16 17  1  0
 17 18  1  0
 18 19  1  0
  1  2  2  0
  2  5  1  0
  5  6  2  0
  6  7  1  0
  3  7  2  0
  1  3  1  0
M  END

$$$$
No_489-/export/home/yangzhenyu/potential_scad_32_flow//YTHDC2/2024-12-06-03-22-00/
     RDKit          3D

 20 19  0  0  1  0  0  0  0  0999 V2000
    1.1787   -8.0297    3.5154 O   0  0  0  0  0  0  0  0  0  0  0  0
    0.9969   -8.9689    3.0048 C   0  0  0  0  0  0  0  0  0  0  0  0
    1.4315  -10.1310    3.5523 C   0  0  1  0  0  0  0  0  0  0  0  0
    2.1355  -10.3303    4.5214 C   0  0  0  0  0  0  0  0  0  0  0  0
    0.8250   -8.8597    1.5800 C   0  0  0  0  0  0  0  0  0  0  0  0
    1.4506   -9.6512    0.6342 C   0  0  0  0  0  0  0  0  0  0  0  0
    1.7639  -10.8149    0.8467 O   0  0  0  0  0  0  0  0  0  0  0  0
    1.9814   -9.1053   -0.4407 O   0  0  0  0  0  0  0  0  0  0  0  0
    2.6041  -11.6622    5.0195 O   0  0  0  0  0  0  0  0  0  0  0  0
    0.7291  -11.4152    3.2755 C   0  0  0  0  0  0  0  0  0  0  0  0
   -0.6084  -11.4680    3.3102 C   0  0  0  0  0  0  0  0  0  0  0  0
   -1.4048  -12.4065    2.8063 O   0  0  0  0  0  0  0  0  0  0  0  0
   -1.2685  -10.4511    4.1560 O   0  0  0  0  0  0  0  0  0  0  0  0
    3.1564   -9.3693    4.9355 O   0  0  0  0  0  0  0  0  0  0  0  0
    0.0165   -7.8955    1.0990 C   0  0  0  0  0  0  0  0  0  0  0  0
   -1.3405   -8.2988    0.8417 C   0  0  0  0  0  0  0  0  0  0  0  0
   -2.2840   -7.8175    1.8576 C   0  0  0  0  0  0  0  0  0  0  0  0
   -2.4842   -6.4886    1.8876 C   0  0  0  0  0  0  0  0  0  0  0  0
   -2.1075   -5.8506    3.1088 C   0  0  0  0  0  0  0  0  0  0  0  0
   -2.3501   -6.2047    4.1218 C   0  0  0  0  0  0  0  0  0  0  0  0
  1  2  2  0
  2  3  1  0
  3  4  1  0
  2  5  1  0
  5  6  1  0
  6  7  1  0
  6  8  2  0
  4  9  1  0
  3 10  1  1
 10 11  1  0
 11 12  1  0
 11 13  2  0
  4 14  2  0
  5 15  1  0
 15 16  1  0
 16 17  1  0
 17 18  1  0
 18 19  1  0
 19 20  2  0
M  END

$$$$
No_490-/export/home/yangzhenyu/potential_scad_32_flow//YTHDC2/2024-12-06-03-22-00/
     RDKit          3D

 18 18  0  0  0  0  0  0  0  0999 V2000
    1.1787   -8.0297    3.5154 C   0  0  0  0  0  0  0  0  0  0  0  0
    1.0491   -6.8434    2.9820 C   0  0  0  0  0  0  0  0  0  0  0  0
    0.0950   -8.8404    3.2292 C   0  0  0  0  0  0  0  0  0  0  0  0
   -0.9173   -8.4596    2.5152 C   0  0  0  0  0  0  0  0  0  0  0  0
   -1.0331   -7.2162    2.0653 C   0  0  0  0  0  0  0  0  0  0  0  0
   -0.0105   -6.3168    2.3081 C   0  0  0  0  0  0  0  0  0  0  0  0
    0.0485   -4.9783    1.8782 C   0  0  0  0  0  0  0  0  0  0  0  0
   -0.4744   -4.1559    2.2381 O   0  0  0  0  0  0  0  0  0  0  0  0
    0.9176   -4.7080    0.8087 O   0  0  0  0  0  0  0  0  0  0  0  0
    0.1801  -10.2855    3.6701 C   0  0  0  0  0  0  0  0  0  0  0  0
   -1.0330  -10.9906    3.7805 O   0  0  0  0  0  0  0  0  0  0  0  0
    1.2179  -10.8075    4.3391 N   0  0  0  0  0  0  0  0  0  0  0  0
    1.3603  -12.1627    4.5571 O   0  0  0  0  0  0  0  0  0  0  0  0
   -2.3746   -6.8130    1.3353 C   0  0  0  0  0  0  0  0  0  0  0  0
   -2.4346   -6.9442    0.0200 C   0  0  0  0  0  0  0  0  0  0  0  0
   -1.8023   -7.9457   -0.5948 C   0  0  0  0  0  0  0  0  0  0  0  0
   -1.9425   -8.1245   -2.0017 C   0  0  0  0  0  0  0  0  0  0  0  0
   -2.5203   -7.2160   -2.7558 C   0  0  0  0  0  0  0  0  0  0  0  0
  6  7  1  0
  7  8  2  0
  7  9  1  0
  3 10  1  0
 10 11  2  0
 10 12  1  0
 12 13  2  0
  5 14  1  0
 14 15  1  0
 15 16  1  0
 16 17  2  3
 17 18  1  0
  1  2  2  0
  2  6  1  0
  5  6  2  0
  4  5  1  0
  3  4  2  0
  1  3  1  0
M  END

$$$$
No_491-/export/home/yangzhenyu/potential_scad_32_flow//YTHDC2/2024-12-06-03-22-00/
     RDKit          3D

 19 19  0  0  0  0  0  0  0  0999 V2000
    1.1787   -8.0297    3.5154 C   0  0  0  0  0  0  0  0  0  0  0  0
    1.1048   -9.2215    3.2892 C   0  0  0  0  0  0  0  0  0  0  0  0
    1.3627  -10.1721    4.3044 C   0  0  0  0  0  0  0  0  0  0  0  0
    1.7354  -11.4730    3.9023 C   0  0  0  0  0  0  0  0  0  0  0  0
    1.8080  -11.8127    2.7216 C   0  0  0  0  0  0  0  0  0  0  0  0
    1.5854  -11.0021    1.7249 C   0  0  0  0  0  0  0  0  0  0  0  0
    1.3573   -9.7389    1.9287 C   0  0  0  0  0  0  0  0  0  0  0  0
    1.2865   -8.8078    0.9161 C   0  0  0  0  0  0  0  0  0  0  0  0
    1.6845   -9.1638   -0.2896 C   0  0  0  0  0  0  0  0  0  0  0  0
    2.0917  -13.3473    2.3482 C   0  0  0  0  0  0  0  0  0  0  0  0
    1.6805   -8.1277   -1.3864 O   0  0  0  0  0  0  0  0  0  0  0  0
    1.9669  -14.2863    3.1952 N   0  0  0  0  0  0  0  0  0  0  0  0
    2.7855  -13.5145    1.2009 O   0  0  0  0  0  0  0  0  0  0  0  0
    2.0443  -15.5836    2.8839 C   0  0  0  0  0  0  0  0  0  0  0  0
    0.1171   -7.2140    3.3257 O   0  0  0  0  0  0  0  0  0  0  0  0
    2.1961   -7.1787    3.9221 O   0  0  0  0  0  0  0  0  0  0  0  0
    3.1401  -16.1505    2.4565 C   0  0  0  0  0  0  0  0  0  0  0  0
    0.8476  -16.2768    3.1203 C   0  0  0  0  0  0  0  0  0  0  0  0
    0.8896  -17.6377    3.1224 O   0  0  0  0  0  0  0  0  0  0  0  0
  1  2  1  0
  7  8  1  0
  8  9  2  3
  5 10  1  0
  9 11  1  0
 10 12  1  0
 10 13  2  0
 12 14  1  0
  1 15  2  0
  1 16  1  0
 14 17  1  0
 14 18  1  0
 18 19  2  0
  2  3  2  0
  3  4  1  0
  4  5  2  0
  5  6  1  0
  6  7  2  0
  2  7  1  0
M  END

$$$$
No_492-/export/home/yangzhenyu/potential_scad_32_flow//YTHDC2/2024-12-06-03-22-00/
     RDKit          3D

 16 15  0  0  1  0  0  0  0  0999 V2000
    1.1787   -8.0297    3.5154 P   0  0  0  0  0  0  0  0  0  0  0  0
    1.2274   -6.8896    2.8483 O   0  0  0  0  0  0  0  0  0  0  0  0
    2.3031   -8.8537    3.6188 O   0  0  0  0  0  0  0  0  0  0  0  0
    0.4180   -7.9081    4.7322 O   0  0  0  0  0  0  0  0  0  0  0  0
    0.2617   -8.9808    2.3477 C   0  0  0  0  0  0  0  0  0  0  0  0
    1.0090  -10.0968    1.9298 C   0  0  0  0  0  0  0  0  0  0  0  0
    0.4975  -10.8704    0.8981 C   0  0  1  0  0  0  0  0  0  0  0  0
    0.1543  -10.3263   -0.2719 C   0  0  0  0  0  0  0  0  0  0  0  0
   -0.6519   -9.3264   -0.1970 O   0  0  0  0  0  0  0  0  0  0  0  0
    1.2363  -12.2059    0.8332 N   0  0  0  0  0  0  0  0  0  0  0  0
    1.0963  -13.1196    1.6649 C   0  0  0  0  0  0  0  0  0  0  0  0
    0.4081  -13.0149    2.7399 C   0  0  0  0  0  0  0  0  0  0  0  0
    1.7588  -14.3655    1.3795 C   0  0  0  0  0  0  0  0  0  0  0  0
   -0.4299  -12.4232    3.0586 C   0  0  0  0  0  0  0  0  0  0  0  0
    0.2121  -10.7996   -1.3866 O   0  0  0  0  0  0  0  0  0  0  0  0
    1.2719  -15.4183    1.2251 C   0  0  0  0  0  0  0  0  0  0  0  0
  1  2  1  0
  1  3  1  0
  1  4  2  0
  1  5  1  0
  5  6  1  0
  7  6  1  6
  7  8  1  0
  8  9  1  0
  7 10  1  0
 10 11  1  0
 11 12  1  0
 11 13  1  0
 12 14  1  0
  8 15  2  0
 13 16  1  0
M  END

$$$$
No_493-/export/home/yangzhenyu/potential_scad_32_flow//YTHDC2/2024-12-06-03-22-00/
     RDKit          3D

 20 21  0  0  1  0  0  0  0  0999 V2000
    1.1787   -8.0297    3.5154 O   0  0  0  0  0  0  0  0  0  0  0  0
    0.9969   -8.9689    3.0048 C   0  0  1  0  0  0  0  0  0  0  0  0
    0.9976   -8.9567    1.6341 C   0  0  0  0  0  0  0  0  0  0  0  0
    0.7663   -7.7728    1.0082 C   0  0  1  0  0  0  0  0  0  0  0  0
    1.1468   -6.5619    1.6541 C   0  0  0  0  0  0  0  0  0  0  0  0
    1.3592   -6.6155    3.0007 C   0  0  0  0  0  0  0  0  0  0  0  0
    0.9781  -10.1276    3.6866 C   0  0  0  0  0  0  0  0  0  0  0  0
   -0.1772  -10.7865    4.0343 C   0  0  0  0  0  0  0  0  0  0  0  0
    2.1937  -10.7840    4.0491 C   0  0  0  0  0  0  0  0  0  0  0  0
    0.7595   -7.7652   -0.3802 C   0  0  0  0  0  0  0  0  0  0  0  0
    1.6092   -8.1041   -1.1393 O   0  0  0  0  0  0  0  0  0  0  0  0
   -0.4711   -7.5421   -0.9259 O   0  0  0  0  0  0  0  0  0  0  0  0
    1.1810  -10.1305    0.9182 O   0  0  0  0  0  0  0  0  0  0  0  0
    3.3095  -10.0876    4.5440 O   0  0  0  0  0  0  0  0  0  0  0  0
   -1.2059  -10.7691    3.2302 C   0  0  0  0  0  0  0  0  0  0  0  0
   -1.4045  -11.8471    2.3978 C   0  0  0  0  0  0  0  0  0  0  0  0
   -2.3949  -11.8381    1.4149 C   0  0  0  0  0  0  0  0  0  0  0  0
   -3.2497  -10.7754    1.6103 C   0  0  0  0  0  0  0  0  0  0  0  0
   -3.1817   -9.7234    2.3605 C   0  0  0  0  0  0  0  0  0  0  0  0
   -2.0685   -9.6980    3.2697 C   0  0  0  0  0  0  0  0  0  0  0  0
  1  2  1  0
  2  3  1  0
  3  4  1  0
  4  5  1  0
  1  6  1  0
  5  6  1  0
  2  7  1  6
  7  8  1  0
  7  9  1  0
  4 10  1  6
 10 11  2  0
 10 12  1  0
  3 13  2  0
  9 14  2  0
  8 15  1  0
 15 16  2  0
 16 17  1  0
 17 18  2  0
 18 19  1  0
 19 20  2  0
 15 20  1  0
M  END

$$$$
No_494-/export/home/yangzhenyu/potential_scad_32_flow//YTHDC2/2024-12-06-03-22-00/
     RDKit          3D

 19 20  0  0  1  0  0  0  0  0999 V2000
    1.1787   -8.0297    3.5154 O   0  0  0  0  0  0  0  0  0  0  0  0
    0.9969   -8.9689    3.0048 C   0  0  1  0  0  0  0  0  0  0  0  0
    0.9976   -8.9567    1.6341 C   0  0  2  0  0  0  0  0  0  0  0  0
    1.6062   -9.9071    0.9292 C   0  0  1  0  0  0  0  0  0  0  0  0
    2.1191  -10.9757    1.6503 C   0  0  0  0  0  0  0  0  0  0  0  0
    2.1177  -10.9891    3.0403 C   0  0  1  0  0  0  0  0  0  0  0  0
    1.5441   -9.8905    3.6897 C   0  0  0  0  0  0  0  0  0  0  0  0
    0.5010   -7.8164    1.0436 C   0  0  2  0  0  0  0  0  0  0  0  0
    1.0624   -6.6356    1.1779 C   0  0  0  0  0  0  0  0  0  0  0  0
    0.3391   -5.4799    1.3521 C   0  0  2  0  0  0  0  0  0  0  0  0
   -0.8329   -5.5323    1.2053 C   0  0  0  0  0  0  0  0  0  0  0  0
   -1.5299   -6.6346    0.7895 C   0  0  0  0  0  0  0  0  0  0  0  0
   -0.8344   -7.8355    0.7308 C   0  0  0  0  0  0  0  0  0  0  0  0
    1.6507  -10.1636    5.0262 O   0  0  0  0  0  0  0  0  0  0  0  0
   -1.5125   -8.9912    0.4320 O   0  0  0  0  0  0  0  0  0  0  0  0
    1.2414   -4.0726    1.6780 F   0  0  0  0  0  0  0  0  0  0  0  0
    2.6458  -12.1691    3.5462 O   0  0  0  0  0  0  0  0  0  0  0  0
    1.6114   -9.9758   -0.4686 C   0  0  0  0  0  0  0  0  0  0  0  0
    1.5680   -8.6142   -1.1367 C   0  0  0  0  0  0  0  0  0  0  0  0
  2  1  1  1
  2  3  1  0
  4  5  1  0
  2  7  1  0
  6  7  1  0
  3  8  1  1
  8  9  1  1
 10 11  1  0
  8 13  1  0
 12 13  1  0
  7 14  2  0
 13 15  2  0
 10 16  1  6
  6 17  1  6
  4 18  1  6
 18 19  1  0
  9 10  1  0
 11 12  1  0
  3  4  1  0
  5  6  1  0
M  END

$$$$
No_495-/export/home/yangzhenyu/potential_scad_32_flow//YTHDC2/2024-12-06-03-22-00/
     RDKit          3D

 20 21  0  0  1  0  0  0  0  0999 V2000
    1.1787   -8.0297    3.5154 Cl  0  0  0  0  0  0  0  0  0  0  0  0
    0.7279   -9.0023    2.8722 C   0  0  2  0  0  0  0  0  0  0  0  0
    1.3852  -10.2194    3.0621 C   0  0  0  0  0  0  0  0  0  0  0  0
    1.9070  -10.5856    4.2215 C   0  0  0  0  0  0  0  0  0  0  0  0
    2.3356  -11.9512    4.4039 C   0  0  0  0  0  0  0  0  0  0  0  0
    1.2767  -11.2372    2.0169 C   0  0  0  0  0  0  0  0  0  0  0  0
    1.7640  -12.5091    2.1330 C   0  0  0  0  0  0  0  0  0  0  0  0
    2.2738  -12.9382    3.3772 C   0  0  0  0  0  0  0  0  0  0  0  0
    0.4009   -8.7466    1.4116 C   0  0  0  0  0  0  0  0  0  0  0  0
    1.3082   -8.4884    0.4796 O   0  0  0  0  0  0  0  0  0  0  0  0
   -0.8538   -8.7030    1.1798 N   0  0  0  0  0  0  0  0  0  0  0  0
   -1.2522   -8.4468   -0.2758 C   0  0  0  0  0  0  0  0  0  0  0  0
   -2.3879   -8.7076   -0.6414 C   0  0  0  0  0  0  0  0  0  0  0  0
   -2.9090   -8.3249   -1.7044 C   0  0  0  0  0  0  0  0  0  0  0  0
   -2.2112   -7.7826   -2.6144 C   0  0  0  0  0  0  0  0  0  0  0  0
   -0.7816   -7.4394   -2.3557 C   0  0  0  0  0  0  0  0  0  0  0  0
   -0.3289   -7.9069   -1.1599 C   0  0  0  0  0  0  0  0  0  0  0  0
    2.5354  -14.1749    3.5609 N   0  0  0  0  0  0  0  0  0  0  0  0
   -2.6665   -7.5046   -3.9535 Cl  0  0  0  0  0  0  0  0  0  0  0  0
    2.3564  -15.0753    2.5513 N   0  0  0  0  0  0  0  0  0  0  0  0
  2  1  1  6
  2  3  1  0
  2  9  1  0
  9 10  2  0
  9 11  1  0
 11 12  1  0
 15 19  1  0
 18 20  1  0
  8 18  1  0
 12 13  2  0
 13 14  1  0
 14 15  2  0
 15 16  1  0
 16 17  2  0
 12 17  1  0
  3  4  2  0
  4  5  1  0
  5  8  2  0
  7  8  1  0
  6  7  2  0
  3  6  1  0
M  END

$$$$
No_496-/export/home/yangzhenyu/potential_scad_32_flow//YTHDC2/2024-12-06-03-22-00/
     RDKit          3D

 19 19  0  0  0  0  0  0  0  0999 V2000
    1.1787   -8.0297    3.5154 N   0  0  0  0  0  0  0  0  0  0  0  0
    1.0818   -9.0751    3.2053 C   0  0  0  0  0  0  0  0  0  0  0  0
    0.7576   -9.3725    1.9159 C   0  0  0  0  0  0  0  0  0  0  0  0
    0.7445  -10.8746    1.6491 C   0  0  0  0  0  0  0  0  0  0  0  0
    0.4267  -11.1283    0.3668 C   0  0  0  0  0  0  0  0  0  0  0  0
   -0.4331  -10.4839   -0.2801 C   0  0  0  0  0  0  0  0  0  0  0  0
   -0.6951   -9.0154    0.0775 C   0  0  0  0  0  0  0  0  0  0  0  0
   -0.1045   -8.5931    1.1754 C   0  0  0  0  0  0  0  0  0  0  0  0
    1.5972  -11.6696    2.3852 C   0  0  0  0  0  0  0  0  0  0  0  0
    1.6559  -13.0590    1.9276 C   0  0  0  0  0  0  0  0  0  0  0  0
    1.6290  -14.0009    2.6037 C   0  0  0  0  0  0  0  0  0  0  0  0
    1.9814  -15.3902    2.3451 O   0  0  0  0  0  0  0  0  0  0  0  0
    1.2323  -14.0025    3.9018 O   0  0  0  0  0  0  0  0  0  0  0  0
    1.5292   -6.8692    2.6581 C   0  0  0  0  0  0  0  0  0  0  0  0
    1.6805   -7.0593    1.3536 N   0  0  0  0  0  0  0  0  0  0  0  0
    1.5969   -5.4679    3.2064 C   0  0  0  0  0  0  0  0  0  0  0  0
   -1.4639   -8.2663   -0.8508 C   0  0  0  0  0  0  0  0  0  0  0  0
   -2.2144   -7.3120   -0.3730 O   0  0  0  0  0  0  0  0  0  0  0  0
   -1.3907   -8.3861   -2.1747 O   0  0  0  0  0  0  0  0  0  0  0  0
  1  2  1  0
  4  9  1  0
  9 10  2  3
 10 11  1  0
 11 12  1  0
 11 13  2  0
  1 14  2  3
 14 15  1  0
 14 16  1  0
  7 17  1  0
 17 18  1  0
 17 19  2  0
  2  3  1  0
  3  4  2  0
  4  5  1  0
  5  6  2  0
  6  7  1  0
  7  8  2  0
  3  8  1  0
M  END

$$$$
No_497-/export/home/yangzhenyu/potential_scad_32_flow//YTHDC2/2024-12-06-03-22-00/
     RDKit          3D

 20 21  0  0  1  0  0  0  0  0999 V2000
    1.1787   -8.0297    3.5154 O   0  0  0  0  0  0  0  0  0  0  0  0
    0.9969   -8.9689    3.0048 C   0  0  0  0  0  0  0  0  0  0  0  0
    0.8148   -8.9936    1.6651 C   0  0  2  0  0  0  0  0  0  0  0  0
    0.7673  -10.1010    3.7486 C   0  0  0  0  0  0  0  0  0  0  0  0
    0.7181  -10.2949    1.0262 C   0  0  0  0  0  0  0  0  0  0  0  0
    0.6907  -11.4828    1.8145 C   0  0  0  0  0  0  0  0  0  0  0  0
    0.6612  -12.7772    1.1572 C   0  0  0  0  0  0  0  0  0  0  0  0
    0.7448  -11.4078    3.1847 C   0  0  1  0  0  0  0  0  0  0  0  0
    0.8441  -12.5321    3.8366 C   0  0  0  0  0  0  0  0  0  0  0  0
    0.1735  -13.7141    1.8576 N   0  0  0  0  0  0  0  0  0  0  0  0
    0.3675  -13.7383    3.2749 C   0  0  0  0  0  0  0  0  0  0  0  0
    0.5750  -14.9011    3.8290 O   0  0  0  0  0  0  0  0  0  0  0  0
    0.9532   -7.8643    0.8470 C   0  0  0  0  0  0  0  0  0  0  0  0
    0.8938   -6.7548    1.3337 O   0  0  0  0  0  0  0  0  0  0  0  0
    1.4897   -8.0670   -0.3881 O   0  0  0  0  0  0  0  0  0  0  0  0
    0.0629  -15.0861    1.2160 C   0  0  0  0  0  0  0  0  0  0  0  0
   -0.8017  -14.9301    0.3113 C   0  0  0  0  0  0  0  0  0  0  0  0
   -1.2194  -15.8149   -0.3148 C   0  0  0  0  0  0  0  0  0  0  0  0
   -0.8500  -17.1368   -0.0433 C   0  0  0  0  0  0  0  0  0  0  0  0
    0.0203  -17.2998    0.9888 C   0  0  0  0  0  0  0  0  0  0  0  0
  1  2  2  0
  2  3  1  0
  2  4  1  0
  5  6  1  0
  6  7  1  0
  8  4  1  6
  6  8  1  0
  8  9  1  0
  7 10  1  0
  9 11  1  0
 10 11  1  0
 11 12  2  0
  3 13  1  6
 13 14  1  0
 13 15  2  0
 10 16  1  0
 16 17  1  0
 17 18  2  3
 18 19  1  0
 19 20  2  0
  3  5  1  0
M  END

$$$$
No_498-/export/home/yangzhenyu/potential_scad_32_flow//YTHDC2/2024-12-06-03-22-00/
     RDKit          3D

 20 21  0  0  1  0  0  0  0  0999 V2000
    1.1787   -8.0297    3.5154 O   0  0  0  0  0  0  0  0  0  0  0  0
    0.6747   -7.4019    2.7838 C   0  0  0  0  0  0  0  0  0  0  0  0
    0.5570   -6.0797    2.8560 C   0  0  0  0  0  0  0  0  0  0  0  0
   -0.2158   -5.3007    2.0284 C   0  0  0  0  0  0  0  0  0  0  0  0
   -0.8260   -5.9169    1.0290 C   0  0  0  0  0  0  0  0  0  0  0  0
   -0.6925   -7.2407    0.8216 C   0  0  0  0  0  0  0  0  0  0  0  0
    0.1645   -8.0156    1.6621 C   0  0  0  0  0  0  0  0  0  0  0  0
    0.4049   -9.3434    1.4877 C   0  0  0  0  0  0  0  0  0  0  0  0
    0.0670  -10.2565    2.0992 C   0  0  0  0  0  0  0  0  0  0  0  0
    0.4824  -11.6260    1.9392 C   0  0  0  0  0  0  0  0  0  0  0  0
    1.2322  -11.8668    0.6178 C   0  0  0  0  0  0  0  0  0  0  0  0
    1.2752   -9.5456    0.1607 C   0  0  0  0  0  0  0  0  0  0  0  0
    1.6369  -10.8571   -0.0664 C   0  0  0  0  0  0  0  0  0  0  0  0
    0.8609  -12.2276    3.0557 C   0  0  1  0  0  0  0  0  0  0  0  0
    0.2542  -13.4266    3.1310 F   0  0  0  0  0  0  0  0  0  0  0  0
    2.3199  -12.5104    3.2815 Cl  0  0  0  0  0  0  0  0  0  0  0  0
    0.2713  -11.7870    4.2435 P   0  0  0  0  0  0  0  0  0  0  0  0
   -1.1908  -12.0272    4.4874 O   0  0  0  0  0  0  0  0  0  0  0  0
    0.9382  -12.4330    5.5473 O   0  0  0  0  0  0  0  0  0  0  0  0
    0.5490  -10.2484    4.6221 O   0  0  0  0  0  0  0  0  0  0  0  0
  1  2  1  0
  7  8  1  0
 10 14  1  0
 14 15  1  6
 14 16  1  0
 14 17  1  0
 17 18  1  0
 17 19  1  0
 17 20  2  0
  2  3  2  0
  3  4  1  0
  4  5  2  0
  5  6  1  0
  6  7  2  0
  2  7  1  0
  8  9  2  0
  9 10  1  0
 10 11  2  0
 11 13  1  0
 12 13  2  0
  8 12  1  0
M  END

$$$$
No_499-/export/home/yangzhenyu/potential_scad_32_flow//YTHDC2/2024-12-06-03-22-00/
     RDKit          3D

 17 17  0  0  1  0  0  0  0  0999 V2000
    1.1787   -8.0297    3.5154 N   0  0  0  0  0  0  0  0  0  0  0  0
    0.8669   -7.0905    2.8589 C   0  0  0  0  0  0  0  0  0  0  0  0
    0.8842   -5.8387    3.2677 C   0  0  0  0  0  0  0  0  0  0  0  0
    1.2819   -9.4050    3.1259 C   0  0  0  0  0  0  0  0  0  0  0  0
    0.9577   -9.7285    2.0210 C   0  0  1  0  0  0  0  0  0  0  0  0
    1.0265  -11.1674    1.6491 Cl  0  0  0  0  0  0  0  0  0  0  0  0
    0.4622   -8.6904    1.2588 C   0  0  1  0  0  0  0  0  0  0  0  0
    0.4651   -7.4366    1.5757 C   0  0  0  0  0  0  0  0  0  0  0  0
   -0.0583   -6.5717    0.7106 O   0  0  0  0  0  0  0  0  0  0  0  0
   -0.1185   -4.9829    3.2231 C   0  0  0  0  0  0  0  0  0  0  0  0
    2.1637   -5.2681    3.8945 C   0  0  0  0  0  0  0  0  0  0  0  0
   -1.4029   -5.4186    2.9832 C   0  0  0  0  0  0  0  0  0  0  0  0
   -0.0462   -3.5407    3.6828 C   0  0  0  0  0  0  0  0  0  0  0  0
    0.1221   -9.0321   -0.0976 C   0  0  0  0  0  0  0  0  0  0  0  0
   -1.1668   -9.5947   -0.3675 F   0  0  0  0  0  0  0  0  0  0  0  0
    1.0363  -10.0505   -0.6338 F   0  0  0  0  0  0  0  0  0  0  0  0
    0.1119   -8.0519   -1.0514 F   0  0  0  0  0  0  0  0  0  0  0  0
  1  2  1  0
  2  3  1  0
  4  5  1  0
  5  6  1  1
  5  7  1  0
  2  8  1  0
  7  8  1  0
  8  9  2  0
  3 10  2  3
  3 11  1  0
 10 12  1  0
 10 13  1  0
  7 14  1  6
 14 15  1  0
 14 16  1  0
 14 17  1  0
  1  4  1  0
M  END

$$$$
No_500-/export/home/yangzhenyu/potential_scad_32_flow//YTHDC2/2024-12-06-03-22-00/
     RDKit          3D

 19 19  0  0  1  0  0  0  0  0999 V2000
    1.1787   -8.0297    3.5154 O   0  0  0  0  0  0  0  0  0  0  0  0
    0.6747   -7.4019    2.7838 C   0  0  0  0  0  0  0  0  0  0  0  0
    0.7594   -8.0032    1.4295 C   0  0  0  0  0  0  0  0  0  0  0  0
    1.4743   -7.4398    0.6034 C   0  0  0  0  0  0  0  0  0  0  0  0
    1.8433   -8.4151   -0.4648 C   0  0  0  0  0  0  0  0  0  0  0  0
    1.3204   -9.5205   -0.5909 C   0  0  0  0  0  0  0  0  0  0  0  0
    0.4880  -10.0838    0.3555 C   0  0  0  0  0  0  0  0  0  0  0  0
    0.2363   -9.3226    1.4465 C   0  0  0  0  0  0  0  0  0  0  0  0
   -0.5984   -9.6542    2.4538 C   0  0  2  0  0  0  0  0  0  0  0  0
   -0.2111  -10.6503    3.2432 N   0  0  0  0  0  0  0  0  0  0  0  0
    0.9867  -11.0093    3.4115 C   0  0  2  0  0  0  0  0  0  0  0  0
    1.9444  -10.1328    3.8387 C   0  0  0  0  0  0  0  0  0  0  0  0
    3.0856  -11.0013    4.1415 C   0  0  0  0  0  0  0  0  0  0  0  0
    3.4059  -10.8113    5.6255 N   0  0  0  0  0  0  0  0  0  0  0  0
    1.4027  -12.1656    2.6178 Br  0  0  0  0  0  0  0  0  0  0  0  0
   -0.0922   -6.3843    2.8425 O   0  0  0  0  0  0  0  0  0  0  0  0
   -1.8502   -9.2058    2.6494 C   0  0  0  0  0  0  0  0  0  0  0  0
   -2.5305   -8.9207    3.7830 O   0  0  0  0  0  0  0  0  0  0  0  0
   -2.8511   -9.3813    1.6136 O   0  0  0  0  0  0  0  0  0  0  0  0
  1  2  1  0
  2  3  1  0
  8  9  1  0
  9 10  1  6
 10 11  1  0
 11 12  1  0
 12 13  1  0
 13 14  1  0
 11 15  1  6
  2 16  2  0
  9 17  1  0
 17 18  1  0
 17 19  2  0
  3  4  2  0
  4  5  1  0
  5  6  2  0
  6  7  1  0
  7  8  2  0
  3  8  1  0
M  END

$$$$
No_501-/export/home/yangzhenyu/potential_scad_32_flow//YTHDC2/2024-12-06-03-22-00/
     RDKit          3D

 21 21  0  0  1  0  0  0  0  0999 V2000
    1.1787   -8.0297    3.5154 C   0  0  0  0  0  0  0  0  0  0  0  0
    1.0491   -6.8434    2.9820 C   0  0  2  0  0  0  0  0  0  0  0  0
    1.9985   -8.9840    2.8958 C   0  0  2  0  0  0  0  0  0  0  0  0
    1.7297   -9.2108    1.6335 C   0  0  0  0  0  0  0  0  0  0  0  0
    1.7343   -8.0566    0.8408 C   0  0  2  0  0  0  0  0  0  0  0  0
    1.0269   -6.8892    1.4456 C   0  0  0  0  0  0  0  0  0  0  0  0
    2.0740   -7.9416   -0.3682 C   0  0  0  0  0  0  0  0  0  0  0  0
    2.2588   -9.0634   -1.1089 C   0  0  0  0  0  0  0  0  0  0  0  0
    3.4999   -9.2524   -1.6422 O   0  0  0  0  0  0  0  0  0  0  0  0
    1.9133  -10.3653    3.5973 C   0  0  0  0  0  0  0  0  0  0  0  0
    2.8786  -10.5387    4.4928 O   0  0  0  0  0  0  0  0  0  0  0  0
    1.3222  -11.4141    3.2626 O   0  0  0  0  0  0  0  0  0  0  0  0
    1.5908   -9.9469   -1.0929 O   0  0  0  0  0  0  0  0  0  0  0  0
    0.6555   -5.8147    0.8675 O   0  0  0  0  0  0  0  0  0  0  0  0
    1.9289   -5.7882    3.4138 O   0  0  0  0  0  0  0  0  0  0  0  0
    1.2963   -4.4326    3.5850 C   0  0  0  0  0  0  0  0  0  0  0  0
    0.6563   -3.9942    2.6947 C   0  0  0  0  0  0  0  0  0  0  0  0
   -0.6640   -3.6887    2.9636 O   0  0  0  0  0  0  0  0  0  0  0  0
    1.0994   -2.8270    2.0306 O   0  0  0  0  0  0  0  0  0  0  0  0
    0.4919   -2.3443    0.9244 C   0  0  0  0  0  0  0  0  0  0  0  0
    0.9271   -2.8999   -0.2768 C   0  0  0  0  0  0  0  0  0  0  0  0
  1  2  1  0
  1  3  1  0
  3  4  1  0
  4  5  1  0
  2  6  1  0
  5  6  1  0
  5  7  1  6
  7  8  1  0
  8  9  2  0
  3 10  1  1
 10 11  1  0
 10 12  2  0
  8 13  1  0
  6 14  2  0
  2 15  1  6
 15 16  1  0
 16 17  1  0
 17 18  2  0
 17 19  1  0
 19 20  1  0
 20 21  1  0
M  END

$$$$
No_502-/export/home/yangzhenyu/potential_scad_32_flow//YTHDC2/2024-12-06-03-22-00/
     RDKit          3D

 20 20  0  0  1  0  0  0  0  0999 V2000
    1.1787   -8.0297    3.5154 O   0  0  0  0  0  0  0  0  0  0  0  0
    0.6747   -7.4019    2.7838 C   0  0  0  0  0  0  0  0  0  0  0  0
    0.5570   -6.0797    2.8560 O   0  0  0  0  0  0  0  0  0  0  0  0
    0.2244   -8.0200    1.4812 C   0  0  2  0  0  0  0  0  0  0  0  0
    1.2645   -8.5172    0.7443 C   0  0  0  0  0  0  0  0  0  0  0  0
    1.6735   -8.2071   -0.3758 C   0  0  0  0  0  0  0  0  0  0  0  0
    2.7380   -8.9090   -1.0369 C   0  0  0  0  0  0  0  0  0  0  0  0
    2.8862  -10.1631   -0.6832 O   0  0  0  0  0  0  0  0  0  0  0  0
    3.6159   -8.4654   -1.8066 O   0  0  0  0  0  0  0  0  0  0  0  0
   -1.0048   -7.8361    1.1949 C   0  0  0  0  0  0  0  0  0  0  0  0
   -1.9824   -8.5004    1.6970 C   0  0  0  0  0  0  0  0  0  0  0  0
   -3.3506   -8.2891    1.5322 C   0  0  0  0  0  0  0  0  0  0  0  0
   -3.9159   -7.9292    0.4399 C   0  0  0  0  0  0  0  0  0  0  0  0
   -3.0126   -7.7740   -0.6950 C   0  0  0  0  0  0  0  0  0  0  0  0
   -1.4767   -7.6542   -0.4000 C   0  0  0  0  0  0  0  0  0  0  0  0
   -3.2285   -7.5212   -2.0245 C   0  0  0  0  0  0  0  0  0  0  0  0
   -2.2581   -7.2949   -2.9651 C   0  0  0  0  0  0  0  0  0  0  0  0
   -2.2899   -7.5003   -4.0779 C   0  0  0  0  0  0  0  0  0  0  0  0
   -3.2913   -8.0378   -4.7818 C   0  0  0  0  0  0  0  0  0  0  0  0
   -4.3480   -8.3865   -3.9904 C   0  0  0  0  0  0  0  0  0  0  0  0
  1  2  1  0
  2  3  2  0
  2  4  1  0
  4  5  1  6
  5  6  1  0
  6  7  1  0
  7  8  1  0
  7  9  2  0
  4 10  1  0
 14 16  1  0
 16 17  2  3
 17 18  1  0
 18 19  2  3
 19 20  1  0
 10 11  2  0
 11 12  1  0
 12 13  2  0
 13 14  1  0
 14 15  2  0
 10 15  1  0
M  END

$$$$
No_503-/export/home/yangzhenyu/potential_scad_32_flow//YTHDC2/2024-12-06-03-22-00/
     RDKit          3D

 19 20  0  0  0  0  0  0  0  0999 V2000
    1.1787   -8.0297    3.5154 C   0  0  0  0  0  0  0  0  0  0  0  0
    1.0491   -6.8434    2.9820 C   0  0  0  0  0  0  0  0  0  0  0  0
    0.0950   -8.8404    3.2292 C   0  0  0  0  0  0  0  0  0  0  0  0
   -0.9173   -8.4596    2.5152 C   0  0  0  0  0  0  0  0  0  0  0  0
   -1.0331   -7.2162    2.0653 C   0  0  0  0  0  0  0  0  0  0  0  0
   -0.0105   -6.3168    2.3081 C   0  0  0  0  0  0  0  0  0  0  0  0
    0.1150   -4.9910    1.8495 C   0  0  0  0  0  0  0  0  0  0  0  0
    0.9121   -4.1017    2.4010 O   0  0  0  0  0  0  0  0  0  0  0  0
   -0.8281   -4.4106    1.0499 N   0  0  0  0  0  0  0  0  0  0  0  0
    0.1954  -10.2816    3.6508 Cl  0  0  0  0  0  0  0  0  0  0  0  0
   -1.7375   -5.1166    0.3176 C   0  0  0  0  0  0  0  0  0  0  0  0
   -1.5461   -5.4469   -1.0167 C   0  0  0  0  0  0  0  0  0  0  0  0
   -2.3159   -6.2713   -1.5836 C   0  0  0  0  0  0  0  0  0  0  0  0
   -3.4104   -6.8232   -1.0315 C   0  0  0  0  0  0  0  0  0  0  0  0
   -3.6667   -6.5183    0.3126 C   0  0  0  0  0  0  0  0  0  0  0  0
   -2.8236   -5.6195    0.9723 C   0  0  0  0  0  0  0  0  0  0  0  0
   -2.1239   -6.7169   -2.9809 Cl  0  0  0  0  0  0  0  0  0  0  0  0
   -4.7769   -7.0821    0.9545 O   0  0  0  0  0  0  0  0  0  0  0  0
   -5.5886   -7.8408    0.5520 C   0  0  0  0  0  0  0  0  0  0  0  0
  6  7  1  0
  7  8  2  0
  7  9  1  0
  3 10  1  0
  9 11  1  0
 13 17  1  0
 15 18  1  0
 18 19  1  0
 11 12  2  0
 12 13  1  0
 13 14  2  0
 14 15  1  0
 15 16  2  0
 11 16  1  0
  1  2  2  0
  2  6  1  0
  5  6  2  0
  4  5  1  0
  3  4  2  0
  1  3  1  0
M  END

$$$$
No_504-/export/home/yangzhenyu/potential_scad_32_flow//YTHDC2/2024-12-06-03-22-00/
     RDKit          3D

 19 18  0  0  1  0  0  0  0  0999 V2000
    1.1787   -8.0297    3.5154 C   0  0  0  0  0  0  0  0  0  0  0  0
    1.0491   -6.8434    2.9820 O   0  0  0  0  0  0  0  0  0  0  0  0
   -0.0075   -8.7761    3.2545 C   0  0  2  0  0  0  0  0  0  0  0  0
   -0.1756   -9.2452    2.3665 Cl  0  0  0  0  0  0  0  0  0  0  0  0
    0.8035   -6.6360    1.6667 C   0  0  2  0  0  0  0  0  0  0  0  0
    1.5312   -7.2878    0.8337 C   0  0  0  0  0  0  0  0  0  0  0  0
   -1.1346   -7.7425    3.7644 C   0  0  0  0  0  0  0  0  0  0  0  0
    0.6673   -5.1525    1.4720 C   0  0  0  0  0  0  0  0  0  0  0  0
    1.5249   -4.3353    1.9533 O   0  0  0  0  0  0  0  0  0  0  0  0
   -2.3933   -8.4991    3.8923 C   0  0  0  0  0  0  0  0  0  0  0  0
   -3.4640   -7.6658    4.4303 C   0  0  0  0  0  0  0  0  0  0  0  0
   -3.9064   -6.5649    3.8371 C   0  0  0  0  0  0  0  0  0  0  0  0
   -3.2849   -6.2334    2.5535 C   0  0  0  0  0  0  0  0  0  0  0  0
   -2.8415   -4.8931    2.4893 C   0  0  0  0  0  0  0  0  0  0  0  0
   -2.4543   -4.4336    1.2542 C   0  0  0  0  0  0  0  0  0  0  0  0
   -2.0007   -3.1043    1.2362 C   0  0  0  0  0  0  0  0  0  0  0  0
   -1.5873   -2.6714   -0.0330 C   0  0  0  0  0  0  0  0  0  0  0  0
   -1.0543   -3.2452   -0.8601 C   0  0  0  0  0  0  0  0  0  0  0  0
   -1.2866   -4.6679   -0.9278 C   0  0  0  0  0  0  0  0  0  0  0  0
  1  2  1  0
  1  3  1  0
  3  4  1  6
  2  5  1  0
  5  6  1  6
  3  7  1  0
  5  8  1  0
  8  9  1  0
  7 10  2  3
 10 11  1  0
 11 12  2  3
 12 13  1  0
 13 14  2  3
 14 15  1  0
 15 16  2  3
 16 17  1  0
 17 18  2  3
 18 19  1  0
M  END

$$$$
No_505-/export/home/yangzhenyu/potential_scad_32_flow//YTHDC2/2024-12-06-03-22-00/
     RDKit          3D

 19 19  0  0  1  0  0  0  0  0999 V2000
    1.1787   -8.0297    3.5154 C   0  0  0  0  0  0  0  0  0  0  0  0
    1.0491   -6.8434    2.9820 C   0  0  0  0  0  0  0  0  0  0  0  0
    1.9985   -8.9840    2.8958 C   0  0  0  0  0  0  0  0  0  0  0  0
    1.1815  -10.1889    2.5497 C   0  0  0  0  0  0  0  0  0  0  0  0
    0.9817  -11.1388    2.8134 C   0  0  2  0  0  0  0  0  0  0  0  0
    1.6854  -11.5768    4.1035 C   0  0  0  0  0  0  0  0  0  0  0  0
    0.2240   -6.7837    1.8683 C   0  0  0  0  0  0  0  0  0  0  0  0
    0.6098   -6.0025    0.8151 O   0  0  0  0  0  0  0  0  0  0  0  0
   -0.8717   -7.3800    1.8052 O   0  0  0  0  0  0  0  0  0  0  0  0
    0.9750  -12.3016    2.0213 C   0  0  0  0  0  0  0  0  0  0  0  0
    0.0881  -12.9670    1.8074 C   0  0  0  0  0  0  0  0  0  0  0  0
    0.0648  -14.3025    1.4641 C   0  0  0  0  0  0  0  0  0  0  0  0
    0.0043  -15.0487    2.2357 C   0  0  0  0  0  0  0  0  0  0  0  0
    0.1360  -16.4836    2.0916 C   0  0  0  0  0  0  0  0  0  0  0  0
    0.4218  -17.3311    3.2324 C   0  0  0  0  0  0  0  0  0  0  0  0
    0.4019  -16.8040    4.4882 C   0  0  0  0  0  0  0  0  0  0  0  0
    0.3079  -15.3938    4.6771 C   0  0  0  0  0  0  0  0  0  0  0  0
    0.2881  -14.5862    3.6710 C   0  0  0  0  0  0  0  0  0  0  0  0
    0.2222   -9.5994    1.5846 O   0  0  0  0  0  0  0  0  0  0  0  0
  1  2  1  0
  1  3  1  0
  3  4  1  0
  4  5  1  0
  5  6  1  1
  2  7  1  0
  7  8  2  0
  7  9  1  0
  5 10  1  0
 10 11  1  0
 11 12  1  0
  4 19  2  0
 12 13  1  0
 13 14  2  0
 14 15  1  0
 15 16  2  0
 16 17  1  0
 17 18  2  0
 13 18  1  0
M  END

$$$$
No_506-/export/home/yangzhenyu/potential_scad_32_flow//YTHDC2/2024-12-06-03-22-00/
     RDKit          3D

 19 19  0  0  1  0  0  0  0  0999 V2000
    1.1787   -8.0297    3.5154 N   0  0  0  0  0  0  0  0  0  0  0  0
    1.0818   -9.0751    3.2053 C   0  0  2  0  0  0  0  0  0  0  0  0
    1.5216  -10.1164    3.9747 C   0  0  0  0  0  0  0  0  0  0  0  0
    2.4786  -10.1841    4.6947 C   0  0  0  0  0  0  0  0  0  0  0  0
    0.9232   -6.8992    2.6914 C   0  0  0  0  0  0  0  0  0  0  0  0
    1.0894   -5.6435    3.0779 O   0  0  0  0  0  0  0  0  0  0  0  0
    0.8110   -7.1350    1.2778 C   0  0  0  0  0  0  0  0  0  0  0  0
    0.6537   -8.3974    0.8579 C   0  0  2  0  0  0  0  0  0  0  0  0
    0.8404   -9.4793    1.8123 C   0  0  1  0  0  0  0  0  0  0  0  0
    0.8584  -10.6568    1.3285 C   0  0  0  0  0  0  0  0  0  0  0  0
   -0.3555  -11.3109    1.2447 C   0  0  0  0  0  0  0  0  0  0  0  0
   -1.3894  -10.6772    1.1762 O   0  0  0  0  0  0  0  0  0  0  0  0
   -0.4022  -12.6448    1.4974 O   0  0  0  0  0  0  0  0  0  0  0  0
    0.4578   -8.5486   -0.5220 C   0  0  0  0  0  0  0  0  0  0  0  0
   -0.9692   -8.7091   -0.8548 O   0  0  0  0  0  0  0  0  0  0  0  0
    1.2210   -8.7595   -1.4235 O   0  0  0  0  0  0  0  0  0  0  0  0
    2.8490  -11.4868    5.3632 P   0  0  1  0  0  0  0  0  0  0  0  0
    1.6653  -12.3357    5.1063 O   0  0  0  0  0  0  0  0  0  0  0  0
    3.8914  -11.6416    5.7806 O   0  0  0  0  0  0  0  0  0  0  0  0
  2  1  1  6
  2  3  1  0
  3  4  2  3
  1  5  1  0
  5  6  2  0
  5  7  1  0
  2  9  1  0
  8  9  1  0
  9 10  1  6
 10 11  1  0
 11 12  2  0
 11 13  1  0
  8 14  1  6
 14 15  2  0
 14 16  1  0
  4 17  1  0
 17 18  1  6
 17 19  2  0
  7  8  1  0
M  END

$$$$
No_507-/export/home/yangzhenyu/potential_scad_32_flow//YTHDC2/2024-12-06-03-22-00/
     RDKit          3D

 19 18  0  0  1  0  0  0  0  0999 V2000
    1.1787   -8.0297    3.5154 C   0  0  0  0  0  0  0  0  0  0  0  0
    1.0491   -6.8434    2.9820 C   0  0  0  0  0  0  0  0  0  0  0  0
    0.0950   -8.8404    3.2292 P   0  0  1  0  0  0  0  0  0  0  0  0
    0.1312  -10.1042    3.9686 O   0  0  0  0  0  0  0  0  0  0  0  0
    0.9625   -6.5859    1.5955 C   0  0  0  0  0  0  0  0  0  0  0  0
   -1.1944   -8.0954    3.0956 O   0  0  0  0  0  0  0  0  0  0  0  0
    0.2180   -9.4005    1.7791 O   0  0  0  0  0  0  0  0  0  0  0  0
    0.4060   -5.3690    1.2384 O   0  0  0  0  0  0  0  0  0  0  0  0
    1.7736   -7.1280    0.7577 O   0  0  0  0  0  0  0  0  0  0  0  0
    0.0154  -11.4681    3.7872 C   0  0  1  0  0  0  0  0  0  0  0  0
   -1.1654  -11.9060    3.3745 C   0  0  0  0  0  0  0  0  0  0  0  0
    1.2155  -12.1536    3.8401 C   0  0  0  0  0  0  0  0  0  0  0  0
    1.5796  -12.6373    2.4977 C   0  0  0  0  0  0  0  0  0  0  0  0
    1.7323  -11.8155    1.5326 C   0  0  0  0  0  0  0  0  0  0  0  0
    1.7579  -14.0306    2.2950 C   0  0  0  0  0  0  0  0  0  0  0  0
    2.7904  -10.7819    1.6984 C   0  0  0  0  0  0  0  0  0  0  0  0
    1.4933  -14.9585    3.2565 O   0  0  0  0  0  0  0  0  0  0  0  0
    2.3109  -14.5010    1.2918 O   0  0  0  0  0  0  0  0  0  0  0  0
    2.8636   -9.8657    0.6506 O   0  0  0  0  0  0  0  0  0  0  0  0
  1  2  1  0
  1  3  1  0
  3  4  1  0
  2  5  1  0
  3  6  1  6
  3  7  2  0
  5  8  2  0
  5  9  1  0
  4 10  1  0
 10 11  1  6
 10 12  1  0
 12 13  1  0
 13 14  1  0
 13 15  1  0
 14 16  1  0
 15 17  1  0
 15 18  2  0
 16 19  2  0
M  END

$$$$
No_508-/export/home/yangzhenyu/potential_scad_32_flow//YTHDC2/2024-12-06-03-22-00/
     RDKit          3D

 20 21  0  0  0  0  0  0  0  0999 V2000
    1.1787   -8.0297    3.5154 C   0  0  0  0  0  0  0  0  0  0  0  0
    1.1048   -9.2215    3.2892 Cl  0  0  0  0  0  0  0  0  0  0  0  0
    1.1053   -7.0623    2.3233 C   0  0  0  0  0  0  0  0  0  0  0  0
    0.9916   -5.7309    2.4267 C   0  0  0  0  0  0  0  0  0  0  0  0
    0.8878   -5.1247    1.0062 C   0  0  0  0  0  0  0  0  0  0  0  0
    0.4966   -5.7952    0.1189 C   0  0  0  0  0  0  0  0  0  0  0  0
    0.4308   -7.0588    0.1452 C   0  0  0  0  0  0  0  0  0  0  0  0
    0.1401   -7.7580   -1.0716 C   0  0  0  0  0  0  0  0  0  0  0  0
    0.8438   -7.7895    1.2029 C   0  0  0  0  0  0  0  0  0  0  0  0
    0.5212   -9.1101   -1.1529 O   0  0  0  0  0  0  0  0  0  0  0  0
   -0.5154   -7.5040   -2.1183 O   0  0  0  0  0  0  0  0  0  0  0  0
    0.7673   -3.3217    1.1724 Cl  0  0  0  0  0  0  0  0  0  0  0  0
    1.3421   -4.9885    3.5501 Br  0  0  0  0  0  0  0  0  0  0  0  0
   -1.6588   -8.3262   -2.5906 C   0  0  0  0  0  0  0  0  0  0  0  0
   -2.5415   -8.6820   -1.9262 C   0  0  0  0  0  0  0  0  0  0  0  0
   -2.6801   -9.8234   -1.5636 C   0  0  0  0  0  0  0  0  0  0  0  0
   -3.6921  -10.3159   -0.6905 C   0  0  0  0  0  0  0  0  0  0  0  0
   -4.6239   -9.3919   -0.3765 C   0  0  0  0  0  0  0  0  0  0  0  0
   -4.4979   -8.0842   -0.6760 C   0  0  0  0  0  0  0  0  0  0  0  0
   -3.4462   -7.6263   -1.4393 C   0  0  0  0  0  0  0  0  0  0  0  0
  1  2  1  0
  1  3  1  0
  7  8  1  0
  8 10  2  0
  8 11  1  0
  5 12  1  0
  4 13  1  0
 11 14  1  0
 14 15  1  0
 15 16  2  0
 16 17  1  0
 17 18  2  0
 18 19  1  0
 19 20  2  0
 15 20  1  0
  3  4  2  0
  4  5  1  0
  5  6  2  0
  6  7  1  0
  7  9  2  0
  3  9  1  0
M  END

$$$$
No_509-/export/home/yangzhenyu/potential_scad_32_flow//YTHDC2/2024-12-06-03-22-00/
     RDKit          3D

 18 19  0  0  0  0  0  0  0  0999 V2000
    1.1787   -8.0297    3.5154 C   0  0  0  0  0  0  0  0  0  0  0  0
    1.0491   -6.8434    2.9820 Cl  0  0  0  0  0  0  0  0  0  0  0  0
    2.1643   -8.9961    3.0118 C   0  0  0  0  0  0  0  0  0  0  0  0
    2.0542  -10.3454    3.7325 C   0  0  0  0  0  0  0  0  0  0  0  0
    1.0539  -10.6340    4.5979 C   0  0  0  0  0  0  0  0  0  0  0  0
   -0.0044   -9.7649    4.6652 C   0  0  0  0  0  0  0  0  0  0  0  0
   -0.0119   -8.5383    4.1066 C   0  0  0  0  0  0  0  0  0  0  0  0
   -0.9915   -7.7180    4.4309 N   0  0  0  0  0  0  0  0  0  0  0  0
    3.3728  -11.2711    3.5193 C   0  0  0  0  0  0  0  0  0  0  0  0
    2.7205  -12.4716    3.3477 N   0  0  0  0  0  0  0  0  0  0  0  0
    2.7041  -13.5291    3.8955 C   0  0  0  0  0  0  0  0  0  0  0  0
    1.9782  -14.6460    3.1779 C   0  0  0  0  0  0  0  0  0  0  0  0
    1.5213  -14.0113    2.0434 C   0  0  0  0  0  0  0  0  0  0  0  0
    1.9208  -12.6404    2.0979 C   0  0  0  0  0  0  0  0  0  0  0  0
    1.6930  -11.7548    1.1393 O   0  0  0  0  0  0  0  0  0  0  0  0
    1.7676  -15.9073    3.4056 Cl  0  0  0  0  0  0  0  0  0  0  0  0
    0.8132  -14.4647    0.9596 C   0  0  0  0  0  0  0  0  0  0  0  0
   -0.4885  -14.0063    0.8353 O   0  0  0  0  0  0  0  0  0  0  0  0
  1  2  1  0
  4  9  1  0
  9 10  1  0
 10 11  1  0
 11 12  2  0
 12 13  1  0
 10 14  1  0
 13 14  1  0
 14 15  2  0
 12 16  1  0
 13 17  1  0
 17 18  2  0
  7  8  1  0
  1  3  2  0
  3  4  1  0
  4  5  2  0
  5  6  1  0
  6  7  2  0
  1  7  1  0
M  END

$$$$
No_510-/export/home/yangzhenyu/potential_scad_32_flow//YTHDC2/2024-12-06-03-22-00/
     RDKit          3D

 20 20  0  0  0  0  0  0  0  0999 V2000
    1.1787   -8.0297    3.5154 C   0  0  0  0  0  0  0  0  0  0  0  0
    1.0491   -6.8434    2.9820 C   0  0  0  0  0  0  0  0  0  0  0  0
    0.0950   -8.8404    3.2292 C   0  0  0  0  0  0  0  0  0  0  0  0
   -0.9173   -8.4596    2.5152 C   0  0  0  0  0  0  0  0  0  0  0  0
   -1.0331   -7.2162    2.0653 C   0  0  0  0  0  0  0  0  0  0  0  0
   -0.0105   -6.3168    2.3081 C   0  0  0  0  0  0  0  0  0  0  0  0
    0.1465  -10.2446    3.6981 C   0  0  0  0  0  0  0  0  0  0  0  0
    1.2433  -10.8239    4.0166 C   0  0  0  0  0  0  0  0  0  0  0  0
    2.4912  -10.5210    3.8610 C   0  0  0  0  0  0  0  0  0  0  0  0
   -0.0801   -5.0324    1.8109 C   0  0  0  0  0  0  0  0  0  0  0  0
    0.7355   -4.0517    2.3421 O   0  0  0  0  0  0  0  0  0  0  0  0
   -0.6383   -4.6149    0.7843 Br  0  0  0  0  0  0  0  0  0  0  0  0
    2.8351  -10.2457    2.5998 F   0  0  0  0  0  0  0  0  0  0  0  0
    3.6072  -11.4371    4.3440 F   0  0  0  0  0  0  0  0  0  0  0  0
   -1.0394  -10.8565    4.0352 Cl  0  0  0  0  0  0  0  0  0  0  0  0
    1.1511  -12.2347    4.3160 O   0  0  0  0  0  0  0  0  0  0  0  0
   -2.2105   -6.8758    1.3861 C   0  0  0  0  0  0  0  0  0  0  0  0
   -3.2900   -6.7890    2.2847 C   0  0  0  0  0  0  0  0  0  0  0  0
   -4.4001   -6.9915    1.8168 O   0  0  0  0  0  0  0  0  0  0  0  0
   -3.1724   -6.3482    3.5088 N   0  0  0  0  0  0  0  0  0  0  0  0
  3  7  1  0
  7  8  2  3
  8  9  1  0
  6 10  1  0
 10 11  2  0
 10 12  1  0
  9 13  1  0
  9 14  1  0
  7 15  1  0
  8 16  1  0
  5 17  1  0
 17 18  1  0
 18 19  2  0
 18 20  1  0
  1  2  2  0
  2  6  1  0
  5  6  2  0
  4  5  1  0
  3  4  2  0
  1  3  1  0
M  END

$$$$
No_511-/export/home/yangzhenyu/potential_scad_32_flow//YTHDC2/2024-12-06-03-22-00/
     RDKit          3D

 18 18  0  0  1  0  0  0  0  0999 V2000
    1.1787   -8.0297    3.5154 C   0  0  0  0  0  0  0  0  0  0  0  0
    1.1048   -9.2215    3.2892 C   0  0  1  0  0  0  0  0  0  0  0  0
    1.2339   -9.7611    2.0189 C   0  0  0  0  0  0  0  0  0  0  0  0
    1.3583   -9.0036    0.9764 C   0  0  2  0  0  0  0  0  0  0  0  0
    1.7077   -9.6100   -0.3010 C   0  0  0  0  0  0  0  0  0  0  0  0
    1.3637   -7.1087    2.3226 C   0  0  1  0  0  0  0  0  0  0  0  0
    1.4257   -7.6645    1.0231 C   0  0  0  0  0  0  0  0  0  0  0  0
    1.9364   -8.8976   -1.3212 O   0  0  0  0  0  0  0  0  0  0  0  0
    1.5161  -10.9175   -0.4592 O   0  0  0  0  0  0  0  0  0  0  0  0
    1.1260  -10.3020    4.5777 C   0  0  0  0  0  0  0  0  0  0  0  0
    0.9235  -11.7532    3.9725 O   0  0  0  0  0  0  0  0  0  0  0  0
    1.2917   -5.6468    2.5847 Cl  0  0  0  0  0  0  0  0  0  0  0  0
    1.1595  -10.1634    5.6290 P   0  0  1  0  0  0  0  0  0  0  0  0
    2.5506  -10.7896    5.9572 O   0  0  0  0  0  0  0  0  0  0  0  0
    1.2822   -8.9095    6.2299 O   0  0  0  0  0  0  0  0  0  0  0  0
    0.0429  -10.9965    6.3243 O   0  0  0  0  0  0  0  0  0  0  0  0
    1.6266   -6.9338    0.1079 O   0  0  0  0  0  0  0  0  0  0  0  0
    3.9333  -10.7440    4.9735 C   0  0  0  0  0  0  0  0  0  0  0  0
  1  2  1  0
  3  4  1  0
  4  5  1  1
  4  7  1  0
  6  7  1  0
  5  8  2  0
  5  9  1  0
  2 10  1  1
 10 11  2  0
  6 12  1  6
 10 13  1  0
 13 14  1  0
 13 15  2  0
 13 16  1  1
  7 17  2  0
 14 18  1  0
  2  3  1  0
  1  6  1  0
M  END

$$$$
No_512-/export/home/yangzhenyu/potential_scad_32_flow//YTHDC2/2024-12-06-03-22-00/
     RDKit          3D

 19 19  0  0  1  0  0  0  0  0999 V2000
    1.1787   -8.0297    3.5154 C   0  0  2  0  0  0  0  0  0  0  0  0
    1.0491   -6.8434    2.9820 O   0  0  0  0  0  0  0  0  0  0  0  0
    1.9898   -8.9833    2.9120 C   0  0  0  0  0  0  0  0  0  0  0  0
    1.9301  -10.2956    3.6452 C   0  0  2  0  0  0  0  0  0  0  0  0
    1.0625  -10.5355    4.6754 C   0  0  0  0  0  0  0  0  0  0  0  0
    0.0507   -9.6413    4.8216 C   0  0  0  0  0  0  0  0  0  0  0  0
    0.0019   -8.4462    4.1512 C   0  0  0  0  0  0  0  0  0  0  0  0
    1.2031   -5.6969    3.4281 C   0  0  0  0  0  0  0  0  0  0  0  0
   -0.8816   -7.4891    4.4134 O   0  0  0  0  0  0  0  0  0  0  0  0
    3.0324  -11.1704    3.3162 C   0  0  0  0  0  0  0  0  0  0  0  0
    3.1053  -12.2489    4.0782 Cl  0  0  0  0  0  0  0  0  0  0  0  0
    0.6882   -4.5181    2.8220 C   0  0  0  0  0  0  0  0  0  0  0  0
    0.1160   -4.8090    1.7363 O   0  0  0  0  0  0  0  0  0  0  0  0
    0.8868   -3.3018    3.4058 O   0  0  0  0  0  0  0  0  0  0  0  0
    3.5761  -10.9435    2.2118 O   0  0  0  0  0  0  0  0  0  0  0  0
    1.7068   -2.4581    2.9456 C   0  0  0  0  0  0  0  0  0  0  0  0
    2.8163   -2.8636    2.9575 C   0  0  0  0  0  0  0  0  0  0  0  0
    2.0974   -5.5249    4.4461 O   0  0  0  0  0  0  0  0  0  0  0  0
    1.0935   -1.4181    2.2085 C   0  0  0  0  0  0  0  0  0  0  0  0
  1  2  1  6
  1  3  1  0
  4  5  1  0
  1  7  1  0
  6  7  1  0
  2  8  1  0
  7  9  2  0
  4 10  1  1
 10 11  1  0
  8 12  1  0
 12 13  2  0
 12 14  1  0
 10 15  2  0
 14 16  1  0
 16 17  1  0
  8 18  2  0
 16 19  1  0
  3  4  1  0
  5  6  1  0
M  END

$$$$
No_513-/export/home/yangzhenyu/potential_scad_32_flow//YTHDC2/2024-12-06-03-22-00/
     RDKit          3D

 20 20  0  0  1  0  0  0  0  0999 V2000
    1.1787   -8.0297    3.5154 C   0  0  0  0  0  0  0  0  0  0  0  0
    1.0491   -6.8434    2.9820 C   0  0  0  0  0  0  0  0  0  0  0  0
    1.9985   -8.9840    2.8958 C   0  0  2  0  0  0  0  0  0  0  0  0
    1.7297   -9.2108    1.6335 C   0  0  0  0  0  0  0  0  0  0  0  0
    1.7343   -8.0566    0.8408 C   0  0  2  0  0  0  0  0  0  0  0  0
    1.0269   -6.8892    1.4456 C   0  0  0  0  0  0  0  0  0  0  0  0
    1.7596   -8.0979   -0.4723 C   0  0  0  0  0  0  0  0  0  0  0  0
    2.7309   -8.8718   -1.0817 O   0  0  0  0  0  0  0  0  0  0  0  0
    0.9162   -8.0111   -1.3179 O   0  0  0  0  0  0  0  0  0  0  0  0
    1.9733  -10.3593    3.5850 C   0  0  0  0  0  0  0  0  0  0  0  0
    1.2157  -11.3197    3.3211 O   0  0  0  0  0  0  0  0  0  0  0  0
    3.2317  -10.7600    4.1272 N   0  0  0  0  0  0  0  0  0  0  0  0
    3.2717  -11.8717    4.9816 N   0  0  0  0  0  0  0  0  0  0  0  0
    0.8424   -5.6364    3.4844 O   0  0  0  0  0  0  0  0  0  0  0  0
    0.8235   -5.7166    0.8650 O   0  0  0  0  0  0  0  0  0  0  0  0
    4.5563  -11.8160    5.4284 C   0  0  0  0  0  0  0  0  0  0  0  0
    5.4247  -10.7546    5.3349 C   0  0  0  0  0  0  0  0  0  0  0  0
    6.2477  -10.8416    4.2457 O   0  0  0  0  0  0  0  0  0  0  0  0
    5.6970   -9.9480    6.0782 O   0  0  0  0  0  0  0  0  0  0  0  0
    1.5527  -10.3251    1.0922 O   0  0  0  0  0  0  0  0  0  0  0  0
  1  2  1  0
  1  3  1  0
  3  4  1  0
  4  5  1  0
  2  6  1  0
  5  6  1  0
  5  7  1  6
  7  8  1  0
  7  9  2  0
  3 10  1  1
 10 11  2  0
 10 12  1  0
 12 13  1  0
  2 14  2  0
  6 15  2  0
 13 16  1  0
 16 17  1  0
 17 18  2  0
 17 19  1  0
  4 20  2  0
M  END

$$$$
No_514-/export/home/yangzhenyu/potential_scad_32_flow//YTHDC2/2024-12-06-03-22-00/
     RDKit          3D

 20 20  0  0  1  0  0  0  0  0999 V2000
    1.1787   -8.0297    3.5154 C   0  0  0  0  0  0  0  0  0  0  0  0
    1.0491   -6.8434    2.9820 C   0  0  0  0  0  0  0  0  0  0  0  0
    1.9985   -8.9840    2.8958 C   0  0  2  0  0  0  0  0  0  0  0  0
    1.7297   -9.2108    1.6335 C   0  0  0  0  0  0  0  0  0  0  0  0
    1.7343   -8.0566    0.8408 C   0  0  2  0  0  0  0  0  0  0  0  0
    1.0269   -6.8892    1.4456 C   0  0  0  0  0  0  0  0  0  0  0  0
    1.7596   -8.0979   -0.4723 C   0  0  0  0  0  0  0  0  0  0  0  0
    1.8128   -9.1679   -1.0978 O   0  0  0  0  0  0  0  0  0  0  0  0
    2.3427  -10.1974    3.6211 C   0  0  0  0  0  0  0  0  0  0  0  0
    2.3000  -11.3625    3.1948 O   0  0  0  0  0  0  0  0  0  0  0  0
    3.0800  -10.1274    4.7989 O   0  0  0  0  0  0  0  0  0  0  0  0
    0.8486   -5.6665    3.5055 O   0  0  0  0  0  0  0  0  0  0  0  0
    0.8603   -5.7752    0.8899 O   0  0  0  0  0  0  0  0  0  0  0  0
    2.1425   -7.1951   -1.2273 O   0  0  0  0  0  0  0  0  0  0  0  0
    1.9094  -10.3222    1.1234 O   0  0  0  0  0  0  0  0  0  0  0  0
    3.5002  -11.3781    5.4215 C   0  0  0  0  0  0  0  0  0  0  0  0
    4.8814  -10.8680    5.8263 C   0  0  0  0  0  0  0  0  0  0  0  0
    5.6331  -10.2275    4.9017 O   0  0  0  0  0  0  0  0  0  0  0  0
    6.2466  -11.4299    4.0832 C   0  0  0  0  0  0  0  0  0  0  0  0
    6.8061  -10.5529    3.0683 C   0  0  0  0  0  0  0  0  0  0  0  0
  1  2  1  0
  1  3  1  0
  3  4  1  0
  4  5  1  0
  2  6  1  0
  5  6  1  0
  5  7  1  6
  7  8  2  0
  3  9  1  1
  9 10  2  0
  9 11  1  0
  2 12  2  0
  6 13  2  0
  7 14  1  0
  4 15  2  0
 11 16  1  0
 16 17  1  0
 17 18  1  0
 18 19  1  0
 19 20  1  0
M  END

$$$$
No_515-/export/home/yangzhenyu/potential_scad_32_flow//YTHDC2/2024-12-06-03-22-00/
     RDKit          3D

 17 17  0  0  0  0  0  0  0  0999 V2000
    1.1787   -8.0297    3.5154 C   0  0  0  0  0  0  0  0  0  0  0  0
    1.1048   -9.2215    3.2892 C   0  0  0  0  0  0  0  0  0  0  0  0
    1.3627  -10.1721    4.3044 C   0  0  0  0  0  0  0  0  0  0  0  0
    1.7354  -11.4730    3.9023 C   0  0  0  0  0  0  0  0  0  0  0  0
    1.8080  -11.8127    2.7216 C   0  0  0  0  0  0  0  0  0  0  0  0
    1.5854  -11.0021    1.7249 C   0  0  0  0  0  0  0  0  0  0  0  0
    1.3573   -9.7389    1.9287 C   0  0  0  0  0  0  0  0  0  0  0  0
    1.2865   -8.8078    0.9161 C   0  0  0  0  0  0  0  0  0  0  0  0
    1.6845   -9.1638   -0.2896 C   0  0  0  0  0  0  0  0  0  0  0  0
    2.8611   -9.7120   -0.5522 O   0  0  0  0  0  0  0  0  0  0  0  0
    1.1335   -8.6384   -1.3786 O   0  0  0  0  0  0  0  0  0  0  0  0
    2.0460  -13.2440    2.4072 C   0  0  0  0  0  0  0  0  0  0  0  0
    2.4313  -13.6715    1.1806 O   0  0  0  0  0  0  0  0  0  0  0  0
    1.7112  -14.2505    3.2053 O   0  0  0  0  0  0  0  0  0  0  0  0
    2.3113   -7.1972    3.6700 O   0  0  0  0  0  0  0  0  0  0  0  0
    0.0286   -7.3771    3.0759 O   0  0  0  0  0  0  0  0  0  0  0  0
    1.1549  -15.4268    2.7864 C   0  0  0  0  0  0  0  0  0  0  0  0
  1  2  1  0
  7  8  1  0
  8  9  1  0
  9 10  1  0
  9 11  2  0
  5 12  1  0
 12 13  2  0
 12 14  1  0
  1 15  1  0
  1 16  2  0
 14 17  1  0
  2  3  2  0
  3  4  1  0
  4  5  2  0
  5  6  1  0
  6  7  2  0
  2  7  1  0
M  END

$$$$
No_516-/export/home/yangzhenyu/potential_scad_32_flow//YTHDC2/2024-12-06-03-22-00/
     RDKit          3D

 19 20  0  0  0  0  0  0  0  0999 V2000
    1.1787   -8.0297    3.5154 O   0  0  0  0  0  0  0  0  0  0  0  0
    0.6747   -7.4019    2.7838 C   0  0  0  0  0  0  0  0  0  0  0  0
    0.5570   -6.0797    2.8560 O   0  0  0  0  0  0  0  0  0  0  0  0
    0.6564   -7.9917    1.3044 C   0  0  0  0  0  0  0  0  0  0  0  0
   -0.1985   -7.7581    0.6948 C   0  0  0  0  0  0  0  0  0  0  0  0
    1.7889   -8.7456    0.9018 C   0  0  0  0  0  0  0  0  0  0  0  0
    1.8718   -9.1814   -0.3091 C   0  0  0  0  0  0  0  0  0  0  0  0
    0.8239   -9.0318   -1.1087 C   0  0  0  0  0  0  0  0  0  0  0  0
   -0.2627   -8.3356   -0.6993 C   0  0  0  0  0  0  0  0  0  0  0  0
   -1.4817   -8.1781   -1.4669 O   0  0  0  0  0  0  0  0  0  0  0  0
   -1.7835   -9.0411   -2.3804 C   0  0  0  0  0  0  0  0  0  0  0  0
   -2.8431   -8.7055   -2.9723 C   0  0  0  0  0  0  0  0  0  0  0  0
   -3.2153   -8.7330   -4.0535 N   0  0  0  0  0  0  0  0  0  0  0  0
   -2.2327   -9.2945   -4.8712 C   0  0  0  0  0  0  0  0  0  0  0  0
   -1.3181   -9.6950   -4.5066 C   0  0  0  0  0  0  0  0  0  0  0  0
   -0.7888   -9.6234   -3.2394 C   0  0  0  0  0  0  0  0  0  0  0  0
   -0.2456  -10.4456   -5.4563 C   0  0  0  0  0  0  0  0  0  0  0  0
    0.1231   -9.6899   -6.6045 N   0  0  0  0  0  0  0  0  0  0  0  0
    0.6731  -11.3504   -5.1743 O   0  0  0  0  0  0  0  0  0  0  0  0
  1  2  1  0
  2  3  2  0
  2  4  1  0
  9 10  1  0
 10 11  1  0
 15 17  1  0
 17 18  1  0
 17 19  2  0
 11 12  2  0
 12 13  1  0
 13 14  2  0
 14 15  1  0
 15 16  2  0
 11 16  1  0
  4  5  2  0
  5  9  1  0
  8  9  2  0
  7  8  1  0
  6  7  2  0
  4  6  1  0
M  END

$$$$
No_517-/export/home/yangzhenyu/potential_scad_32_flow//YTHDC2/2024-12-06-03-22-00/
     RDKit          3D

 17 16  0  0  1  0  0  0  0  0999 V2000
    1.1787   -8.0297    3.5154 C   0  0  0  0  0  0  0  0  0  0  0  0
    1.0491   -6.8434    2.9820 C   0  0  0  0  0  0  0  0  0  0  0  0
    1.9985   -8.9840    2.8958 C   0  0  0  0  0  0  0  0  0  0  0  0
    1.1815  -10.1889    2.5497 C   0  0  2  0  0  0  0  0  0  0  0  0
    0.3496  -10.1352    1.6537 C   0  0  0  0  0  0  0  0  0  0  0  0
    0.7737   -9.6057    0.4354 C   0  0  0  0  0  0  0  0  0  0  0  0
   -0.1458   -9.3195   -0.5010 O   0  0  0  0  0  0  0  0  0  0  0  0
    2.0653   -9.3318    0.0691 Cl  0  0  0  0  0  0  0  0  0  0  0  0
    1.9052   -5.7997    3.1798 O   0  0  0  0  0  0  0  0  0  0  0  0
    0.0806   -6.5010    2.1089 O   0  0  0  0  0  0  0  0  0  0  0  0
    0.8001  -10.9702    3.8219 C   0  0  0  0  0  0  0  0  0  0  0  0
    1.7754  -11.8670    4.3056 C   0  0  0  0  0  0  0  0  0  0  0  0
    2.3080  -12.6374    3.1432 C   0  0  0  0  0  0  0  0  0  0  0  0
    1.6161  -14.1104    3.3596 C   0  0  0  0  0  0  0  0  0  0  0  0
    1.9989  -15.0456    2.3297 C   0  0  0  0  0  0  0  0  0  0  0  0
    2.6555  -14.6056    1.3834 O   0  0  0  0  0  0  0  0  0  0  0  0
    2.2858  -16.2488    2.8212 O   0  0  0  0  0  0  0  0  0  0  0  0
  1  2  1  0
  1  3  1  0
  4  3  1  1
  4  5  1  0
  5  6  1  0
  6  7  1  0
  6  8  1  0
  2  9  1  0
  2 10  2  0
  4 11  1  0
 11 12  1  0
 12 13  1  0
 13 14  1  0
 14 15  1  0
 15 16  2  0
 15 17  1  0
M  END

$$$$
No_518-/export/home/yangzhenyu/potential_scad_32_flow//YTHDC2/2024-12-06-03-22-00/
     RDKit          3D

 20 21  0  0  1  0  0  0  0  0999 V2000
    1.1787   -8.0297    3.5154 C   0  0  0  0  0  0  0  0  0  0  0  0
    1.0491   -6.8434    2.9820 C   0  0  0  0  0  0  0  0  0  0  0  0
    0.9905   -9.0774    2.6527 C   0  0  0  0  0  0  0  0  0  0  0  0
    0.7897   -8.9519    1.3691 C   0  0  0  0  0  0  0  0  0  0  0  0
    0.7018   -7.7198    0.7892 C   0  0  0  0  0  0  0  0  0  0  0  0
    0.8918   -6.5957    1.6117 C   0  0  0  0  0  0  0  0  0  0  0  0
    1.0600  -10.5680    3.3321 C   0  0  2  0  0  0  0  0  0  0  0  0
    1.1634  -11.6086    2.5010 C   0  0  0  0  0  0  0  0  0  0  0  0
    0.9536  -12.6132    2.7378 C   0  0  2  0  0  0  0  0  0  0  0  0
    0.6239  -13.1135    4.1386 C   0  0  0  0  0  0  0  0  0  0  0  0
    0.7907  -10.8223    4.6442 C   0  0  0  0  0  0  0  0  0  0  0  0
    0.5971  -12.0687    4.9993 N   0  0  0  0  0  0  0  0  0  0  0  0
    0.8651   -5.2714    1.1059 O   0  0  0  0  0  0  0  0  0  0  0  0
    0.6615  -14.3076    4.4643 O   0  0  0  0  0  0  0  0  0  0  0  0
    1.1148  -13.8458    1.8516 C   0  0  0  0  0  0  0  0  0  0  0  0
    0.2747  -14.4125    1.0896 C   0  0  1  0  0  0  0  0  0  0  0  0
    0.4169  -15.4793    0.3228 C   0  0  0  0  0  0  0  0  0  0  0  0
   -0.4843  -15.7459   -0.7221 Cl  0  0  0  0  0  0  0  0  0  0  0  0
   -1.0545  -13.7927    1.1556 C   0  0  0  0  0  0  0  0  0  0  0  0
   -1.6068  -12.7027    0.5518 C   0  0  0  0  0  0  0  0  0  0  0  0
  1  2  1  0
  3  4  1  0
  2  6  1  0
  5  6  1  0
  7  3  1  6
  7  8  1  0
  9 10  1  0
  7 11  1  0
 10 12  1  0
  6 13  2  0
 10 14  2  0
  9 15  1  1
 16 15  1  1
 16 17  1  0
 17 18  1  0
 16 19  1  0
 19 20  1  0
  1  3  1  0
  4  5  1  0
  8  9  1  0
 11 12  1  0
M  END

$$$$
No_519-/export/home/yangzhenyu/potential_scad_32_flow//YTHDC2/2024-12-06-03-22-00/
     RDKit          3D

 18 18  0  0  1  0  0  0  0  0999 V2000
    1.1787   -8.0297    3.5154 O   0  0  0  0  0  0  0  0  0  0  0  0
    0.6747   -7.4019    2.7838 C   0  0  0  0  0  0  0  0  0  0  0  0
    0.7594   -8.0032    1.4295 C   0  0  0  0  0  0  0  0  0  0  0  0
    1.4743   -7.4398    0.6034 C   0  0  0  0  0  0  0  0  0  0  0  0
    1.8433   -8.4151   -0.4648 C   0  0  0  0  0  0  0  0  0  0  0  0
    1.3204   -9.5205   -0.5909 C   0  0  0  0  0  0  0  0  0  0  0  0
    0.4880  -10.0838    0.3555 C   0  0  0  0  0  0  0  0  0  0  0  0
    0.2363   -9.3226    1.4465 C   0  0  0  0  0  0  0  0  0  0  0  0
   -0.5984   -9.6542    2.4538 C   0  0  0  0  0  0  0  0  0  0  0  0
   -0.2111  -10.6503    3.2432 C   0  0  0  0  0  0  0  0  0  0  0  0
    1.1155  -11.1523    3.1718 C   0  0  1  0  0  0  0  0  0  0  0  0
    2.1788  -10.4051    3.4541 C   0  0  0  0  0  0  0  0  0  0  0  0
    1.2062  -12.5232    4.0328 C   0  0  0  0  0  0  0  0  0  0  0  0
    2.0758  -13.4858    3.2989 C   0  0  0  0  0  0  0  0  0  0  0  0
    1.4257  -14.7203    2.8420 C   0  0  0  0  0  0  0  0  0  0  0  0
    0.2533  -14.9208    3.2469 O   0  0  0  0  0  0  0  0  0  0  0  0
    2.2853  -15.6529    2.4931 O   0  0  0  0  0  0  0  0  0  0  0  0
    1.0539   -5.9445    2.6820 O   0  0  0  0  0  0  0  0  0  0  0  0
  1  2  1  0
  2  3  1  0
  8  9  1  0
  9 10  2  3
 10 11  1  0
 11 12  1  1
 11 13  1  0
 13 14  1  0
 14 15  1  0
 15 16  2  0
 15 17  1  0
  2 18  2  0
  3  4  2  0
  4  5  1  0
  5  6  2  0
  6  7  1  0
  7  8  2  0
  3  8  1  0
M  END

$$$$
No_520-/export/home/yangzhenyu/potential_scad_32_flow//YTHDC2/2024-12-06-03-22-00/
     RDKit          3D

 17 18  0  0  0  0  0  0  0  0999 V2000
    1.1787   -8.0297    3.5154 C   0  0  0  0  0  0  0  0  0  0  0  0
    1.0491   -6.8434    2.9820 C   0  0  0  0  0  0  0  0  0  0  0  0
    1.9985   -8.9840    2.8958 C   0  0  0  0  0  0  0  0  0  0  0  0
    1.9135  -10.3404    3.6266 Cl  0  0  0  0  0  0  0  0  0  0  0  0
    1.0639   -6.5354    1.8097 C   0  0  0  0  0  0  0  0  0  0  0  0
    1.5173   -7.6307    0.9062 C   0  0  0  0  0  0  0  0  0  0  0  0
    1.8820   -8.8592    1.3859 C   0  0  0  0  0  0  0  0  0  0  0  0
    2.3352   -9.7114    0.5813 N   0  0  0  0  0  0  0  0  0  0  0  0
    0.7841   -5.3062    1.1987 C   0  0  0  0  0  0  0  0  0  0  0  0
    1.4676   -4.2094    1.6592 O   0  0  0  0  0  0  0  0  0  0  0  0
   -0.4919   -4.9281    0.8519 O   0  0  0  0  0  0  0  0  0  0  0  0
    2.2871   -9.4303   -0.6842 C   0  0  0  0  0  0  0  0  0  0  0  0
    1.9539   -8.2949   -1.1721 N   0  0  0  0  0  0  0  0  0  0  0  0
    1.5175   -7.3701   -0.3779 C   0  0  0  0  0  0  0  0  0  0  0  0
   -1.5381   -5.5151    1.1524 C   0  0  0  0  0  0  0  0  0  0  0  0
   -2.5232   -5.6797    0.6788 C   0  0  0  0  0  0  0  0  0  0  0  0
   -3.5523   -6.3917    1.2148 O   0  0  0  0  0  0  0  0  0  0  0  0
  3  4  1  0
  5  9  1  0
  9 10  2  0
  9 11  1  0
 11 15  1  0
 15 16  1  0
 16 17  2  0
  7  8  1  0
  8 12  2  0
 12 13  1  0
 13 14  2  0
  6 14  1  0
  1  2  2  0
  2  5  1  0
  5  6  2  0
  6  7  1  0
  3  7  2  0
  1  3  1  0
M  END

$$$$
No_521-/export/home/yangzhenyu/potential_scad_32_flow//YTHDC2/2024-12-06-03-22-00/
     RDKit          3D

 19 20  0  0  0  0  0  0  0  0999 V2000
    1.1787   -8.0297    3.5154 N   0  0  0  0  0  0  0  0  0  0  0  0
    1.0818   -9.0751    3.2053 C   0  0  0  0  0  0  0  0  0  0  0  0
    1.5216  -10.1164    3.9747 C   0  0  0  0  0  0  0  0  0  0  0  0
    1.4420  -11.4363    3.6461 C   0  0  0  0  0  0  0  0  0  0  0  0
    0.5969  -11.7648    2.6785 C   0  0  0  0  0  0  0  0  0  0  0  0
    0.0096  -10.8332    1.9506 C   0  0  0  0  0  0  0  0  0  0  0  0
    0.3359   -9.5186    2.1388 C   0  0  0  0  0  0  0  0  0  0  0  0
    0.8819   -6.9011    2.6487 C   0  0  0  0  0  0  0  0  0  0  0  0
    0.4076   -7.2265    1.4607 C   0  0  0  0  0  0  0  0  0  0  0  0
    0.0604   -8.4780    1.1746 C   0  0  0  0  0  0  0  0  0  0  0  0
   -0.5471   -8.7214    0.0063 C   0  0  0  0  0  0  0  0  0  0  0  0
   -0.0340   -8.7786   -1.1822 C   0  0  0  0  0  0  0  0  0  0  0  0
    1.3942   -8.5380   -1.2340 C   0  0  0  0  0  0  0  0  0  0  0  0
   -0.5923   -8.9726   -2.3054 C   0  0  0  0  0  0  0  0  0  0  0  0
   -1.4816   -8.0594   -2.8086 C   0  0  0  0  0  0  0  0  0  0  0  0
   -1.6142   -8.0378   -4.0740 O   0  0  0  0  0  0  0  0  0  0  0  0
   -2.4371   -7.4645   -2.0914 O   0  0  0  0  0  0  0  0  0  0  0  0
    2.2976   -9.4149   -0.4837 O   0  0  0  0  0  0  0  0  0  0  0  0
    2.0146   -7.9067   -2.0126 O   0  0  0  0  0  0  0  0  0  0  0  0
 10 11  1  0
 11 12  1  0
 12 13  1  0
 12 14  1  0
 14 15  1  0
 15 16  2  0
 15 17  1  0
 13 18  1  0
 13 19  2  0
  2  3  1  0
  3  4  2  0
  4  5  1  0
  5  6  2  0
  6  7  1  0
  1  2  2  0
  2  7  1  0
  7 10  2  0
  9 10  1  0
  8  9  2  0
  1  8  1  0
M  END

$$$$
No_522-/export/home/yangzhenyu/potential_scad_32_flow//YTHDC2/2024-12-06-03-22-00/
     RDKit          3D

 18 18  0  0  1  0  0  0  0  0999 V2000
    1.1787   -8.0297    3.5154 C   0  0  0  0  0  0  0  0  0  0  0  0
    1.0491   -6.8434    2.9820 C   0  0  0  0  0  0  0  0  0  0  0  0
    1.9985   -8.9840    2.8958 C   0  0  0  0  0  0  0  0  0  0  0  0
    1.9135  -10.3404    3.6266 C   0  0  0  0  0  0  0  0  0  0  0  0
    0.7479  -10.9191    3.7202 O   0  0  0  0  0  0  0  0  0  0  0  0
    2.9632  -10.8767    4.2566 O   0  0  0  0  0  0  0  0  0  0  0  0
    0.3395   -6.6943    1.8054 C   0  0  0  0  0  0  0  0  0  0  0  0
    0.0841   -5.5969    1.3113 O   0  0  0  0  0  0  0  0  0  0  0  0
    0.0053   -7.7007    1.0649 O   0  0  0  0  0  0  0  0  0  0  0  0
   -1.2042   -8.1136    0.7408 C   0  0  1  0  0  0  0  0  0  0  0  0
   -1.3523   -8.7638   -0.3482 C   0  0  0  0  0  0  0  0  0  0  0  0
   -2.5431   -9.1169   -0.7501 C   0  0  2  0  0  0  0  0  0  0  0  0
   -3.6013   -8.9603    0.0242 C   0  0  0  0  0  0  0  0  0  0  0  0
   -3.5319   -8.3343    1.2128 C   0  0  0  0  0  0  0  0  0  0  0  0
   -2.1973   -7.8909    1.6192 C   0  0  0  0  0  0  0  0  0  0  0  0
   -0.0408   -9.1049   -1.2836 O   0  0  0  0  0  0  0  0  0  0  0  0
   -2.0213   -7.3297    2.9201 O   0  0  0  0  0  0  0  0  0  0  0  0
   -2.7559   -9.7906   -2.0489 I   0  0  0  0  0  0  0  0  0  0  0  0
  1  2  1  0
  1  3  1  0
  3  4  1  0
  4  5  2  0
  4  6  1  0
  2  7  1  0
  7  8  2  0
  7  9  1  0
 10  9  1  1
 10 11  1  0
 12 13  1  0
 10 15  1  0
 14 15  1  0
 11 16  1  0
 15 17  2  0
 12 18  1  1
 11 12  1  0
 13 14  1  0
M  END

$$$$
No_523-/export/home/yangzhenyu/potential_scad_32_flow//YTHDC2/2024-12-06-03-22-00/
     RDKit          3D

 19 19  0  0  0  0  0  0  0  0999 V2000
    1.1787   -8.0297    3.5154 C   0  0  0  0  0  0  0  0  0  0  0  0
    1.1048   -9.2215    3.2892 C   0  0  0  0  0  0  0  0  0  0  0  0
    1.3627  -10.1721    4.3044 C   0  0  0  0  0  0  0  0  0  0  0  0
    1.7354  -11.4730    3.9023 C   0  0  0  0  0  0  0  0  0  0  0  0
    1.8080  -11.8127    2.7216 C   0  0  0  0  0  0  0  0  0  0  0  0
    1.5854  -11.0021    1.7249 C   0  0  0  0  0  0  0  0  0  0  0  0
    1.3573   -9.7389    1.9287 C   0  0  0  0  0  0  0  0  0  0  0  0
    1.2865   -8.8078    0.9161 C   0  0  0  0  0  0  0  0  0  0  0  0
    1.6845   -9.1638   -0.2896 C   0  0  0  0  0  0  0  0  0  0  0  0
    2.0771  -13.2284    2.3629 C   0  0  0  0  0  0  0  0  0  0  0  0
    2.4409  -13.5750    1.0743 O   0  0  0  0  0  0  0  0  0  0  0  0
    2.0821  -14.1980    3.2340 O   0  0  0  0  0  0  0  0  0  0  0  0
    1.6355   -8.1272   -1.3715 C   0  0  0  0  0  0  0  0  0  0  0  0
    2.1265   -7.1496    3.2351 O   0  0  0  0  0  0  0  0  0  0  0  0
    0.0090   -7.4809    3.8855 O   0  0  0  0  0  0  0  0  0  0  0  0
    0.7411   -8.0276   -1.9088 O   0  0  0  0  0  0  0  0  0  0  0  0
    2.8397   -7.8281   -1.7950 O   0  0  0  0  0  0  0  0  0  0  0  0
    2.1018  -15.5011    2.7746 C   0  0  0  0  0  0  0  0  0  0  0  0
    0.9414  -16.2229    2.8951 C   0  0  0  0  0  0  0  0  0  0  0  0
  1  2  1  0
  7  8  1  0
  8  9  2  3
  5 10  1  0
 10 11  2  0
 10 12  1  0
  9 13  1  0
  1 14  2  0
  1 15  1  0
 13 16  2  0
 13 17  1  0
 12 18  1  0
 18 19  1  0
  2  3  2  0
  3  4  1  0
  4  5  2  0
  5  6  1  0
  6  7  2  0
  2  7  1  0
M  END

$$$$
No_524-/export/home/yangzhenyu/potential_scad_32_flow//YTHDC2/2024-12-06-03-22-00/
     RDKit          3D

 19 19  0  0  1  0  0  0  0  0999 V2000
    1.1787   -8.0297    3.5154 O   0  0  0  0  0  0  0  0  0  0  0  0
    0.9969   -8.9689    3.0048 C   0  0  1  0  0  0  0  0  0  0  0  0
    0.9976   -8.9567    1.6341 C   0  0  0  0  0  0  0  0  0  0  0  0
    0.7663   -7.7728    1.0082 C   0  0  1  0  0  0  0  0  0  0  0  0
    1.1468   -6.5619    1.6541 C   0  0  0  0  0  0  0  0  0  0  0  0
    1.3592   -6.6155    3.0007 C   0  0  0  0  0  0  0  0  0  0  0  0
    1.2035  -10.1894    3.6215 C   0  0  0  0  0  0  0  0  0  0  0  0
    2.4059  -10.7048    3.7081 C   0  0  0  0  0  0  0  0  0  0  0  0
    0.4828   -7.7156   -0.2479 C   0  0  0  0  0  0  0  0  0  0  0  0
   -0.7865   -7.3526   -0.6668 C   0  0  0  0  0  0  0  0  0  0  0  0
   -1.2025   -7.3519   -1.8886 O   0  0  0  0  0  0  0  0  0  0  0  0
   -1.6369   -6.7022    0.1187 O   0  0  0  0  0  0  0  0  0  0  0  0
    2.7375  -11.6205    4.7110 F   0  0  0  0  0  0  0  0  0  0  0  0
    1.1850   -8.3315   -1.1452 O   0  0  0  0  0  0  0  0  0  0  0  0
    3.3728  -10.5149    3.0403 F   0  0  0  0  0  0  0  0  0  0  0  0
    1.6498   -5.6393    3.7663 C   0  0  0  0  0  0  0  0  0  0  0  0
    1.8910   -5.5976    4.8999 O   0  0  0  0  0  0  0  0  0  0  0  0
    1.5333   -4.3000    3.1721 O   0  0  0  0  0  0  0  0  0  0  0  0
    0.2228  -10.8674    4.1631 C   0  0  0  0  0  0  0  0  0  0  0  0
  1  2  1  0
  2  3  1  0
  3  4  1  0
  4  5  1  0
  1  6  1  0
  5  6  1  0
  2  7  1  6
  7  8  1  0
  4  9  1  6
  9 10  1  0
 10 11  2  0
 10 12  1  0
  8 13  1  0
  9 14  2  0
  8 15  1  0
  6 16  1  0
 16 17  2  0
 16 18  1  0
  7 19  1  0
M  END

$$$$
No_525-/export/home/yangzhenyu/potential_scad_32_flow//YTHDC2/2024-12-06-03-22-00/
     RDKit          3D

 18 18  0  0  0  0  0  0  0  0999 V2000
    1.1787   -8.0297    3.5154 C   0  0  0  0  0  0  0  0  0  0  0  0
    1.0491   -6.8434    2.9820 C   0  0  0  0  0  0  0  0  0  0  0  0
    0.0950   -8.8404    3.2292 N   0  0  0  0  0  0  0  0  0  0  0  0
    1.1585   -5.6295    3.6597 C   0  0  0  0  0  0  0  0  0  0  0  0
    0.1915  -10.0365    3.7532 C   0  0  0  0  0  0  0  0  0  0  0  0
    1.3765  -10.5715    4.3102 N   0  0  0  0  0  0  0  0  0  0  0  0
   -0.9977  -10.6436    4.1207 O   0  0  0  0  0  0  0  0  0  0  0  0
    0.9391   -4.4364    3.0292 C   0  0  0  0  0  0  0  0  0  0  0  0
    0.9390   -4.4611    1.5950 C   0  0  0  0  0  0  0  0  0  0  0  0
    0.7858   -5.6069    0.9492 C   0  0  0  0  0  0  0  0  0  0  0  0
    0.9350   -6.8134    1.5628 C   0  0  0  0  0  0  0  0  0  0  0  0
    0.9970   -7.8728    0.8105 C   0  0  0  0  0  0  0  0  0  0  0  0
    2.2955   -8.5549    0.5136 O   0  0  0  0  0  0  0  0  0  0  0  0
    0.0391   -8.5993    0.2671 N   0  0  0  0  0  0  0  0  0  0  0  0
    0.1648   -9.7586   -0.6319 C   0  0  0  0  0  0  0  0  0  0  0  0
   -0.7551   -9.4810   -1.8378 C   0  0  0  0  0  0  0  0  0  0  0  0
   -0.5015   -8.5870   -2.7521 O   0  0  0  0  0  0  0  0  0  0  0  0
   -1.2161  -10.6508   -2.3552 O   0  0  0  0  0  0  0  0  0  0  0  0
  1  2  1  0
  1  3  1  0
  3  5  1  0
  5  6  1  0
  5  7  2  0
 11 12  1  0
 12 13  2  0
 12 14  1  0
 14 15  1  0
 15 16  1  0
 16 17  2  0
 16 18  1  0
  2  4  2  0
  4  8  1  0
  8  9  2  0
  9 10  1  0
 10 11  2  0
  2 11  1  0
M  END

$$$$
No_526-/export/home/yangzhenyu/potential_scad_32_flow//YTHDC2/2024-12-06-03-22-00/
     RDKit          3D

 18 18  0  0  1  0  0  0  0  0999 V2000
    1.1787   -8.0297    3.5154 C   0  0  0  0  0  0  0  0  0  0  0  0
    1.0491   -6.8434    2.9820 C   0  0  0  0  0  0  0  0  0  0  0  0
    1.9985   -8.9840    2.8958 C   0  0  0  0  0  0  0  0  0  0  0  0
    1.7297   -9.2108    1.6335 C   0  0  2  0  0  0  0  0  0  0  0  0
    2.1788  -10.5482    1.1239 C   0  0  0  0  0  0  0  0  0  0  0  0
    0.8226   -6.9903    1.4377 C   0  0  0  0  0  0  0  0  0  0  0  0
    1.5914   -8.1153    0.8208 C   0  0  0  0  0  0  0  0  0  0  0  0
    2.3898  -10.7430   -0.0922 O   0  0  0  0  0  0  0  0  0  0  0  0
    2.2187  -11.6204    1.8822 O   0  0  0  0  0  0  0  0  0  0  0  0
    1.6126   -8.1011   -0.4779 O   0  0  0  0  0  0  0  0  0  0  0  0
    1.0505   -5.6619    3.4881 C   0  0  0  0  0  0  0  0  0  0  0  0
    0.1804   -4.7207    3.2456 O   0  0  0  0  0  0  0  0  0  0  0  0
    2.0231   -5.2060    4.3110 O   0  0  0  0  0  0  0  0  0  0  0  0
    0.1583   -6.1444    0.8194 O   0  0  0  0  0  0  0  0  0  0  0  0
    1.1571  -12.1231    2.7235 C   0  0  0  0  0  0  0  0  0  0  0  0
    0.1248  -12.7579    2.0660 C   0  0  0  0  0  0  0  0  0  0  0  0
    0.3150  -13.9978    1.6671 C   0  0  0  0  0  0  0  0  0  0  0  0
   -0.0938  -14.4678    0.6145 C   0  0  0  0  0  0  0  0  0  0  0  0
  1  2  1  0
  1  3  1  0
  3  4  1  0
  4  5  1  6
  2  6  1  0
  4  7  1  0
  6  7  1  0
  5  8  2  0
  5  9  1  0
  7 10  2  0
  2 11  1  0
 11 12  2  0
 11 13  1  0
  6 14  2  0
  9 15  1  0
 15 16  1  0
 16 17  1  0
 17 18  2  0
M  END

$$$$
No_527-/export/home/yangzhenyu/potential_scad_32_flow//YTHDC2/2024-12-06-03-22-00/
     RDKit          3D

 18 18  0  0  1  0  0  0  0  0999 V2000
    1.1787   -8.0297    3.5154 O   0  0  0  0  0  0  0  0  0  0  0  0
    0.9969   -8.9689    3.0048 C   0  0  1  0  0  0  0  0  0  0  0  0
    0.9976   -8.9567    1.6341 C   0  0  2  0  0  0  0  0  0  0  0  0
    1.6062   -9.9071    0.9292 C   0  0  1  0  0  0  0  0  0  0  0  0
    2.1191  -10.9757    1.6503 C   0  0  0  0  0  0  0  0  0  0  0  0
    2.1177  -10.9891    3.0403 C   0  0  0  0  0  0  0  0  0  0  0  0
    1.5441   -9.8905    3.6897 C   0  0  0  0  0  0  0  0  0  0  0  0
    0.4333   -7.7031    1.0153 O   0  0  0  0  0  0  0  0  0  0  0  0
    1.6009  -10.1868    5.0222 O   0  0  0  0  0  0  0  0  0  0  0  0
    1.5100   -9.8747   -0.4397 Cl  0  0  0  0  0  0  0  0  0  0  0  0
   -0.9055   -7.7389    0.9354 C   0  0  2  0  0  0  0  0  0  0  0  0
   -1.5385   -8.6237    0.6816 C   0  0  0  0  0  0  0  0  0  0  0  0
   -2.2516   -9.3563    1.5373 O   0  0  0  0  0  0  0  0  0  0  0  0
   -1.3215   -6.4226    0.9971 C   0  0  0  0  0  0  0  0  0  0  0  0
   -0.9789   -5.5250    1.9303 C   0  0  0  0  0  0  0  0  0  0  0  0
    0.3998   -4.8506    1.7731 C   0  0  0  0  0  0  0  0  0  0  0  0
   -1.8222   -9.0778   -0.6019 O   0  0  0  0  0  0  0  0  0  0  0  0
    0.8886   -3.8264    2.2808 C   0  0  0  0  0  0  0  0  0  0  0  0
  2  1  1  1
  2  3  1  0
  4  5  1  0
  2  7  1  0
  6  7  1  0
  3  8  1  1
  7  9  2  0
  4 10  1  6
  8 11  1  0
 11 12  1  0
 12 13  1  0
 11 14  1  6
 14 15  1  0
 15 16  1  0
 12 17  2  0
 16 18  2  0
  3  4  1  0
  5  6  1  0
M  END

$$$$
No_528-/export/home/yangzhenyu/potential_scad_32_flow//YTHDC2/2024-12-06-03-22-00/
     RDKit          3D

 21 22  0  0  1  0  0  0  0  0999 V2000
    1.1787   -8.0297    3.5154 Cl  0  0  0  0  0  0  0  0  0  0  0  0
    0.7279   -9.0023    2.8722 C   0  0  0  0  0  0  0  0  0  0  0  0
   -0.0117   -8.9271    1.8829 C   0  0  0  0  0  0  0  0  0  0  0  0
   -0.4744   -7.9794    1.4770 C   0  0  0  0  0  0  0  0  0  0  0  0
   -1.1096   -7.8701    0.3980 C   0  0  0  0  0  0  0  0  0  0  0  0
   -1.2541   -8.9422   -0.5463 C   0  0  0  0  0  0  0  0  0  0  0  0
   -1.7967   -9.0361   -1.8192 C   0  0  0  0  0  0  0  0  0  0  0  0
   -2.1177   -8.0218   -2.4456 I   0  0  0  0  0  0  0  0  0  0  0  0
    1.1937  -10.3451    3.4807 C   0  0  0  0  0  0  0  0  0  0  0  0
    1.1598  -11.4385    2.7434 C   0  0  2  0  0  0  0  0  0  0  0  0
    0.4754  -11.3329    1.4434 C   0  0  0  0  0  0  0  0  0  0  0  0
   -0.0785  -10.1039    0.9773 C   0  0  0  0  0  0  0  0  0  0  0  0
   -0.7017  -10.1188   -0.1029 N   0  0  0  0  0  0  0  0  0  0  0  0
    1.7072  -12.9433    3.1811 C   0  0  0  0  0  0  0  0  0  0  0  0
    0.4377  -12.4450    0.7105 O   0  0  0  0  0  0  0  0  0  0  0  0
    1.5060  -13.9657    2.2893 N   0  0  0  0  0  0  0  0  0  0  0  0
    2.9124  -14.4909    1.7585 C   0  0  0  0  0  0  0  0  0  0  0  0
    0.7797  -15.1083    2.8227 C   0  0  0  0  0  0  0  0  0  0  0  0
    0.6514  -16.1725    2.0239 C   0  0  0  0  0  0  0  0  0  0  0  0
    0.2296  -16.1491    0.9471 N   0  0  0  0  0  0  0  0  0  0  0  0
    1.0804  -17.3648    2.6402 C   0  0  0  0  0  0  0  0  0  0  0  0
  1  2  1  0
  2  3  1  0
  6  7  1  0
  7  8  1  0
  2  9  1  0
 10 11  1  0
 11 12  1  0
 10 14  1  1
 11 15  2  0
 14 16  1  0
 16 17  1  0
 16 18  1  0
 18 19  1  0
 19 20  1  0
 19 21  1  0
  9 10  1  0
  3  4  2  0
  4  5  1  0
  5  6  2  0
  6 13  1  0
 12 13  2  0
  3 12  1  0
M  END

$$$$
No_529-/export/home/yangzhenyu/potential_scad_32_flow//YTHDC2/2024-12-06-03-22-00/
     RDKit          3D

 18 19  0  0  0  0  0  0  0  0999 V2000
    1.1787   -8.0297    3.5154 C   0  0  0  0  0  0  0  0  0  0  0  0
    1.0491   -6.8434    2.9820 Cl  0  0  0  0  0  0  0  0  0  0  0  0
    2.1643   -8.9961    3.0118 C   0  0  0  0  0  0  0  0  0  0  0  0
    2.0542  -10.3454    3.7325 C   0  0  0  0  0  0  0  0  0  0  0  0
    1.0539  -10.6340    4.5979 C   0  0  0  0  0  0  0  0  0  0  0  0
   -0.0044   -9.7649    4.6652 C   0  0  0  0  0  0  0  0  0  0  0  0
   -0.0119   -8.5383    4.1066 C   0  0  0  0  0  0  0  0  0  0  0  0
   -1.0182   -7.7174    4.3477 C   0  0  0  0  0  0  0  0  0  0  0  0
   -1.6631   -7.1382    3.3519 C   0  0  0  0  0  0  0  0  0  0  0  0
   -2.8608   -6.2803    3.6894 C   0  0  0  0  0  0  0  0  0  0  0  0
   -3.7316   -6.6118    4.6280 C   0  0  0  0  0  0  0  0  0  0  0  0
   -3.2693   -7.5109    5.5840 C   0  0  0  0  0  0  0  0  0  0  0  0
   -2.0865   -8.1398    5.5378 C   0  0  0  0  0  0  0  0  0  0  0  0
   -4.0589   -7.8309    6.7789 C   0  0  0  0  0  0  0  0  0  0  0  0
   -3.6739   -7.9953    7.9566 O   0  0  0  0  0  0  0  0  0  0  0  0
   -5.3557   -8.2912    6.5162 O   0  0  0  0  0  0  0  0  0  0  0  0
    3.2213  -11.1417    3.5568 C   0  0  0  0  0  0  0  0  0  0  0  0
    3.2363  -12.1057    4.6025 O   0  0  0  0  0  0  0  0  0  0  0  0
  1  2  1  0
  7  8  1  0
 12 14  1  0
 14 15  2  0
 14 16  1  0
  4 17  1  0
 17 18  1  0
  8  9  2  0
  9 10  1  0
 10 11  2  0
 11 12  1  0
 12 13  2  0
  8 13  1  0
  1  3  2  0
  3  4  1  0
  4  5  2  0
  5  6  1  0
  6  7  2  0
  1  7  1  0
M  END

$$$$
No_530-/export/home/yangzhenyu/potential_scad_32_flow//YTHDC2/2024-12-06-03-22-00/
     RDKit          3D

 19 20  0  0  0  0  0  0  0  0999 V2000
    1.1787   -8.0297    3.5154 C   0  0  0  0  0  0  0  0  0  0  0  0
    1.1048   -9.2215    3.2892 C   0  0  0  0  0  0  0  0  0  0  0  0
    1.3627  -10.1721    4.3044 C   0  0  0  0  0  0  0  0  0  0  0  0
    1.0682  -11.5187    4.0618 C   0  0  0  0  0  0  0  0  0  0  0  0
    0.6332  -11.9655    2.9682 C   0  0  0  0  0  0  0  0  0  0  0  0
    0.4776  -11.1308    1.9203 C   0  0  0  0  0  0  0  0  0  0  0  0
    0.7470   -9.8274    2.0368 C   0  0  0  0  0  0  0  0  0  0  0  0
    1.0387   -7.0301    2.5175 O   0  0  0  0  0  0  0  0  0  0  0  0
    0.4220  -13.4291    2.8032 C   0  0  0  0  0  0  0  0  0  0  0  0
    1.4050  -14.3276    3.1066 C   0  0  0  0  0  0  0  0  0  0  0  0
    2.4323  -14.4750    2.6322 C   0  0  0  0  0  0  0  0  0  0  0  0
    2.7751  -15.8767    2.3710 O   0  0  0  0  0  0  0  0  0  0  0  0
    0.6685   -9.0114    0.9507 C   0  0  0  0  0  0  0  0  0  0  0  0
    0.9132   -9.1533   -0.0890 C   0  0  0  0  0  0  0  0  0  0  0  0
    0.5725   -8.3245   -1.2203 C   0  0  0  0  0  0  0  0  0  0  0  0
   -0.3374   -7.4251   -0.5660 C   0  0  0  0  0  0  0  0  0  0  0  0
   -0.2991   -7.8484    0.8254 C   0  0  0  0  0  0  0  0  0  0  0  0
   -1.1111   -6.4571   -1.0756 O   0  0  0  0  0  0  0  0  0  0  0  0
    1.5917   -7.4814    4.6469 N   0  0  0  0  0  0  0  0  0  0  0  0
  1  2  1  0
  1  8  2  0
  5  9  1  0
  9 10  1  0
 10 11  1  0
 11 12  1  0
  7 13  1  0
 13 14  2  0
 14 15  1  0
 15 16  2  0
 13 17  1  0
 16 17  1  0
 16 18  1  0
  1 19  1  0
  2  3  2  0
  3  4  1  0
  4  5  2  0
  5  6  1  0
  6  7  2  0
  2  7  1  0
M  END

$$$$
No_531-/export/home/yangzhenyu/potential_scad_32_flow//YTHDC2/2024-12-06-03-22-00/
     RDKit          3D

 20 20  0  0  1  0  0  0  0  0999 V2000
    1.1787   -8.0297    3.5154 C   0  0  0  0  0  0  0  0  0  0  0  0
    1.1048   -9.2215    3.2892 C   0  0  1  0  0  0  0  0  0  0  0  0
    1.2339   -9.7611    2.0189 I   0  0  0  0  0  0  0  0  0  0  0  0
    1.0390   -7.0103    2.5276 C   0  0  0  0  0  0  0  0  0  0  0  0
    1.0113   -5.5416    2.7325 C   0  0  1  0  0  0  0  0  0  0  0  0
    1.7963   -5.0380    3.8139 C   0  0  0  0  0  0  0  0  0  0  0  0
    1.0479  -10.0612    4.5595 C   0  0  0  0  0  0  0  0  0  0  0  0
    1.7912  -11.2581    4.5229 C   0  0  0  0  0  0  0  0  0  0  0  0
    3.0311  -11.1665    4.6510 N   0  0  0  0  0  0  0  0  0  0  0  0
    0.4630   -4.7627    1.8234 C   0  0  0  0  0  0  0  0  0  0  0  0
   -0.1776   -3.9925    1.9078 C   0  0  0  0  0  0  0  0  0  0  0  0
   -0.8820   -3.7715    3.2218 C   0  0  0  0  0  0  0  0  0  0  0  0
    1.3535  -12.4621    4.1877 N   0  0  0  0  0  0  0  0  0  0  0  0
   -1.4494   -2.5583    3.5142 C   0  0  0  0  0  0  0  0  0  0  0  0
   -1.7926   -2.5820    4.8007 C   0  0  0  0  0  0  0  0  0  0  0  0
   -1.8644   -3.7755    5.5022 C   0  0  0  0  0  0  0  0  0  0  0  0
   -1.3579   -4.5700    4.3883 C   0  0  0  0  0  0  0  0  0  0  0  0
    1.8885   -3.7445    3.8638 O   0  0  0  0  0  0  0  0  0  0  0  0
   -0.7737   -2.9396    0.7241 C   0  0  0  0  0  0  0  0  0  0  0  0
    2.0013  -13.2339    4.1189 H   0  0  0  0  0  0  0  0  0  0  0  0
  1  2  1  0
  2  3  1  1
  1  4  2  3
  4  5  1  0
  5  6  1  6
  2  7  1  0
  7  8  1  0
  8  9  1  0
  5 10  1  0
 10 11  2  3
 11 12  1  0
  8 13  2  0
 12 14  1  0
 14 15  2  0
 15 16  1  0
 12 17  1  0
 16 17  2  0
  6 18  2  0
 11 19  1  0
 13 20  1  0
M  END

$$$$
No_532-/export/home/yangzhenyu/potential_scad_32_flow//YTHDC2/2024-12-06-03-22-00/
     RDKit          3D

 20 20  0  0  1  0  0  0  0  0999 V2000
    1.1787   -8.0297    3.5154 C   0  0  0  0  0  0  0  0  0  0  0  0
    1.0491   -6.8434    2.9820 C   0  0  0  0  0  0  0  0  0  0  0  0
    1.9985   -8.9840    2.8958 C   0  0  0  0  0  0  0  0  0  0  0  0
    1.9135  -10.3404    3.6266 C   0  0  0  0  0  0  0  0  0  0  0  0
    1.3291  -11.3908    3.0222 C   0  0  2  0  0  0  0  0  0  0  0  0
    1.2749  -12.5326    3.7562 C   0  0  0  0  0  0  0  0  0  0  0  0
    1.8025   -5.7637    3.3237 O   0  0  0  0  0  0  0  0  0  0  0  0
    0.6993  -13.6777    3.1480 C   0  0  1  0  0  0  0  0  0  0  0  0
    0.4312  -13.6502    1.8454 C   0  0  0  0  0  0  0  0  0  0  0  0
    0.6474  -12.6281    1.0768 C   0  0  0  0  0  0  0  0  0  0  0  0
    1.1387  -11.4640    1.6116 C   0  0  0  0  0  0  0  0  0  0  0  0
    0.2701   -6.5293    1.9614 O   0  0  0  0  0  0  0  0  0  0  0  0
    1.3472  -10.4142    0.7595 O   0  0  0  0  0  0  0  0  0  0  0  0
    0.5617  -14.8237    3.8992 O   0  0  0  0  0  0  0  0  0  0  0  0
    2.6571  -10.3633    4.7627 O   0  0  0  0  0  0  0  0  0  0  0  0
    0.4837  -16.0662    3.3834 C   0  0  0  0  0  0  0  0  0  0  0  0
    1.6387  -16.5870    2.7895 C   0  0  0  0  0  0  0  0  0  0  0  0
    1.6390  -17.9554    2.3162 C   0  0  0  0  0  0  0  0  0  0  0  0
    0.6555  -18.7663    2.7244 C   0  0  0  0  0  0  0  0  0  0  0  0
   -0.3541  -18.3225    3.5323 C   0  0  0  0  0  0  0  0  0  0  0  0
  1  2  1  0
  1  3  1  0
  3  4  1  0
  5  4  1  6
  5  6  1  0
  2  7  1  0
  8  9  1  0
  5 11  1  0
 10 11  1  0
  2 12  2  0
 11 13  2  0
  8 14  1  6
  4 15  2  0
 14 16  1  0
 16 17  1  0
 17 18  2  3
 18 19  1  0
 19 20  2  0
  6  8  1  0
  9 10  1  0
M  END

$$$$
No_533-/export/home/yangzhenyu/potential_scad_32_flow//YTHDC2/2024-12-06-03-22-00/
     RDKit          3D

 18 18  0  0  1  0  0  0  0  0999 V2000
    1.1787   -8.0297    3.5154 O   0  0  0  0  0  0  0  0  0  0  0  0
    0.9969   -8.9689    3.0048 C   0  0  0  0  0  0  0  0  0  0  0  0
    1.3055  -10.1056    3.6616 C   0  0  0  0  0  0  0  0  0  0  0  0
    2.1315  -10.4529    4.2438 C   0  0  0  0  0  0  0  0  0  0  0  0
    0.4484   -8.8156    1.7225 C   0  0  0  0  0  0  0  0  0  0  0  0
   -0.0257   -7.6054    1.5545 C   0  0  0  0  0  0  0  0  0  0  0  0
    0.8214   -6.5530    1.3964 C   0  0  2  0  0  0  0  0  0  0  0  0
    2.0840   -6.7104    1.3056 C   0  0  0  0  0  0  0  0  0  0  0  0
    0.4826   -5.3052    2.2433 C   0  0  1  0  0  0  0  0  0  0  0  0
    2.5577  -11.8167    4.7950 C   0  0  0  0  0  0  0  0  0  0  0  0
    0.3994  -11.3187    3.3114 C   0  0  0  0  0  0  0  0  0  0  0  0
    0.6278  -12.6067    3.6523 C   0  0  0  0  0  0  0  0  0  0  0  0
    1.8194  -12.8447    4.3475 C   0  0  0  0  0  0  0  0  0  0  0  0
    1.4355   -4.7472    2.8654 N   0  0  0  0  0  0  0  0  0  0  0  0
   -0.6645   -4.7433    2.1890 C   0  0  0  0  0  0  0  0  0  0  0  0
   -0.8766   -3.6209    3.0875 O   0  0  0  0  0  0  0  0  0  0  0  0
   -1.7552   -5.0812    1.4408 O   0  0  0  0  0  0  0  0  0  0  0  0
   -0.1798  -13.7011    3.0949 C   0  0  0  0  0  0  0  0  0  0  0  0
  1  2  1  0
  2  3  1  0
  2  5  1  0
  5  6  1  0
  6  7  1  0
  7  8  1  1
  7  9  1  0
  9 14  1  6
  9 15  1  0
 15 16  2  0
 15 17  1  0
 12 18  1  0
  3  4  2  0
  4 10  1  0
 10 13  2  0
 12 13  1  0
 11 12  2  0
  3 11  1  0
M  END

$$$$
No_534-/export/home/yangzhenyu/potential_scad_32_flow//YTHDC2/2024-12-06-03-22-00/
     RDKit          3D

 18 18  0  0  1  0  0  0  0  0999 V2000
    1.1787   -8.0297    3.5154 O   0  0  0  0  0  0  0  0  0  0  0  0
    0.6747   -7.4019    2.7838 C   0  0  0  0  0  0  0  0  0  0  0  0
    0.7594   -8.0032    1.4295 C   0  0  2  0  0  0  0  0  0  0  0  0
    0.3459   -9.1500    1.3581 C   0  0  0  0  0  0  0  0  0  0  0  0
    0.9462   -9.9230    0.3351 C   0  0  0  0  0  0  0  0  0  0  0  0
    1.6884   -9.1549   -0.6693 C   0  0  0  0  0  0  0  0  0  0  0  0
    2.2919   -7.9289   -0.4546 C   0  0  0  0  0  0  0  0  0  0  0  0
    1.8021   -7.1760    0.6858 C   0  0  0  0  0  0  0  0  0  0  0  0
    0.6770  -11.1152    0.0462 O   0  0  0  0  0  0  0  0  0  0  0  0
   -0.5702   -9.7179    2.0237 C   0  0  0  0  0  0  0  0  0  0  0  0
   -0.2923  -10.6482    3.1250 C   0  0  2  0  0  0  0  0  0  0  0  0
   -1.1687  -10.6542    4.1458 Cl  0  0  0  0  0  0  0  0  0  0  0  0
    0.8222  -11.4625    3.2243 C   0  0  0  0  0  0  0  0  0  0  0  0
    0.5754  -12.9296    2.5352 C   0  0  0  0  0  0  0  0  0  0  0  0
   -0.4516  -13.4112    2.4609 C   0  0  0  0  0  0  0  0  0  0  0  0
    1.8742  -13.4736    2.1250 C   0  0  0  0  0  0  0  0  0  0  0  0
    2.4242  -13.1232    1.1122 C   0  0  0  0  0  0  0  0  0  0  0  0
    0.4320   -6.1151    2.9153 O   0  0  0  0  0  0  0  0  0  0  0  0
  1  2  1  0
  3  2  1  1
  3  4  1  0
  4  5  1  0
  5  6  1  0
  6  7  1  0
  3  8  1  0
  7  8  1  0
  5  9  2  0
  4 10  1  0
 10 11  1  0
 11 12  1  1
 11 13  1  0
 13 14  1  0
 14 15  1  0
 14 16  1  0
 16 17  1  0
  2 18  2  0
M  END

$$$$
No_535-/export/home/yangzhenyu/potential_scad_32_flow//YTHDC2/2024-12-06-03-22-00/
     RDKit          3D

 18 18  0  0  1  0  0  0  0  0999 V2000
    1.1787   -8.0297    3.5154 C   0  0  0  0  0  0  0  0  0  0  0  0
    1.1048   -9.2215    3.2892 C   0  0  0  0  0  0  0  0  0  0  0  0
    1.2339   -9.7611    2.0189 C   0  0  0  0  0  0  0  0  0  0  0  0
    1.3583   -9.0036    0.9764 C   0  0  0  0  0  0  0  0  0  0  0  0
    1.5996   -7.6362    1.1311 C   0  0  0  0  0  0  0  0  0  0  0  0
    1.4830   -7.0928    2.3626 C   0  0  0  0  0  0  0  0  0  0  0  0
    1.1008  -11.2372    1.8542 C   0  0  1  0  0  0  0  0  0  0  0  0
    0.4812  -11.6084    0.6459 C   0  0  0  0  0  0  0  0  0  0  0  0
   -0.3691  -10.9312    0.0124 O   0  0  0  0  0  0  0  0  0  0  0  0
    0.3108  -12.9642    0.4726 O   0  0  0  0  0  0  0  0  0  0  0  0
    1.5890   -5.4679    2.7509 F   0  0  0  0  0  0  0  0  0  0  0  0
    1.8597  -12.0095    2.5457 C   0  0  0  0  0  0  0  0  0  0  0  0
    1.5462  -13.2910    2.7036 C   0  0  0  0  0  0  0  0  0  0  0  0
    2.3316  -14.3799    2.5448 C   0  0  0  0  0  0  0  0  0  0  0  0
    3.4835  -14.3790    1.9128 O   0  0  0  0  0  0  0  0  0  0  0  0
    1.9085  -15.7020    2.8399 O   0  0  0  0  0  0  0  0  0  0  0  0
    1.6423   -9.3407   -0.3492 Cl  0  0  0  0  0  0  0  0  0  0  0  0
    0.8361  -10.0745    4.4040 O   0  0  0  0  0  0  0  0  0  0  0  0
  3  7  1  0
  7  8  1  6
  8  9  2  0
  8 10  1  0
  6 11  1  0
  7 12  1  0
 12 13  2  3
 13 14  1  0
 14 15  2  0
 14 16  1  0
  4 17  1  0
  2 18  1  0
  1  2  2  0
  2  3  1  0
  3  4  2  0
  4  5  1  0
  5  6  2  0
  1  6  1  0
M  END

$$$$
No_536-/export/home/yangzhenyu/potential_scad_32_flow//YTHDC2/2024-12-06-03-22-00/
     RDKit          3D

 20 20  0  0  1  0  0  0  0  0999 V2000
    1.1787   -8.0297    3.5154 N   0  0  0  0  0  0  0  0  0  0  0  0
    0.8669   -7.0905    2.8589 C   0  0  0  0  0  0  0  0  0  0  0  0
    1.0039   -7.3686    1.4179 C   0  0  0  0  0  0  0  0  0  0  0  0
    1.2818   -8.4791    0.9991 C   0  0  0  0  0  0  0  0  0  0  0  0
    1.7823   -9.4650    1.7819 P   0  0  1  0  0  0  0  0  0  0  0  0
    1.7433   -9.1683    3.2363 C   0  0  2  0  0  0  0  0  0  0  0  0
    2.2112  -10.7328    1.3409 O   0  0  0  0  0  0  0  0  0  0  0  0
    1.5096   -8.5294   -0.4713 C   0  0  0  0  0  0  0  0  0  0  0  0
    1.9686  -10.1781    4.2720 C   0  0  0  0  0  0  0  0  0  0  0  0
    0.2881   -8.8509   -1.1491 O   0  0  0  0  0  0  0  0  0  0  0  0
    2.5641   -8.6240   -1.1745 O   0  0  0  0  0  0  0  0  0  0  0  0
    3.2481  -10.6956    4.2799 N   0  0  0  0  0  0  0  0  0  0  0  0
    1.1222  -10.7102    4.9438 O   0  0  0  0  0  0  0  0  0  0  0  0
    3.5862  -11.6022    5.3413 C   0  0  0  0  0  0  0  0  0  0  0  0
    4.2491  -10.4513    6.4165 C   0  0  0  0  0  0  0  0  0  0  0  0
    0.5073   -5.8829    3.3909 C   0  0  0  0  0  0  0  0  0  0  0  0
    1.5400   -4.7588    3.3957 C   0  0  0  0  0  0  0  0  0  0  0  0
    0.9369   -3.5474    3.8729 O   0  0  0  0  0  0  0  0  0  0  0  0
   -0.0352   -3.1110    3.5667 C   0  0  0  0  0  0  0  0  0  0  0  0
   -0.0418   -2.3902    2.4107 C   0  0  0  0  0  0  0  0  0  0  0  0
  1  2  2  0
  2  3  1  0
  3  4  2  0
  5  4  1  1
  1  6  1  0
  5  6  1  0
  5  7  2  0
  4  8  1  0
  6  9  1  1
  8 10  1  0
  8 11  2  0
  9 12  1  0
  9 13  2  0
 12 14  1  0
 14 15  1  0
  2 16  1  0
 16 17  1  0
 17 18  1  0
 18 19  1  0
 19 20  1  0
M  END

$$$$
No_537-/export/home/yangzhenyu/potential_scad_32_flow//YTHDC2/2024-12-06-03-22-00/
     RDKit          3D

 19 19  0  0  0  0  0  0  0  0999 V2000
    1.1787   -8.0297    3.5154 C   0  0  0  0  0  0  0  0  0  0  0  0
    1.0491   -6.8434    2.9820 Cl  0  0  0  0  0  0  0  0  0  0  0  0
    2.1643   -8.9961    3.0118 C   0  0  0  0  0  0  0  0  0  0  0  0
    2.0542  -10.3454    3.7325 C   0  0  0  0  0  0  0  0  0  0  0  0
    1.0539  -10.6340    4.5979 C   0  0  0  0  0  0  0  0  0  0  0  0
   -0.1289  -10.2282    4.2193 C   0  0  0  0  0  0  0  0  0  0  0  0
   -0.1116   -8.7532    3.7940 C   0  0  0  0  0  0  0  0  0  0  0  0
   -1.2144   -7.9359    4.0165 C   0  0  0  0  0  0  0  0  0  0  0  0
   -1.8933   -7.4655    3.0330 O   0  0  0  0  0  0  0  0  0  0  0  0
   -1.8666   -7.9125    5.2375 O   0  0  0  0  0  0  0  0  0  0  0  0
    3.5580  -11.1825    3.7399 C   0  0  0  0  0  0  0  0  0  0  0  0
    4.0078  -11.2343    5.0861 Br  0  0  0  0  0  0  0  0  0  0  0  0
    3.7270  -11.5704    2.6989 N   0  0  0  0  0  0  0  0  0  0  0  0
   -2.9943   -8.6316    5.3991 C   0  0  0  0  0  0  0  0  0  0  0  0
   -4.1215   -7.8607    5.6582 C   0  0  0  0  0  0  0  0  0  0  0  0
   -5.1077   -8.5902    6.0723 C   0  0  0  0  0  0  0  0  0  0  0  0
   -5.2938   -9.9470    6.0216 C   0  0  0  0  0  0  0  0  0  0  0  0
   -4.2126  -10.6509    5.6035 C   0  0  0  0  0  0  0  0  0  0  0  0
    4.5376  -12.1380    2.4969 H   0  0  0  0  0  0  0  0  0  0  0  0
  1  2  1  0
  7  8  1  0
  8  9  2  0
  8 10  1  0
  4 11  1  0
 11 12  1  0
 11 13  2  0
 10 14  1  0
 14 15  1  0
 15 16  2  3
 16 17  1  0
 17 18  2  0
  1  3  2  0
  3  4  1  0
  4  5  2  0
  5  6  1  0
  6  7  2  0
  1  7  1  0
 13 19  1  0
M  END

$$$$
No_538-/export/home/yangzhenyu/potential_scad_32_flow//YTHDC2/2024-12-06-03-22-00/
     RDKit          3D

 19 20  0  0  0  0  0  0  0  0999 V2000
    1.1787   -8.0297    3.5154 C   0  0  0  0  0  0  0  0  0  0  0  0
    1.0491   -6.8434    2.9820 C   0  0  0  0  0  0  0  0  0  0  0  0
    0.0950   -8.8404    3.2292 C   0  0  0  0  0  0  0  0  0  0  0  0
   -0.9173   -8.4596    2.5152 C   0  0  0  0  0  0  0  0  0  0  0  0
   -1.0331   -7.2162    2.0653 C   0  0  0  0  0  0  0  0  0  0  0  0
   -0.0105   -6.3168    2.3081 C   0  0  0  0  0  0  0  0  0  0  0  0
    0.1465  -10.2446    3.6981 C   0  0  0  0  0  0  0  0  0  0  0  0
    1.2433  -10.8239    4.0166 C   0  0  0  0  0  0  0  0  0  0  0  0
    1.0790  -12.2885    4.3779 N   0  0  0  0  0  0  0  0  0  0  0  0
    0.0124  -12.7573    3.8993 C   0  0  0  0  0  0  0  0  0  0  0  0
   -0.6559  -11.3969    3.4669 N   0  0  0  0  0  0  0  0  0  0  0  0
   -0.0777   -5.0203    1.8399 C   0  0  0  0  0  0  0  0  0  0  0  0
    0.7510   -4.0343    2.3611 O   0  0  0  0  0  0  0  0  0  0  0  0
   -1.0131   -4.4963    1.1736 O   0  0  0  0  0  0  0  0  0  0  0  0
    2.5511  -10.2598    4.4498 N   0  0  0  0  0  0  0  0  0  0  0  0
   -0.4425  -13.8449    3.6646 C   0  0  0  0  0  0  0  0  0  0  0  0
   -0.2247  -14.3873    2.3148 C   0  0  0  0  0  0  0  0  0  0  0  0
   -0.0605  -15.6903    2.2063 C   0  0  0  0  0  0  0  0  0  0  0  0
   -0.2408  -16.6350    3.0325 C   0  0  0  0  0  0  0  0  0  0  0  0
  3  7  1  0
  7  8  2  0
  8  9  1  0
  9 10  2  0
  7 11  1  0
 10 11  1  0
  6 12  1  0
 12 13  2  0
 12 14  1  0
  8 15  1  0
 10 16  1  0
 16 17  1  0
 17 18  1  0
 18 19  1  0
  1  2  2  0
  2  6  1  0
  5  6  2  0
  4  5  1  0
  3  4  2  0
  1  3  1  0
M  END

$$$$
No_539-/export/home/yangzhenyu/potential_scad_32_flow//YTHDC2/2024-12-06-03-22-00/
     RDKit          3D

 20 22  0  0  1  0  0  0  0  0999 V2000
    1.1787   -8.0297    3.5154 Cl  0  0  0  0  0  0  0  0  0  0  0  0
    0.7279   -9.0023    2.8722 C   0  0  0  0  0  0  0  0  0  0  0  0
    1.3852  -10.2194    3.0621 C   0  0  0  0  0  0  0  0  0  0  0  0
    0.9411  -11.2612    3.2024 C   0  0  0  0  0  0  0  0  0  0  0  0
   -0.4271  -11.5165    2.9551 C   0  0  0  0  0  0  0  0  0  0  0  0
   -1.1780  -10.4324    2.6767 C   0  0  0  0  0  0  0  0  0  0  0  0
   -0.6311   -9.1616    2.7269 C   0  0  0  0  0  0  0  0  0  0  0  0
    1.7730  -12.5113    3.3849 O   0  0  0  0  0  0  0  0  0  0  0  0
   -1.4794   -8.1935    3.2684 C   0  0  0  0  0  0  0  0  0  0  0  0
   -2.7516   -7.9865    2.8271 C   0  0  0  0  0  0  0  0  0  0  0  0
   -2.9488   -8.3601    1.6007 C   0  0  0  0  0  0  0  0  0  0  0  0
   -3.3905   -7.9300    0.7486 C   0  0  0  0  0  0  0  0  0  0  0  0
   -3.6398   -8.5223   -0.6031 C   0  0  1  0  0  0  0  0  0  0  0  0
   -3.1447   -9.8783   -0.4395 C   0  0  0  0  0  0  0  0  0  0  0  0
   -2.6249  -10.4534    0.5738 C   0  0  0  0  0  0  0  0  0  0  0  0
   -2.4229   -9.8367    1.6473 C   0  0  0  0  0  0  0  0  0  0  0  0
   -2.2408  -11.8549    0.3718 O   0  0  0  0  0  0  0  0  0  0  0  0
    1.4531  -13.7961    3.0842 C   0  0  0  0  0  0  0  0  0  0  0  0
   -4.2626   -7.9898   -1.6269 C   0  0  0  0  0  0  0  0  0  0  0  0
   -5.3883   -7.9992   -1.7660 O   0  0  0  0  0  0  0  0  0  0  0  0
  1  2  1  0
  4  8  1  0
 12 13  1  0
 14 15  1  0
 15 16  1  0
 15 17  2  0
  8 18  1  0
 13 19  1  1
 19 20  2  0
 13 14  1  0
 11 12  1  0
  2  3  2  0
  3  4  1  0
  4  5  2  0
  5  6  1  0
  2  7  1  0
  6  7  2  0
  7  9  1  0
  9 10  2  0
 10 11  1  0
 11 16  2  0
  6 16  1  0
M  END

$$$$
No_540-/export/home/yangzhenyu/potential_scad_32_flow//YTHDC2/2024-12-06-03-22-00/
     RDKit          3D

 18 19  0  0  1  0  0  0  0  0999 V2000
    1.1787   -8.0297    3.5154 O   0  0  0  0  0  0  0  0  0  0  0  0
    0.6747   -7.4019    2.7838 C   0  0  2  0  0  0  0  0  0  0  0  0
    0.5570   -6.0797    2.8560 C   0  0  0  0  0  0  0  0  0  0  0  0
    1.1189   -5.2588    2.0517 C   0  0  0  0  0  0  0  0  0  0  0  0
    1.6070   -5.7863    0.8484 C   0  0  0  0  0  0  0  0  0  0  0  0
   -0.2852   -8.0620    2.1324 C   0  0  0  0  0  0  0  0  0  0  0  0
   -0.0967   -9.5089    2.0805 N   0  0  0  0  0  0  0  0  0  0  0  0
    1.0224   -3.7357    2.0061 C   0  0  0  0  0  0  0  0  0  0  0  0
   -1.1198  -10.0912    1.4355 C   0  0  0  0  0  0  0  0  0  0  0  0
   -2.2690   -9.4731    1.4441 C   0  0  0  0  0  0  0  0  0  0  0  0
   -2.3211   -8.4742    1.9757 C   0  0  0  0  0  0  0  0  0  0  0  0
   -1.4185   -7.5050    2.2221 C   0  0  0  0  0  0  0  0  0  0  0  0
    1.5583   -3.1579    3.0812 O   0  0  0  0  0  0  0  0  0  0  0  0
    1.7398   -7.1969    1.3017 C   0  0  2  0  0  0  0  0  0  0  0  0
    2.1705   -8.1903    0.6086 C   0  0  0  0  0  0  0  0  0  0  0  0
    2.8562   -9.2820    1.1808 O   0  0  0  0  0  0  0  0  0  0  0  0
    2.4563   -8.1097   -0.7142 N   0  0  0  0  0  0  0  0  0  0  0  0
    0.5656   -3.0424    1.0382 O   0  0  0  0  0  0  0  0  0  0  0  0
  2  1  1  1
  2  3  1  0
  3  4  2  0
  4  5  1  0
  2  6  1  0
  4  8  1  0
  8 13  1  0
  2 14  1  0
  5 14  1  0
 14 15  1  6
 15 16  2  0
 15 17  1  0
  8 18  2  0
  6  7  2  0
  7  9  1  0
  9 10  2  0
 10 11  1  0
 11 12  2  0
  6 12  1  0
M  END

$$$$
No_541-/export/home/yangzhenyu/potential_scad_32_flow//YTHDC2/2024-12-06-03-22-00/
     RDKit          3D

 18 18  0  0  1  0  0  0  0  0999 V2000
    1.1787   -8.0297    3.5154 O   0  0  0  0  0  0  0  0  0  0  0  0
    0.9969   -8.9689    3.0048 C   0  0  1  0  0  0  0  0  0  0  0  0
    0.9976   -8.9567    1.6341 C   0  0  2  0  0  0  0  0  0  0  0  0
    1.6062   -9.9071    0.9292 C   0  0  1  0  0  0  0  0  0  0  0  0
    2.1191  -10.9757    1.6503 C   0  0  0  0  0  0  0  0  0  0  0  0
    2.1177  -10.9891    3.0403 C   0  0  1  0  0  0  0  0  0  0  0  0
    1.5441   -9.8905    3.6897 C   0  0  0  0  0  0  0  0  0  0  0  0
    0.5010   -7.8165    1.0436 C   0  0  0  0  0  0  0  0  0  0  0  0
    1.0624   -6.6356    1.1779 O   0  0  0  0  0  0  0  0  0  0  0  0
   -0.4627   -7.8169    0.1378 O   0  0  0  0  0  0  0  0  0  0  0  0
    1.6310  -10.1399    5.0120 O   0  0  0  0  0  0  0  0  0  0  0  0
    2.6223  -12.3080    3.6664 O   0  0  0  0  0  0  0  0  0  0  0  0
    1.6224  -10.0087   -0.4378 C   0  0  0  0  0  0  0  0  0  0  0  0
    2.4871   -9.0082   -1.0700 I   0  0  0  0  0  0  0  0  0  0  0  0
    0.6264   -5.5253    1.8544 C   0  0  1  0  0  0  0  0  0  0  0  0
    1.3963   -5.0520    2.8823 C   0  0  0  0  0  0  0  0  0  0  0  0
    0.3129   -4.3247    0.8087 C   0  0  0  0  0  0  0  0  0  0  0  0
   -0.9250   -4.2907    0.3646 C   0  0  0  0  0  0  0  0  0  0  0  0
  2  1  1  1
  2  3  1  0
  4  5  1  0
  2  7  1  0
  6  7  1  0
  3  8  1  1
  8  9  1  0
  8 10  2  0
  7 11  2  0
  6 12  1  6
  4 13  1  6
 13 14  1  0
  9 15  1  0
 15 16  1  1
 15 17  1  0
 17 18  1  0
  3  4  1  0
  5  6  1  0
M  END

$$$$
No_542-/export/home/yangzhenyu/potential_scad_32_flow//YTHDC2/2024-12-06-03-22-00/
     RDKit          3D

 17 17  0  0  1  0  0  0  0  0999 V2000
    1.1787   -8.0297    3.5154 C   0  0  0  0  0  0  0  0  0  0  0  0
    1.0491   -6.8434    2.9820 C   0  0  0  0  0  0  0  0  0  0  0  0
    0.2462   -8.9560    3.0873 C   0  0  0  0  0  0  0  0  0  0  0  0
    0.3295   -6.5187    1.9069 C   0  0  0  0  0  0  0  0  0  0  0  0
   -0.5260   -8.7862    2.1368 C   0  0  0  0  0  0  0  0  0  0  0  0
   -1.4132   -9.8266    1.7693 C   0  0  0  0  0  0  0  0  0  0  0  0
   -0.5153   -7.5320    1.5099 C   0  0  0  0  0  0  0  0  0  0  0  0
   -0.9852  -10.8166    1.0374 C   0  0  2  0  0  0  0  0  0  0  0  0
    0.1225  -10.6609    0.1741 C   0  0  0  0  0  0  0  0  0  0  0  0
    1.0230  -10.0336    0.4571 C   0  0  0  0  0  0  0  0  0  0  0  0
    1.4835   -8.8455   -0.2437 C   0  0  0  0  0  0  0  0  0  0  0  0
    0.6998   -8.4020   -1.3047 C   0  0  0  0  0  0  0  0  0  0  0  0
   -0.2318   -8.8933   -1.9053 O   0  0  0  0  0  0  0  0  0  0  0  0
    2.7371   -8.1895   -0.1821 C   0  0  0  0  0  0  0  0  0  0  0  0
   -1.7884  -11.9028    1.0577 C   0  0  0  0  0  0  0  0  0  0  0  0
   -1.5429  -12.9497    0.2265 C   0  0  0  0  0  0  0  0  0  0  0  0
   -1.9460  -12.8541   -1.0537 C   0  0  0  0  0  0  0  0  0  0  0  0
  5  6  1  0
  8  6  1  6
  8  9  1  0
  9 10  1  0
 10 11  2  3
 11 12  1  0
 12 13  2  0
 11 14  1  0
  8 15  1  0
 15 16  1  0
 16 17  1  0
  1  2  2  0
  2  4  1  0
  4  7  2  0
  5  7  1  0
  3  5  2  0
  1  3  1  0
M  END

$$$$
No_543-/export/home/yangzhenyu/potential_scad_32_flow//YTHDC2/2024-12-06-03-22-00/
     RDKit          3D

 21 21  0  0  1  0  0  0  0  0999 V2000
    1.1787   -8.0297    3.5154 C   0  0  0  0  0  0  0  0  0  0  0  0
    1.0491   -6.8434    2.9820 C   0  0  0  0  0  0  0  0  0  0  0  0
    0.9905   -9.0774    2.6527 C   0  0  0  0  0  0  0  0  0  0  0  0
    0.7897   -8.9519    1.3691 C   0  0  0  0  0  0  0  0  0  0  0  0
    0.7018   -7.7198    0.7892 C   0  0  0  0  0  0  0  0  0  0  0  0
    0.8918   -6.5957    1.6117 C   0  0  0  0  0  0  0  0  0  0  0  0
    1.0711  -10.4814    3.2282 C   0  0  2  0  0  0  0  0  0  0  0  0
    2.1432  -11.0138    3.5962 C   0  0  0  0  0  0  0  0  0  0  0  0
   -0.0553  -11.2345    3.2840 C   0  0  0  0  0  0  0  0  0  0  0  0
   -1.2156  -10.5474    3.8659 O   0  0  0  0  0  0  0  0  0  0  0  0
   -0.3521  -12.3153    2.6175 N   0  0  0  0  0  0  0  0  0  0  0  0
    0.8532   -5.2665    1.1252 Cl  0  0  0  0  0  0  0  0  0  0  0  0
    2.1388  -11.0080    5.1877 N   0  0  0  0  0  0  0  0  0  0  0  0
    0.7067  -12.9972    1.9396 C   0  0  0  0  0  0  0  0  0  0  0  0
    1.1944  -14.1917    2.6048 C   0  0  0  0  0  0  0  0  0  0  0  0
    1.2327  -15.4683    2.0371 C   0  0  0  0  0  0  0  0  0  0  0  0
    1.9490  -16.4436    2.5801 C   0  0  0  0  0  0  0  0  0  0  0  0
    1.6009  -17.6528    2.8047 N   0  0  0  0  0  0  0  0  0  0  0  0
    0.5219  -15.6819    0.9933 O   0  0  0  0  0  0  0  0  0  0  0  0
    3.3881  -16.3009    2.4268 O   0  0  0  0  0  0  0  0  0  0  0  0
    0.3252  -17.9564    3.1597 C   0  0  0  0  0  0  0  0  0  0  0  0
  3  7  1  0
  7  8  1  6
  7  9  1  0
  9 10  2  0
  9 11  1  0
  6 12  1  0
  8 13  1  0
 11 14  1  0
 14 15  1  0
 15 16  1  0
 16 17  1  0
 17 18  1  0
 16 19  2  0
 17 20  2  0
 18 21  1  0
  1  2  2  0
  2  6  1  0
  5  6  2  0
  4  5  1  0
  3  4  2  0
  1  3  1  0
M  END

$$$$
No_544-/export/home/yangzhenyu/potential_scad_32_flow//YTHDC2/2024-12-06-03-22-00/
     RDKit          3D

 17 17  0  0  0  0  0  0  0  0999 V2000
    1.1787   -8.0297    3.5154 C   0  0  0  0  0  0  0  0  0  0  0  0
    1.1048   -9.2215    3.2892 C   0  0  0  0  0  0  0  0  0  0  0  0
    1.3627  -10.1721    4.3044 C   0  0  0  0  0  0  0  0  0  0  0  0
    1.7354  -11.4730    3.9023 C   0  0  0  0  0  0  0  0  0  0  0  0
    1.8080  -11.8127    2.7216 C   0  0  0  0  0  0  0  0  0  0  0  0
    1.5854  -11.0021    1.7249 C   0  0  0  0  0  0  0  0  0  0  0  0
    1.3573   -9.7389    1.9287 C   0  0  0  0  0  0  0  0  0  0  0  0
    1.2865   -8.8078    0.9161 C   0  0  0  0  0  0  0  0  0  0  0  0
    1.6845   -9.1638   -0.2896 C   0  0  0  0  0  0  0  0  0  0  0  0
    2.0771  -13.2284    2.3629 Cl  0  0  0  0  0  0  0  0  0  0  0  0
    1.6817   -8.1268   -1.3886 N   0  0  0  0  0  0  0  0  0  0  0  0
    0.9623   -7.0615    2.5542 O   0  0  0  0  0  0  0  0  0  0  0  0
    0.9317   -7.5483    4.7104 O   0  0  0  0  0  0  0  0  0  0  0  0
    0.5361   -8.0338   -1.7866 C   0  0  0  0  0  0  0  0  0  0  0  0
    0.1178   -7.4491   -2.8886 O   0  0  0  0  0  0  0  0  0  0  0  0
   -0.7285   -8.4617   -1.0455 O   0  0  0  0  0  0  0  0  0  0  0  0
   -1.6193   -9.4398   -1.5952 C   0  0  0  0  0  0  0  0  0  0  0  0
  1  2  1  0
  7  8  1  0
  8  9  2  3
  5 10  1  0
  9 11  1  0
  1 12  2  0
  1 13  1  0
 11 14  1  0
 14 15  2  0
 14 16  1  0
 16 17  1  0
  2  3  2  0
  3  4  1  0
  4  5  2  0
  5  6  1  0
  6  7  2  0
  2  7  1  0
M  END

$$$$
No_545-/export/home/yangzhenyu/potential_scad_32_flow//YTHDC2/2024-12-06-03-22-00/
     RDKit          3D

 18 18  0  0  0  0  0  0  0  0999 V2000
    1.1787   -8.0297    3.5154 C   0  0  0  0  0  0  0  0  0  0  0  0
    1.0491   -6.8434    2.9820 C   0  0  0  0  0  0  0  0  0  0  0  0
    1.9985   -8.9840    2.8958 C   0  0  0  0  0  0  0  0  0  0  0  0
    1.7297   -9.2108    1.6335 C   0  0  0  0  0  0  0  0  0  0  0  0
    1.5234   -8.1478    0.8618 C   0  0  0  0  0  0  0  0  0  0  0  0
    1.0558   -6.9632    1.4912 C   0  0  0  0  0  0  0  0  0  0  0  0
    1.5402   -8.1720   -0.5079 C   0  0  0  0  0  0  0  0  0  0  0  0
    2.6533   -8.4507   -1.0880 O   0  0  0  0  0  0  0  0  0  0  0  0
    0.4874   -8.4493   -1.3088 O   0  0  0  0  0  0  0  0  0  0  0  0
    2.1373  -10.3357    3.6140 C   0  0  0  0  0  0  0  0  0  0  0  0
    1.6103  -11.4648    3.5547 N   0  0  0  0  0  0  0  0  0  0  0  0
    2.3172  -12.6061    3.7652 C   0  0  0  0  0  0  0  0  0  0  0  0
    1.5948  -13.8247    3.1662 C   0  0  0  0  0  0  0  0  0  0  0  0
    1.4333  -13.9567    1.9010 C   0  0  0  0  0  0  0  0  0  0  0  0
    1.9985  -13.1558    1.1950 O   0  0  0  0  0  0  0  0  0  0  0  0
    0.3835  -14.6185    1.5089 O   0  0  0  0  0  0  0  0  0  0  0  0
    3.2044  -10.2404    4.5081 O   0  0  0  0  0  0  0  0  0  0  0  0
   -0.3053  -14.2933    0.3847 C   0  0  0  0  0  0  0  0  0  0  0  0
  5  7  1  0
  7  8  2  0
  7  9  1  0
  3 10  1  0
 10 11  1  0
 11 12  1  0
 12 13  1  0
 13 14  1  0
 14 15  2  0
 14 16  1  0
 10 17  2  0
 16 18  1  0
  1  2  2  0
  2  6  1  0
  5  6  2  0
  4  5  1  0
  3  4  2  0
  1  3  1  0
M  END

$$$$
No_546-/export/home/yangzhenyu/potential_scad_32_flow//YTHDC2/2024-12-06-03-22-00/
     RDKit          3D

 19 20  0  0  1  0  0  0  0  0999 V2000
    1.1787   -8.0297    3.5154 C   0  0  0  0  0  0  0  0  0  0  0  0
    1.1048   -9.2215    3.2892 F   0  0  0  0  0  0  0  0  0  0  0  0
    0.0668   -7.3577    3.4997 C   0  0  2  0  0  0  0  0  0  0  0  0
   -0.9580   -8.1684    3.6884 C   0  0  0  0  0  0  0  0  0  0  0  0
   -1.8516   -8.3430    2.8840 C   0  0  2  0  0  0  0  0  0  0  0  0
   -1.9955   -7.6183    1.9019 C   0  0  2  0  0  0  0  0  0  0  0  0
   -0.9563   -6.6316    1.6482 C   0  0  0  0  0  0  0  0  0  0  0  0
    0.0858   -6.4964    2.4546 C   0  0  2  0  0  0  0  0  0  0  0  0
    1.1712   -5.7624    2.1036 C   0  0  0  0  0  0  0  0  0  0  0  0
   -1.0603   -5.8621    0.5612 O   0  0  0  0  0  0  0  0  0  0  0  0
    1.4494   -4.8096    3.0420 O   0  0  0  0  0  0  0  0  0  0  0  0
    1.7697   -5.6349    1.0070 O   0  0  0  0  0  0  0  0  0  0  0  0
   -3.1156   -9.3900    3.1601 F   0  0  0  0  0  0  0  0  0  0  0  0
   -3.2552   -7.5895    0.9083 C   0  0  0  0  0  0  0  0  0  0  0  0
   -4.0740   -6.7417    0.8470 C   0  0  0  0  0  0  0  0  0  0  0  0
   -5.0132   -6.7719   -0.1243 C   0  0  0  0  0  0  0  0  0  0  0  0
   -5.1899   -7.6770   -1.0691 C   0  0  0  0  0  0  0  0  0  0  0  0
   -4.1867   -8.7199   -0.9621 C   0  0  0  0  0  0  0  0  0  0  0  0
   -3.1272   -8.6956    0.0218 C   0  0  0  0  0  0  0  0  0  0  0  0
  1  2  1  0
  3  1  1  6
  3  4  1  0
  4  5  1  0
  6  7  1  0
  3  8  1  0
  7  8  1  0
  8  9  1  6
  7 10  2  0
  9 11  2  0
  9 12  1  0
  5 13  1  1
  6 14  1  1
  5  6  1  0
 14 15  2  0
 15 16  1  0
 16 17  2  0
 17 18  1  0
 18 19  2  0
 14 19  1  0
M  END

$$$$
No_547-/export/home/yangzhenyu/potential_scad_32_flow//YTHDC2/2024-12-06-03-22-00/
     RDKit          3D

 19 20  0  0  0  0  0  0  0  0999 V2000
    1.1787   -8.0297    3.5154 C   0  0  0  0  0  0  0  0  0  0  0  0
    1.1048   -9.2215    3.2892 C   0  0  0  0  0  0  0  0  0  0  0  0
    1.3627  -10.1721    4.3044 C   0  0  0  0  0  0  0  0  0  0  0  0
    2.3720  -10.8948    4.2468 C   0  0  0  0  0  0  0  0  0  0  0  0
    2.9262  -11.1926    3.1170 C   0  0  0  0  0  0  0  0  0  0  0  0
    2.5807  -10.4593    1.9550 C   0  0  0  0  0  0  0  0  0  0  0  0
    1.7065   -9.4353    2.0233 C   0  0  0  0  0  0  0  0  0  0  0  0
    1.0091   -9.1788    1.1484 C   0  0  0  0  0  0  0  0  0  0  0  0
    0.6921   -8.1253    0.6718 C   0  0  0  0  0  0  0  0  0  0  0  0
    0.6383   -7.2724    1.3038 C   0  0  0  0  0  0  0  0  0  0  0  0
    0.7037   -6.8652    2.6913 C   0  0  0  0  0  0  0  0  0  0  0  0
    0.1425   -5.8449    0.7991 O   0  0  0  0  0  0  0  0  0  0  0  0
    0.9173   -5.6274    3.2470 O   0  0  0  0  0  0  0  0  0  0  0  0
    1.2178  -10.0899   -0.1938 C   0  0  0  0  0  0  0  0  0  0  0  0
    0.0569  -10.2740   -0.7347 O   0  0  0  0  0  0  0  0  0  0  0  0
    2.1147  -10.6613   -0.5993 F   0  0  0  0  0  0  0  0  0  0  0  0
    2.7224  -11.7738    5.2969 O   0  0  0  0  0  0  0  0  0  0  0  0
    0.7099   -9.9794    5.5391 O   0  0  0  0  0  0  0  0  0  0  0  0
   -0.4368  -10.9086    5.3535 C   0  0  0  0  0  0  0  0  0  0  0  0
  1  2  1  0
  7  8  1  0
  8  9  2  0
  9 10  1  0
  1 11  1  0
 10 11  1  0
 10 12  2  0
 11 13  2  0
  8 14  1  0
 14 15  2  0
 14 16  1  0
  4 17  1  0
  3 18  1  0
 18 19  1  0
  2  3  2  0
  3  4  1  0
  4  5  2  0
  5  6  1  0
  6  7  2  0
  2  7  1  0
M  END

$$$$
No_548-/export/home/yangzhenyu/potential_scad_32_flow//YTHDC2/2024-12-06-03-22-00/
     RDKit          3D

 19 19  0  0  0  0  0  0  0  0999 V2000
    1.1787   -8.0297    3.5154 C   0  0  0  0  0  0  0  0  0  0  0  0
    1.1048   -9.2215    3.2892 C   0  0  0  0  0  0  0  0  0  0  0  0
    1.3627  -10.1721    4.3044 C   0  0  0  0  0  0  0  0  0  0  0  0
    1.7354  -11.4730    3.9023 C   0  0  0  0  0  0  0  0  0  0  0  0
    1.8080  -11.8127    2.7216 C   0  0  0  0  0  0  0  0  0  0  0  0
    1.5854  -11.0021    1.7249 C   0  0  0  0  0  0  0  0  0  0  0  0
    1.3573   -9.7389    1.9287 C   0  0  0  0  0  0  0  0  0  0  0  0
    1.1102   -8.8712    0.9017 C   0  0  0  0  0  0  0  0  0  0  0  0
    0.5299   -7.6926    1.0325 O   0  0  0  0  0  0  0  0  0  0  0  0
    1.3970   -9.2634   -0.4035 O   0  0  0  0  0  0  0  0  0  0  0  0
    2.1059  -13.2053    2.3252 C   0  0  0  0  0  0  0  0  0  0  0  0
    1.2000  -14.0505    1.6784 C   0  0  0  0  0  0  0  0  0  0  0  0
    0.4763  -14.6344    2.4711 C   0  0  0  0  0  0  0  0  0  0  0  0
   -0.7816  -14.5710    2.4637 O   0  0  0  0  0  0  0  0  0  0  0  0
    0.9134  -15.8413    3.1519 O   0  0  0  0  0  0  0  0  0  0  0  0
    0.1699   -7.1638    3.6407 O   0  0  0  0  0  0  0  0  0  0  0  0
    2.3322   -7.1347    3.6435 O   0  0  0  0  0  0  0  0  0  0  0  0
    0.1537  -16.7666    3.7027 C   0  0  0  0  0  0  0  0  0  0  0  0
   -0.0706  -17.8615    3.3175 C   0  0  0  0  0  0  0  0  0  0  0  0
  1  2  1  0
  7  8  1  0
  8  9  2  0
  8 10  1  0
  5 11  1  0
 11 12  1  0
 12 13  1  0
 13 14  2  0
 13 15  1  0
  1 16  1  0
  1 17  2  0
 15 18  1  0
 18 19  1  0
  2  3  2  0
  3  4  1  0
  4  5  2  0
  5  6  1  0
  6  7  2  0
  2  7  1  0
M  END

$$$$
No_549-/export/home/yangzhenyu/potential_scad_32_flow//YTHDC2/2024-12-06-03-22-00/
     RDKit          3D

 18 20  0  0  0  0  0  0  0  0999 V2000
    1.1787   -8.0297    3.5154 C   0  0  0  0  0  0  0  0  0  0  0  0
    1.0491   -6.8434    2.9820 C   0  0  0  0  0  0  0  0  0  0  0  0
    0.2462   -8.9560    3.0873 C   0  0  0  0  0  0  0  0  0  0  0  0
    0.3295   -6.5187    1.9069 C   0  0  0  0  0  0  0  0  0  0  0  0
   -0.5260   -8.7862    2.1368 C   0  0  0  0  0  0  0  0  0  0  0  0
   -0.5458   -7.5614    1.5054 C   0  0  0  0  0  0  0  0  0  0  0  0
    0.2879   -5.2870    1.3175 C   0  0  0  0  0  0  0  0  0  0  0  0
    0.3538  -10.3272    3.6802 C   0  0  0  0  0  0  0  0  0  0  0  0
   -0.8518  -11.0220    3.8257 C   0  0  0  0  0  0  0  0  0  0  0  0
    1.3822  -10.6441    4.6477 C   0  0  0  0  0  0  0  0  0  0  0  0
    1.6345  -11.9357    4.8648 C   0  0  0  0  0  0  0  0  0  0  0  0
   -0.7178  -12.3597    4.1253 C   0  0  0  0  0  0  0  0  0  0  0  0
    0.5724  -12.7920    4.6198 C   0  0  0  0  0  0  0  0  0  0  0  0
    1.2844   -4.3770    1.8314 N   0  0  0  0  0  0  0  0  0  0  0  0
   -0.4533   -4.8205    0.4290 N   0  0  0  0  0  0  0  0  0  0  0  0
    1.0261   -3.1546    1.1714 N   0  0  0  0  0  0  0  0  0  0  0  0
   -0.0285   -3.5640    0.2353 C   0  0  0  0  0  0  0  0  0  0  0  0
    0.7400  -14.1259    4.7073 O   0  0  0  0  0  0  0  0  0  0  0  0
  4  7  1  0
  3  8  1  0
  8 10  1  0
  9 12  1  0
 11 13  1  0
 12 13  1  0
  7 14  2  0
  7 15  1  0
 14 16  1  0
 15 17  2  0
 16 17  1  0
 13 18  2  0
 10 11  1  0
  8  9  1  0
  1  2  2  0
  2  4  1  0
  4  6  2  0
  5  6  1  0
  3  5  2  0
  1  3  1  0
M  END

$$$$
No_550-/export/home/yangzhenyu/potential_scad_32_flow//YTHDC2/2024-12-06-03-22-00/
     RDKit          3D

 17 17  0  0  1  0  0  0  0  0999 V2000
    1.1787   -8.0297    3.5154 C   0  0  0  0  0  0  0  0  0  0  0  0
    1.0491   -6.8434    2.9820 C   0  0  0  0  0  0  0  0  0  0  0  0
    1.9985   -8.9840    2.8958 C   0  0  2  0  0  0  0  0  0  0  0  0
    1.7297   -9.2108    1.6335 C   0  0  1  0  0  0  0  0  0  0  0  0
    1.7343   -8.0566    0.8408 C   0  0  2  0  0  0  0  0  0  0  0  0
    1.0269   -6.8892    1.4456 C   0  0  0  0  0  0  0  0  0  0  0  0
    1.7596   -8.0979   -0.4723 O   0  0  0  0  0  0  0  0  0  0  0  0
    1.9544  -10.3620    3.5567 C   0  0  0  0  0  0  0  0  0  0  0  0
    2.8760  -10.5617    4.4630 O   0  0  0  0  0  0  0  0  0  0  0  0
    1.0378  -11.2396    3.4002 O   0  0  0  0  0  0  0  0  0  0  0  0
    2.3805  -10.2102    0.7734 C   0  0  0  0  0  0  0  0  0  0  0  0
    1.7365  -10.9482    0.0648 O   0  0  0  0  0  0  0  0  0  0  0  0
    0.9773   -5.7920    0.8056 O   0  0  0  0  0  0  0  0  0  0  0  0
    0.7500   -5.7005    3.4704 O   0  0  0  0  0  0  0  0  0  0  0  0
    3.6370  -10.3972    0.9125 O   0  0  0  0  0  0  0  0  0  0  0  0
    0.7583   -7.8817   -1.3107 C   0  0  0  0  0  0  0  0  0  0  0  0
   -0.2917   -9.0608   -1.0090 C   0  0  0  0  0  0  0  0  0  0  0  0
  1  2  1  0
  1  3  1  0
  3  4  1  0
  4  5  1  0
  2  6  1  0
  5  6  1  0
  5  7  1  6
  3  8  1  1
  8  9  1  0
  8 10  2  0
  4 11  1  6
 11 12  1  0
  6 13  2  0
  2 14  2  0
 11 15  2  0
  7 16  1  0
 16 17  1  0
M  END

$$$$
No_551-/export/home/yangzhenyu/potential_scad_32_flow//YTHDC2/2024-12-06-03-22-00/
     RDKit          3D

 20 21  0  0  1  0  0  0  0  0999 V2000
    1.1787   -8.0297    3.5154 C   0  0  0  0  0  0  0  0  0  0  0  0
    1.1048   -9.2215    3.2892 C   0  0  0  0  0  0  0  0  0  0  0  0
    1.3627  -10.1721    4.3044 C   0  0  0  0  0  0  0  0  0  0  0  0
    1.7354  -11.4730    3.9023 C   0  0  0  0  0  0  0  0  0  0  0  0
    1.8080  -11.8127    2.7216 C   0  0  0  0  0  0  0  0  0  0  0  0
    1.5854  -11.0021    1.7249 C   0  0  0  0  0  0  0  0  0  0  0  0
    1.3573   -9.7389    1.9287 C   0  0  0  0  0  0  0  0  0  0  0  0
    1.1102   -8.8712    0.9017 C   0  0  0  0  0  0  0  0  0  0  0  0
    1.5724   -9.1697   -0.3048 C   0  0  0  0  0  0  0  0  0  0  0  0
    1.2378   -8.2159   -1.4226 O   0  0  0  0  0  0  0  0  0  0  0  0
    2.0610  -13.2069    2.3284 C   0  0  2  0  0  0  0  0  0  0  0  0
    1.9011  -14.2479    3.1770 C   0  0  0  0  0  0  0  0  0  0  0  0
    2.1062  -15.5666    2.5629 C   0  0  0  0  0  0  0  0  0  0  0  0
    2.6343  -15.7000    1.4058 C   0  0  0  0  0  0  0  0  0  0  0  0
    2.7076  -14.1935    0.9188 C   0  0  0  0  0  0  0  0  0  0  0  0
    2.2612   -7.2089    3.5491 O   0  0  0  0  0  0  0  0  0  0  0  0
    0.0028   -7.4369    3.6305 O   0  0  0  0  0  0  0  0  0  0  0  0
    1.9901  -16.8954    3.4547 Cl  0  0  0  0  0  0  0  0  0  0  0  0
    2.3607  -10.0703   -0.6291 O   0  0  0  0  0  0  0  0  0  0  0  0
    2.9860  -16.3559    0.6922 O   0  0  0  0  0  0  0  0  0  0  0  0
  1  2  1  0
  7  8  1  0
  8  9  2  3
  9 10  1  0
 11  5  1  1
 11 12  1  0
 12 13  2  0
 13 14  1  0
 11 15  1  0
 14 15  1  0
  1 16  1  0
  1 17  2  0
 13 18  1  0
  9 19  1  0
 14 20  2  0
  2  3  2  0
  3  4  1  0
  4  5  2  0
  5  6  1  0
  6  7  2  0
  2  7  1  0
M  END

$$$$
No_552-/export/home/yangzhenyu/potential_scad_32_flow//YTHDC2/2024-12-06-03-22-00/
     RDKit          3D

 17 16  0  0  1  0  0  0  0  0999 V2000
    1.1787   -8.0297    3.5154 C   0  0  0  0  0  0  0  0  0  0  0  0
    1.0491   -6.8434    2.9820 C   0  0  2  0  0  0  0  0  0  0  0  0
    0.0950   -8.8404    3.2292 Br  0  0  0  0  0  0  0  0  0  0  0  0
    0.8971   -6.7372    1.5362 C   0  0  0  0  0  0  0  0  0  0  0  0
    1.6571   -7.4730    0.7844 C   0  0  0  0  0  0  0  0  0  0  0  0
    1.3679   -8.5964    0.3580 C   0  0  0  0  0  0  0  0  0  0  0  0
    2.3289   -9.3584   -0.4452 C   0  0  0  0  0  0  0  0  0  0  0  0
    0.1002   -9.1360    0.2957 C   0  0  0  0  0  0  0  0  0  0  0  0
   -0.9941   -8.3803   -0.2576 C   0  0  0  0  0  0  0  0  0  0  0  0
   -2.0916   -8.4848    0.1177 O   0  0  0  0  0  0  0  0  0  0  0  0
   -0.8025   -7.7346   -1.5444 O   0  0  0  0  0  0  0  0  0  0  0  0
    2.6492  -10.4458    0.1363 O   0  0  0  0  0  0  0  0  0  0  0  0
    2.9169   -8.9209   -1.4925 O   0  0  0  0  0  0  0  0  0  0  0  0
    1.4575   -5.7523    3.7610 C   0  0  0  0  0  0  0  0  0  0  0  0
    1.2007   -4.4439    3.3230 O   0  0  0  0  0  0  0  0  0  0  0  0
   -3.1898   -8.2342   -0.5673 C   0  0  0  0  0  0  0  0  0  0  0  0
   -3.6442   -6.8990   -0.3512 C   0  0  0  0  0  0  0  0  0  0  0  0
  2  1  1  6
  1  3  1  0
  2  4  1  0
  4  5  1  0
  5  6  2  3
  6  7  1  0
  6  8  1  0
  8  9  1  0
  9 10  1  0
  9 11  2  0
  7 12  2  0
  7 13  1  0
  2 14  1  0
 14 15  2  0
 10 16  1  0
 16 17  1  0
M  END

$$$$
No_553-/export/home/yangzhenyu/potential_scad_32_flow//YTHDC2/2024-12-06-03-22-00/
     RDKit          3D

 18 19  0  0  1  0  0  0  0  0999 V2000
    1.1787   -8.0297    3.5154 O   0  0  0  0  0  0  0  0  0  0  0  0
    0.9969   -8.9689    3.0048 C   0  0  1  0  0  0  0  0  0  0  0  0
    0.9976   -8.9567    1.6341 C   0  0  2  0  0  0  0  0  0  0  0  0
    1.6062   -9.9071    0.9292 C   0  0  0  0  0  0  0  0  0  0  0  0
    2.1191  -10.9757    1.6503 C   0  0  0  0  0  0  0  0  0  0  0  0
    2.1177  -10.9891    3.0403 C   0  0  0  0  0  0  0  0  0  0  0  0
    1.5441   -9.8905    3.6897 C   0  0  0  0  0  0  0  0  0  0  0  0
    0.5010   -7.8165    1.0436 C   0  0  2  0  0  0  0  0  0  0  0  0
    1.0624   -6.6356    1.1779 Cl  0  0  0  0  0  0  0  0  0  0  0  0
   -1.0369   -7.6987    1.1063 N   0  0  0  0  0  0  0  0  0  0  0  0
    1.5612  -10.1769    5.0158 O   0  0  0  0  0  0  0  0  0  0  0  0
   -1.7129   -6.7182    0.7625 C   0  0  0  0  0  0  0  0  0  0  0  0
   -3.0300   -6.7396    0.8670 C   0  0  0  0  0  0  0  0  0  0  0  0
   -3.5806   -7.6787    1.2173 C   0  0  2  0  0  0  0  0  0  0  0  0
   -2.9649   -8.9423    1.5908 C   0  0  0  0  0  0  0  0  0  0  0  0
   -1.6077   -9.0062    1.5470 N   0  0  0  0  0  0  0  0  0  0  0  0
   -5.0504   -7.8210    1.2523 C   0  0  0  0  0  0  0  0  0  0  0  0
   -5.7324   -8.5380    0.5483 C   0  0  0  0  0  0  0  0  0  0  0  0
  2  1  1  1
  2  3  1  0
  4  5  1  0
  2  7  1  0
  6  7  1  0
  3  8  1  0
  8  9  1  1
  8 10  1  0
  7 11  2  0
 10 12  1  0
 12 13  1  0
 14 15  1  0
 10 16  1  0
 14 17  1  6
 17 18  1  0
 13 14  1  0
 15 16  1  0
  3  4  1  1
  5  6  1  0
M  END

$$$$
No_554-/export/home/yangzhenyu/potential_scad_32_flow//YTHDC2/2024-12-06-03-22-00/
     RDKit          3D

 19 19  0  0  1  0  0  0  0  0999 V2000
    1.1787   -8.0297    3.5154 Cl  0  0  0  0  0  0  0  0  0  0  0  0
    0.7279   -9.0023    2.8722 C   0  0  1  0  0  0  0  0  0  0  0  0
   -0.0117   -8.9271    1.8829 C   0  0  0  0  0  0  0  0  0  0  0  0
   -0.4744   -7.9794    1.4770 C   0  0  0  0  0  0  0  0  0  0  0  0
   -0.5831   -6.9024    1.8383 O   0  0  0  0  0  0  0  0  0  0  0  0
    1.3314  -10.3454    3.3436 C   0  0  0  0  0  0  0  0  0  0  0  0
    1.4341  -11.4432    2.5414 O   0  0  0  0  0  0  0  0  0  0  0  0
    1.9774  -10.6343    4.4832 N   0  0  0  0  0  0  0  0  0  0  0  0
   -1.3796   -8.0395    0.3112 O   0  0  0  0  0  0  0  0  0  0  0  0
    2.6357  -11.8590    4.7583 C   0  0  0  0  0  0  0  0  0  0  0  0
    4.1026  -11.7104    4.5921 N   0  0  0  0  0  0  0  0  0  0  0  0
   -0.2842  -10.2053    1.2134 C   0  0  0  0  0  0  0  0  0  0  0  0
   -1.0922  -10.4258    0.3567 C   0  0  0  0  0  0  0  0  0  0  0  0
   -2.3491  -10.8761    0.7992 C   0  0  0  0  0  0  0  0  0  0  0  0
   -2.3969  -11.6539    1.8387 C   0  0  0  0  0  0  0  0  0  0  0  0
   -2.9398  -11.1825    3.0630 C   0  0  0  0  0  0  0  0  0  0  0  0
   -3.9035  -10.1802    2.8693 C   0  0  0  0  0  0  0  0  0  0  0  0
   -4.0496   -9.5627    1.7074 C   0  0  0  0  0  0  0  0  0  0  0  0
   -3.3357   -9.9300    0.5744 C   0  0  0  0  0  0  0  0  0  0  0  0
  2  1  1  6
  2  3  1  0
  3  4  1  0
  4  5  1  0
  2  6  1  0
  6  7  2  0
  6  8  1  0
  4  9  2  0
  8 10  1  0
 10 11  1  0
  3 12  1  0
 12 13  1  0
 13 14  1  0
 14 15  2  0
 15 16  1  0
 16 17  2  0
 17 18  1  0
 18 19  2  0
 14 19  1  0
M  END

$$$$
No_555-/export/home/yangzhenyu/potential_scad_32_flow//YTHDC2/2024-12-06-03-22-00/
     RDKit          3D

 19 19  0  0  1  0  0  0  0  0999 V2000
    1.1787   -8.0297    3.5154 C   0  0  0  0  0  0  0  0  0  0  0  0
    1.0491   -6.8434    2.9820 C   0  0  0  0  0  0  0  0  0  0  0  0
    0.9905   -9.0774    2.6527 C   0  0  1  0  0  0  0  0  0  0  0  0
    0.7897   -8.9519    1.3691 C   0  0  0  0  0  0  0  0  0  0  0  0
    0.7018   -7.7198    0.7892 C   0  0  0  0  0  0  0  0  0  0  0  0
    0.8918   -6.5957    1.6117 C   0  0  0  0  0  0  0  0  0  0  0  0
    1.0998  -10.4710    3.2437 C   0  0  2  0  0  0  0  0  0  0  0  0
    0.0472  -11.2546    3.3963 C   0  0  0  0  0  0  0  0  0  0  0  0
    0.1622  -12.5732    3.4140 C   0  0  0  0  0  0  0  0  0  0  0  0
    1.4182  -13.1957    3.4048 C   0  0  0  0  0  0  0  0  0  0  0  0
    1.4947  -14.7093    3.1402 C   0  0  0  0  0  0  0  0  0  0  0  0
    0.2472  -15.3423    3.3057 N   0  0  0  0  0  0  0  0  0  0  0  0
    0.8592   -5.2930    1.1748 O   0  0  0  0  0  0  0  0  0  0  0  0
    2.4408  -15.2123    2.5389 O   0  0  0  0  0  0  0  0  0  0  0  0
    2.4493  -10.7657    3.6827 F   0  0  0  0  0  0  0  0  0  0  0  0
    0.6569  -10.1447    0.2582 N   0  0  0  0  0  0  0  0  0  0  0  0
   -0.2798  -10.4656   -0.1516 C   0  0  0  0  0  0  0  0  0  0  0  0
   -0.7920  -11.6910   -0.2393 O   0  0  0  0  0  0  0  0  0  0  0  0
   -1.1114   -9.5138   -0.8979 O   0  0  0  0  0  0  0  0  0  0  0  0
  1  2  1  0
  3  4  1  0
  2  6  1  0
  5  6  1  0
  3  7  1  0
  7  8  1  0
  8  9  2  3
  9 10  1  0
 10 11  1  0
 11 12  1  0
  6 13  2  0
 11 14  2  0
  7 15  1  1
  4 16  1  0
 16 17  1  0
 17 18  1  0
 17 19  2  0
  3  1  1  6
  4  5  1  0
M  END

$$$$
No_556-/export/home/yangzhenyu/potential_scad_32_flow//YTHDC2/2024-12-06-03-22-00/
     RDKit          3D

 19 18  0  0  1  0  0  0  0  0999 V2000
    1.1787   -8.0297    3.5154 O   0  0  0  0  0  0  0  0  0  0  0  0
    0.6747   -7.4019    2.7838 C   0  0  0  0  0  0  0  0  0  0  0  0
    0.5570   -6.0797    2.8560 C   0  0  1  0  0  0  0  0  0  0  0  0
    1.6734   -5.4651    3.4094 C   0  0  0  0  0  0  0  0  0  0  0  0
    1.4143   -9.4928    3.3921 C   0  0  0  0  0  0  0  0  0  0  0  0
    1.8565  -10.2582    4.4918 P   0  0  0  0  0  0  0  0  0  0  0  0
    2.4154   -9.9131    5.3403 O   0  0  0  0  0  0  0  0  0  0  0  0
    0.5518  -10.9579    4.9886 O   0  0  0  0  0  0  0  0  0  0  0  0
    2.6238  -11.5392    3.7923 O   0  0  0  0  0  0  0  0  0  0  0  0
   -0.3845   -5.2625    2.2751 C   0  0  0  0  0  0  0  0  0  0  0  0
   -0.2294   -3.8656    2.2137 O   0  0  0  0  0  0  0  0  0  0  0  0
   -1.5331   -5.7936    1.6492 N   0  0  0  0  0  0  0  0  0  0  0  0
   -2.5182   -4.9945    1.2128 C   0  0  0  0  0  0  0  0  0  0  0  0
   -3.4648   -5.5520    0.5030 C   0  0  0  0  0  0  0  0  0  0  0  0
   -3.4952   -6.7823    0.4572 C   0  0  0  0  0  0  0  0  0  0  0  0
   -3.9690   -7.4612    1.5411 C   0  0  0  0  0  0  0  0  0  0  0  0
   -3.7485   -8.9016    1.7348 C   0  0  0  0  0  0  0  0  0  0  0  0
   -3.0170   -9.3528    0.5847 C   0  0  0  0  0  0  0  0  0  0  0  0
   -2.5551   -8.4754   -0.4970 C   0  0  0  0  0  0  0  0  0  0  0  0
  1  2  1  0
  2  3  1  0
  3  4  1  6
  1  5  1  0
  5  6  1  0
  6  7  1  0
  6  8  1  0
  6  9  2  0
  3 10  1  0
 10 11  2  0
 10 12  1  0
 12 13  1  0
 13 14  1  0
 14 15  1  0
 15 16  1  0
 16 17  2  3
 17 18  1  0
 18 19  2  0
M  END

$$$$
No_557-/export/home/yangzhenyu/potential_scad_32_flow//YTHDC2/2024-12-06-03-22-00/
     RDKit          3D

 20 20  0  0  0  0  0  0  0  0999 V2000
    1.1787   -8.0297    3.5154 C   0  0  0  0  0  0  0  0  0  0  0  0
    1.1048   -9.2215    3.2892 C   0  0  0  0  0  0  0  0  0  0  0  0
    1.3627  -10.1721    4.3044 C   0  0  0  0  0  0  0  0  0  0  0  0
    1.0682  -11.5187    4.0618 C   0  0  0  0  0  0  0  0  0  0  0  0
    0.6332  -11.9655    2.9682 C   0  0  0  0  0  0  0  0  0  0  0  0
    0.4776  -11.1308    1.9203 C   0  0  0  0  0  0  0  0  0  0  0  0
    0.7470   -9.8274    2.0368 C   0  0  0  0  0  0  0  0  0  0  0  0
    0.5536   -7.1314    2.6860 O   0  0  0  0  0  0  0  0  0  0  0  0
    0.3433  -13.3587    2.7316 O   0  0  0  0  0  0  0  0  0  0  0  0
    1.3915  -14.3027    3.0122 C   0  0  0  0  0  0  0  0  0  0  0  0
    1.7360   -9.4724    1.0522 C   0  0  0  0  0  0  0  0  0  0  0  0
    1.5466   -9.4907   -0.1972 O   0  0  0  0  0  0  0  0  0  0  0  0
    2.7435   -8.6662    1.1160 O   0  0  0  0  0  0  0  0  0  0  0  0
    2.1624   -7.3503    4.1929 Cl  0  0  0  0  0  0  0  0  0  0  0  0
    1.3264  -15.5113    2.3197 C   0  0  0  0  0  0  0  0  0  0  0  0
    0.2513  -15.7820    1.7926 O   0  0  0  0  0  0  0  0  0  0  0  0
    2.4175  -16.1318    2.2329 O   0  0  0  0  0  0  0  0  0  0  0  0
   -0.6164  -16.7377    2.4184 C   0  0  0  0  0  0  0  0  0  0  0  0
   -1.5221  -16.2256    3.1404 C   0  0  0  0  0  0  0  0  0  0  0  0
   -2.4086  -15.3727    2.6658 C   0  0  0  0  0  0  0  0  0  0  0  0
  1  2  1  0
  1  8  2  0
  5  9  1  0
  9 10  1  0
  7 11  1  0
 11 12  2  0
 11 13  1  0
  1 14  1  0
 10 15  1  0
 15 16  1  0
 15 17  2  0
 16 18  1  0
 18 19  1  0
 19 20  1  0
  2  3  2  0
  3  4  1  0
  4  5  2  0
  5  6  1  0
  6  7  2  0
  2  7  1  0
M  END

$$$$
No_558-/export/home/yangzhenyu/potential_scad_32_flow//YTHDC2/2024-12-06-03-22-00/
     RDKit          3D

 17 17  0  0  1  0  0  0  0  0999 V2000
    1.1787   -8.0297    3.5154 O   0  0  0  0  0  0  0  0  0  0  0  0
    0.9969   -8.9689    3.0048 C   0  0  1  0  0  0  0  0  0  0  0  0
    0.9976   -8.9567    1.6341 C   0  0  0  0  0  0  0  0  0  0  0  0
    0.7663   -7.7728    1.0082 C   0  0  1  0  0  0  0  0  0  0  0  0
    1.1468   -6.5619    1.6541 C   0  0  0  0  0  0  0  0  0  0  0  0
    1.3592   -6.6155    3.0007 C   0  0  1  0  0  0  0  0  0  0  0  0
    0.9781  -10.1276    3.6866 C   0  0  0  0  0  0  0  0  0  0  0  0
   -0.1772  -10.7865    4.0343 O   0  0  0  0  0  0  0  0  0  0  0  0
    2.1303  -10.9822    3.8860 N   0  0  0  0  0  0  0  0  0  0  0  0
    0.4557   -7.7104   -0.2641 Cl  0  0  0  0  0  0  0  0  0  0  0  0
    0.8177  -10.1262    0.9095 O   0  0  0  0  0  0  0  0  0  0  0  0
    1.5608   -5.5838    3.7914 C   0  0  0  0  0  0  0  0  0  0  0  0
    1.1659   -5.3484    1.1058 O   0  0  0  0  0  0  0  0  0  0  0  0
    2.1241  -12.1846    4.5536 C   0  0  0  0  0  0  0  0  0  0  0  0
    1.8788  -13.2096    3.3671 C   0  0  0  0  0  0  0  0  0  0  0  0
    1.3940  -14.4562    3.6244 O   0  0  0  0  0  0  0  0  0  0  0  0
    1.2092  -15.2671    2.5878 C   0  0  0  0  0  0  0  0  0  0  0  0
  1  2  1  0
  2  3  1  0
  3  4  1  0
  4  5  1  0
  1  6  1  0
  5  6  1  0
  2  7  1  6
  7  8  2  0
  7  9  1  0
  4 10  1  6
  3 11  2  0
  6 12  1  1
  5 13  2  0
  9 14  1  0
 14 15  1  0
 15 16  1  0
 16 17  1  0
M  END

$$$$
No_559-/export/home/yangzhenyu/potential_scad_32_flow//YTHDC2/2024-12-06-03-22-00/
     RDKit          3D

 19 19  0  0  0  0  0  0  0  0999 V2000
    1.1787   -8.0297    3.5154 N   0  0  0  0  0  0  0  0  0  0  0  0
    1.0818   -9.0751    3.2053 C   0  0  0  0  0  0  0  0  0  0  0  0
    0.7576   -9.3725    1.9159 C   0  0  0  0  0  0  0  0  0  0  0  0
    0.8823   -8.4917    1.0547 C   0  0  0  0  0  0  0  0  0  0  0  0
    1.4631   -7.3107    1.2451 C   0  0  0  0  0  0  0  0  0  0  0  0
    1.6470   -6.9326    2.5669 C   0  0  0  0  0  0  0  0  0  0  0  0
    0.8161  -10.1250    4.2446 C   0  0  0  0  0  0  0  0  0  0  0  0
   -0.4877  -10.6098    4.4191 O   0  0  0  0  0  0  0  0  0  0  0  0
    1.8007  -10.7241    4.8272 N   0  0  0  0  0  0  0  0  0  0  0  0
    0.8047   -8.9284   -0.3939 C   0  0  0  0  0  0  0  0  0  0  0  0
    1.6990   -8.8444   -1.2072 O   0  0  0  0  0  0  0  0  0  0  0  0
   -0.4112   -9.1588   -0.8205 O   0  0  0  0  0  0  0  0  0  0  0  0
    3.1988  -10.6082    4.4798 N   0  0  0  0  0  0  0  0  0  0  0  0
    1.8597   -5.6162    3.0635 Cl  0  0  0  0  0  0  0  0  0  0  0  0
    3.9729  -11.4798    5.2085 C   0  0  0  0  0  0  0  0  0  0  0  0
    5.2414  -10.5216    5.6968 O   0  0  0  0  0  0  0  0  0  0  0  0
    0.4322  -10.7942    1.5202 C   0  0  0  0  0  0  0  0  0  0  0  0
    1.5852  -11.7618    1.3093 C   0  0  0  0  0  0  0  0  0  0  0  0
    1.2439  -13.0306    1.1327 O   0  0  0  0  0  0  0  0  0  0  0  0
  2  7  1  0
  7  8  2  0
  7  9  1  0
  4 10  1  0
 10 11  2  0
 10 12  1  0
  9 13  1  0
  6 14  1  0
 13 15  1  0
 15 16  1  0
  3 17  1  0
 17 18  1  0
 18 19  1  0
  1  2  2  0
  2  3  1  0
  3  4  2  0
  4  5  1  0
  5  6  2  0
  1  6  1  0
M  END

$$$$
No_560-/export/home/yangzhenyu/potential_scad_32_flow//YTHDC2/2024-12-06-03-22-00/
     RDKit          3D

 19 19  0  0  1  0  0  0  0  0999 V2000
    1.1787   -8.0297    3.5154 C   0  0  0  0  0  0  0  0  0  0  0  0
    1.0491   -6.8434    2.9820 C   0  0  0  0  0  0  0  0  0  0  0  0
    0.9905   -9.0774    2.6527 C   0  0  0  0  0  0  0  0  0  0  0  0
    0.7897   -8.9519    1.3691 C   0  0  0  0  0  0  0  0  0  0  0  0
    0.7018   -7.7198    0.7892 C   0  0  0  0  0  0  0  0  0  0  0  0
    0.8918   -6.5957    1.6117 C   0  0  0  0  0  0  0  0  0  0  0  0
    1.0711  -10.4814    3.2282 C   0  0  2  0  0  0  0  0  0  0  0  0
    2.1432  -11.0138    3.5962 C   0  0  0  0  0  0  0  0  0  0  0  0
   -0.0553  -11.2345    3.2840 C   0  0  0  0  0  0  0  0  0  0  0  0
   -1.2156  -10.5474    3.8659 O   0  0  0  0  0  0  0  0  0  0  0  0
   -0.3521  -12.3153    2.6175 P   0  0  1  0  0  0  0  0  0  0  0  0
   -1.6577  -12.7713    2.4014 O   0  0  0  0  0  0  0  0  0  0  0  0
    0.2409  -12.3667    1.1698 O   0  0  0  0  0  0  0  0  0  0  0  0
    0.4687  -13.6477    3.2222 O   0  0  0  0  0  0  0  0  0  0  0  0
    0.8784   -5.2712    1.1270 Cl  0  0  0  0  0  0  0  0  0  0  0  0
    2.3127  -11.3294    5.0958 O   0  0  0  0  0  0  0  0  0  0  0  0
    1.0810  -14.7845    2.5820 C   0  0  0  0  0  0  0  0  0  0  0  0
    0.2647  -15.7758    2.5638 C   0  0  0  0  0  0  0  0  0  0  0  0
    1.0655  -17.0471    2.2321 C   0  0  0  0  0  0  0  0  0  0  0  0
  3  7  1  0
  7  8  1  6
  7  9  1  0
  9 10  2  0
  9 11  1  0
 11 12  1  6
 11 13  2  0
 11 14  1  0
  6 15  1  0
  8 16  1  0
 14 17  1  0
 17 18  1  0
 18 19  1  0
  1  2  2  0
  2  6  1  0
  5  6  2  0
  4  5  1  0
  3  4  2  0
  1  3  1  0
M  END

$$$$
No_561-/export/home/yangzhenyu/potential_scad_32_flow//YTHDC2/2024-12-06-03-22-00/
     RDKit          3D

 17 17  0  0  0  0  0  0  0  0999 V2000
    1.1787   -8.0297    3.5154 C   0  0  0  0  0  0  0  0  0  0  0  0
    1.1048   -9.2215    3.2892 C   0  0  0  0  0  0  0  0  0  0  0  0
    1.3627  -10.1721    4.3044 C   0  0  0  0  0  0  0  0  0  0  0  0
    1.7354  -11.4730    3.9023 C   0  0  0  0  0  0  0  0  0  0  0  0
    1.8080  -11.8127    2.7216 C   0  0  0  0  0  0  0  0  0  0  0  0
    1.5854  -11.0021    1.7249 C   0  0  0  0  0  0  0  0  0  0  0  0
    1.3573   -9.7389    1.9287 C   0  0  0  0  0  0  0  0  0  0  0  0
    1.2865   -8.8078    0.9161 C   0  0  0  0  0  0  0  0  0  0  0  0
    1.6845   -9.1638   -0.2896 C   0  0  0  0  0  0  0  0  0  0  0  0
    2.8611   -9.7120   -0.5522 O   0  0  0  0  0  0  0  0  0  0  0  0
    0.8762   -9.1802   -1.2265 O   0  0  0  0  0  0  0  0  0  0  0  0
    2.0960  -13.4581    2.3855 C   0  0  0  0  0  0  0  0  0  0  0  0
    2.2889  -13.8071    1.2233 O   0  0  0  0  0  0  0  0  0  0  0  0
    1.6470  -14.3518    3.2179 O   0  0  0  0  0  0  0  0  0  0  0  0
    0.8023   -7.0918    3.0845 O   0  0  0  0  0  0  0  0  0  0  0  0
    1.1140  -15.5269    2.8494 C   0  0  0  0  0  0  0  0  0  0  0  0
    2.0354  -16.6262    3.3345 C   0  0  0  0  0  0  0  0  0  0  0  0
  1  2  1  0
  7  8  1  0
  8  9  1  0
  9 10  1  0
  9 11  2  0
  5 12  1  0
 12 13  2  0
 12 14  1  0
  1 15  2  0
 14 16  1  0
 16 17  1  0
  2  3  2  0
  3  4  1  0
  4  5  2  0
  5  6  1  0
  6  7  2  0
  2  7  1  0
M  END

$$$$
No_562-/export/home/yangzhenyu/potential_scad_32_flow//YTHDC2/2024-12-06-03-22-00/
     RDKit          3D

 19 19  0  0  1  0  0  0  0  0999 V2000
    1.1787   -8.0297    3.5154 O   0  0  0  0  0  0  0  0  0  0  0  0
    0.9969   -8.9689    3.0048 C   0  0  1  0  0  0  0  0  0  0  0  0
    0.9976   -8.9567    1.6341 C   0  0  0  0  0  0  0  0  0  0  0  0
    0.7663   -7.7728    1.0082 C   0  0  1  0  0  0  0  0  0  0  0  0
    1.1468   -6.5619    1.6541 C   0  0  0  0  0  0  0  0  0  0  0  0
    1.3592   -6.6155    3.0007 C   0  0  0  0  0  0  0  0  0  0  0  0
    0.9781  -10.1276    3.6866 C   0  0  0  0  0  0  0  0  0  0  0  0
    1.9856  -10.9664    3.7361 C   0  0  0  0  0  0  0  0  0  0  0  0
    0.8263   -7.8148   -0.3756 C   0  0  0  0  0  0  0  0  0  0  0  0
   -0.4539   -7.7594   -0.9613 O   0  0  0  0  0  0  0  0  0  0  0  0
    1.7753   -8.0341   -1.1468 O   0  0  0  0  0  0  0  0  0  0  0  0
    1.2609  -10.0946    0.8931 O   0  0  0  0  0  0  0  0  0  0  0  0
    1.7848  -12.0480    3.7180 O   0  0  0  0  0  0  0  0  0  0  0  0
    3.2131  -10.6431    4.2142 O   0  0  0  0  0  0  0  0  0  0  0  0
   -0.2126  -10.3788    4.4211 C   0  0  0  0  0  0  0  0  0  0  0  0
    1.6535   -5.5939    3.7335 O   0  0  0  0  0  0  0  0  0  0  0  0
   -1.2366   -9.5295    4.5990 O   0  0  0  0  0  0  0  0  0  0  0  0
   -0.4195  -11.5590    4.9550 O   0  0  0  0  0  0  0  0  0  0  0  0
    1.1544   -5.2878    1.1037 O   0  0  0  0  0  0  0  0  0  0  0  0
  1  2  1  0
  2  3  1  0
  3  4  1  0
  4  5  1  0
  1  6  1  0
  5  6  1  0
  2  7  1  6
  7  8  1  0
  4  9  1  6
  9 10  2  0
  9 11  1  0
  3 12  2  0
  8 13  2  0
  8 14  1  0
  7 15  1  0
  6 16  2  0
 15 17  1  0
 15 18  2  0
  5 19  2  0
M  END

$$$$
No_563-/export/home/yangzhenyu/potential_scad_32_flow//YTHDC2/2024-12-06-03-22-00/
     RDKit          3D

 19 19  0  0  1  0  0  0  0  0999 V2000
    1.1787   -8.0297    3.5154 C   0  0  0  0  0  0  0  0  0  0  0  0
    1.0491   -6.8434    2.9820 C   0  0  0  0  0  0  0  0  0  0  0  0
    1.9985   -8.9840    2.8958 C   0  0  2  0  0  0  0  0  0  0  0  0
    1.7297   -9.2108    1.6335 C   0  0  0  0  0  0  0  0  0  0  0  0
    1.7343   -8.0566    0.8408 C   0  0  1  0  0  0  0  0  0  0  0  0
    1.4996   -6.5076    2.0364 C   0  0  0  0  0  0  0  0  0  0  0  0
    1.5802   -6.8584    0.8700 C   0  0  0  0  0  0  0  0  0  0  0  0
    2.2270   -8.5830   -0.6071 C   0  0  0  0  0  0  0  0  0  0  0  0
    2.6045   -9.8461   -0.7908 Cl  0  0  0  0  0  0  0  0  0  0  0  0
    2.2347   -7.9099   -1.6367 O   0  0  0  0  0  0  0  0  0  0  0  0
    1.9113  -10.3452    3.5703 C   0  0  0  0  0  0  0  0  0  0  0  0
    2.8047  -10.5169    4.5185 N   0  0  0  0  0  0  0  0  0  0  0  0
    1.3859  -11.4084    3.1725 O   0  0  0  0  0  0  0  0  0  0  0  0
    0.9203   -4.7857    1.8344 F   0  0  0  0  0  0  0  0  0  0  0  0
    3.0605  -11.7548    5.1881 S   0  0  0  0  0  0  0  0  0  0  0  0
    4.1907  -12.0661    4.4308 C   0  0  0  0  0  0  0  0  0  0  0  0
    1.8971  -12.4862    4.8027 O   0  0  0  0  0  0  0  0  0  0  0  0
    3.1348  -11.4376    6.6433 O   0  0  0  0  0  0  0  0  0  0  0  0
    0.7802   -5.8766    4.0540 O   0  0  0  0  0  0  0  0  0  0  0  0
  1  2  1  0
  1  3  1  0
  3  4  1  0
  4  5  1  0
  2  6  2  0
  5  7  1  0
  6  7  1  0
  5  8  1  1
  8  9  1  0
  8 10  2  0
  3 11  1  1
 11 12  1  0
 11 13  2  0
  6 14  1  0
 12 15  1  0
 15 16  1  0
 15 17  2  0
 15 18  2  0
  2 19  1  0
M  END

$$$$
No_564-/export/home/yangzhenyu/potential_scad_32_flow//YTHDC2/2024-12-06-03-22-00/
     RDKit          3D

 18 18  0  0  1  0  0  0  0  0999 V2000
    1.1787   -8.0297    3.5154 C   0  0  0  0  0  0  0  0  0  0  0  0
    1.0491   -6.8434    2.9820 C   0  0  0  0  0  0  0  0  0  0  0  0
    0.9905   -9.0774    2.6527 C   0  0  0  0  0  0  0  0  0  0  0  0
    0.7897   -8.9519    1.3691 C   0  0  0  0  0  0  0  0  0  0  0  0
    0.7018   -7.7198    0.7892 C   0  0  0  0  0  0  0  0  0  0  0  0
    0.8918   -6.5957    1.6117 C   0  0  0  0  0  0  0  0  0  0  0  0
    1.0998  -10.4710    3.2437 C   0  0  1  0  0  0  0  0  0  0  0  0
    2.1917  -10.8879    3.7399 C   0  0  0  0  0  0  0  0  0  0  0  0
    0.8983   -5.2566    1.2088 C   0  0  0  0  0  0  0  0  0  0  0  0
   -0.0163  -11.2298    3.3739 C   0  0  0  0  0  0  0  0  0  0  0  0
   -1.1391  -10.5481    3.9500 O   0  0  0  0  0  0  0  0  0  0  0  0
   -0.1460  -12.5306    3.4252 O   0  0  0  0  0  0  0  0  0  0  0  0
    1.6223   -4.3599    1.8638 C   0  0  0  0  0  0  0  0  0  0  0  0
    1.4798   -2.9559    1.4252 O   0  0  0  0  0  0  0  0  0  0  0  0
    2.4694  -10.4620    5.1618 N   0  0  0  0  0  0  0  0  0  0  0  0
    1.8375   -4.3578    3.2472 O   0  0  0  0  0  0  0  0  0  0  0  0
    3.8010  -11.0768    5.6240 C   0  0  0  0  0  0  0  0  0  0  0  0
    4.8097  -11.1663    4.7701 O   0  0  0  0  0  0  0  0  0  0  0  0
  3  7  1  0
  7  8  1  1
  6  9  1  0
  7 10  1  0
 10 11  2  0
 10 12  1  0
  9 13  2  3
 13 14  1  0
  8 15  1  0
 13 16  1  0
 15 17  1  0
 17 18  2  0
  1  2  2  0
  2  6  1  0
  5  6  2  0
  4  5  1  0
  3  4  2  0
  1  3  1  0
M  END

$$$$
No_565-/export/home/yangzhenyu/potential_scad_32_flow//YTHDC2/2024-12-06-03-22-00/
     RDKit          3D

 19 19  0  0  0  0  0  0  0  0999 V2000
    1.1787   -8.0297    3.5154 Cl  0  0  0  0  0  0  0  0  0  0  0  0
    0.7279   -9.0023    2.8722 C   0  0  0  0  0  0  0  0  0  0  0  0
    1.3852  -10.2194    3.0621 C   0  0  0  0  0  0  0  0  0  0  0  0
    0.9411  -11.2612    3.2024 C   0  0  0  0  0  0  0  0  0  0  0  0
   -0.4271  -11.5165    2.9551 C   0  0  0  0  0  0  0  0  0  0  0  0
   -1.1780  -10.4324    2.6767 C   0  0  0  0  0  0  0  0  0  0  0  0
   -0.6311   -9.1616    2.7269 C   0  0  0  0  0  0  0  0  0  0  0  0
    1.8852  -12.6523    3.4897 Cl  0  0  0  0  0  0  0  0  0  0  0  0
   -1.5486   -8.1214    2.6165 C   0  0  0  0  0  0  0  0  0  0  0  0
   -2.2489   -7.6720    3.6553 C   0  0  0  0  0  0  0  0  0  0  0  0
   -2.0537   -8.2708    4.9614 C   0  0  0  0  0  0  0  0  0  0  0  0
   -3.2144   -6.6796    3.7013 C   0  0  0  0  0  0  0  0  0  0  0  0
   -1.6153   -7.2716    1.5289 O   0  0  0  0  0  0  0  0  0  0  0  0
   -3.9682   -6.5569    4.5928 F   0  0  0  0  0  0  0  0  0  0  0  0
   -2.5445   -5.2195    3.6176 O   0  0  0  0  0  0  0  0  0  0  0  0
   -0.9701   -7.9240    5.7685 C   0  0  0  0  0  0  0  0  0  0  0  0
   -4.0172   -6.6749    2.5168 O   0  0  0  0  0  0  0  0  0  0  0  0
   -2.5594  -10.7776    2.4462 O   0  0  0  0  0  0  0  0  0  0  0  0
   -2.9509  -11.1087    1.2381 C   0  0  0  0  0  0  0  0  0  0  0  0
  1  2  1  0
  4  8  1  0
  7  9  1  0
  9 10  1  0
 10 11  1  0
 10 12  1  0
  9 13  2  0
 12 14  1  0
 12 15  1  0
 11 16  1  0
 12 17  1  0
  6 18  1  0
 18 19  1  0
  2  3  2  0
  3  4  1  0
  4  5  2  0
  5  6  1  0
  6  7  2  0
  2  7  1  0
M  END

$$$$
No_566-/export/home/yangzhenyu/potential_scad_32_flow//YTHDC2/2024-12-06-03-22-00/
     RDKit          3D

 18 17  0  0  1  0  0  0  0  0999 V2000
    1.1787   -8.0297    3.5154 P   0  0  0  0  0  0  0  0  0  0  0  0
    1.2030   -9.2736    3.3536 O   0  0  0  0  0  0  0  0  0  0  0  0
   -0.0768   -7.4876    3.7816 O   0  0  0  0  0  0  0  0  0  0  0  0
    1.6943   -7.3089    2.0219 O   0  0  0  0  0  0  0  0  0  0  0  0
    0.1236  -10.2741    3.1434 C   0  0  0  0  0  0  0  0  0  0  0  0
    0.3003  -11.4923    3.9696 C   0  0  0  0  0  0  0  0  0  0  0  0
    1.7327  -11.9747    3.8645 O   0  0  0  0  0  0  0  0  0  0  0  0
    1.9527  -12.5683    2.5967 C   0  0  1  0  0  0  0  0  0  0  0  0
    1.5818  -13.9325    2.5724 C   0  0  0  0  0  0  0  0  0  0  0  0
    0.9537  -14.4352    3.4787 O   0  0  0  0  0  0  0  0  0  0  0  0
    2.2046  -14.6800    1.6125 O   0  0  0  0  0  0  0  0  0  0  0  0
    1.2937  -11.8269    1.5001 C   0  0  0  0  0  0  0  0  0  0  0  0
    0.1755  -12.2205    1.0483 O   0  0  0  0  0  0  0  0  0  0  0  0
    2.1633  -10.9471    0.9438 I   0  0  0  0  0  0  0  0  0  0  0  0
    2.2719   -7.5554    4.5156 O   0  0  0  0  0  0  0  0  0  0  0  0
    0.9512  -16.0093    3.5475 C   0  0  0  0  0  0  0  0  0  0  0  0
    0.0194  -16.6245    2.9291 C   0  0  0  0  0  0  0  0  0  0  0  0
    0.4689  -17.7582    2.3179 C   0  0  0  0  0  0  0  0  0  0  0  0
  1  2  1  0
  1  3  1  0
  1  4  2  0
  2  5  1  0
  5  6  1  0
  6  7  1  0
  8  7  1  1
  8  9  1  0
  9 10  1  0
  9 11  2  0
  8 12  1  0
 12 13  2  0
 12 14  1  0
  1 15  1  0
 10 16  1  0
 16 17  1  0
 17 18  1  0
M  END

$$$$
No_567-/export/home/yangzhenyu/potential_scad_32_flow//YTHDC2/2024-12-06-03-22-00/
     RDKit          3D

 19 19  0  0  1  0  0  0  0  0999 V2000
    1.1787   -8.0297    3.5154 C   0  0  0  0  0  0  0  0  0  0  0  0
    1.0491   -6.8434    2.9820 C   0  0  0  0  0  0  0  0  0  0  0  0
    0.0950   -8.8404    3.2292 C   0  0  0  0  0  0  0  0  0  0  0  0
   -0.9173   -8.4596    2.5152 C   0  0  0  0  0  0  0  0  0  0  0  0
   -1.0331   -7.2162    2.0653 C   0  0  0  0  0  0  0  0  0  0  0  0
   -0.0105   -6.3168    2.3081 C   0  0  0  0  0  0  0  0  0  0  0  0
    0.1465  -10.2446    3.6981 O   0  0  0  0  0  0  0  0  0  0  0  0
    0.0362   -4.9528    1.9186 C   0  0  0  0  0  0  0  0  0  0  0  0
    0.8559   -4.0680    2.4231 N   0  0  0  0  0  0  0  0  0  0  0  0
   -0.5773   -4.5093    0.8337 O   0  0  0  0  0  0  0  0  0  0  0  0
   -0.7627  -11.0968    3.6130 C   0  0  0  0  0  0  0  0  0  0  0  0
   -0.3923  -11.9655    2.6407 C   0  0  0  0  0  0  0  0  0  0  0  0
    1.0634  -12.0793    2.4407 C   0  0  1  0  0  0  0  0  0  0  0  0
    1.8162  -12.7092    3.3417 C   0  0  0  0  0  0  0  0  0  0  0  0
    1.5751  -12.4048    4.4126 C   0  0  0  0  0  0  0  0  0  0  0  0
    1.2132  -12.6735    1.0383 C   0  0  0  0  0  0  0  0  0  0  0  0
    0.3574  -12.5399    0.1608 O   0  0  0  0  0  0  0  0  0  0  0  0
    2.4412  -13.1324    0.6535 O   0  0  0  0  0  0  0  0  0  0  0  0
    1.1106   -2.7353    2.0384 C   0  0  0  0  0  0  0  0  0  0  0  0
  3  7  1  0
  6  8  1  0
  8  9  1  0
  8 10  2  0
  7 11  1  0
 11 12  1  0
 13 12  1  1
 13 14  1  0
 14 15  1  0
 13 16  1  0
 16 17  2  0
 16 18  1  0
  9 19  1  0
  1  2  2  0
  2  6  1  0
  5  6  2  0
  4  5  1  0
  3  4  2  0
  1  3  1  0
M  END

$$$$
No_568-/export/home/yangzhenyu/potential_scad_32_flow//YTHDC2/2024-12-06-03-22-00/
     RDKit          3D

 18 18  0  0  1  0  0  0  0  0999 V2000
    1.1787   -8.0297    3.5154 C   0  0  0  0  0  0  0  0  0  0  0  0
    1.0491   -6.8434    2.9820 C   0  0  0  0  0  0  0  0  0  0  0  0
    1.9985   -8.9840    2.8958 C   0  0  0  0  0  0  0  0  0  0  0  0
    1.9135  -10.3404    3.6266 C   0  0  0  0  0  0  0  0  0  0  0  0
    0.7479  -10.9191    3.7202 C   0  0  0  0  0  0  0  0  0  0  0  0
    1.8085   -5.7988    3.2380 C   0  0  0  0  0  0  0  0  0  0  0  0
    0.6998  -12.3189    3.4968 C   0  0  0  0  0  0  0  0  0  0  0  0
    0.9936  -12.5961    2.0807 C   0  0  0  0  0  0  0  0  0  0  0  0
    0.7302  -11.7193    1.2420 C   0  0  1  0  0  0  0  0  0  0  0  0
   -0.4930  -11.6250    0.7849 C   0  0  0  0  0  0  0  0  0  0  0  0
   -0.9141  -10.5809   -0.1075 C   0  0  0  0  0  0  0  0  0  0  0  0
    0.1072   -9.5583   -0.4100 C   0  0  1  0  0  0  0  0  0  0  0  0
    1.3946   -9.6188   -0.0461 C   0  0  0  0  0  0  0  0  0  0  0  0
    1.7303  -10.6840    0.8205 C   0  0  0  0  0  0  0  0  0  0  0  0
    2.3477   -8.7363   -0.4875 C   0  0  0  0  0  0  0  0  0  0  0  0
    1.6216   -5.2427    4.2444 O   0  0  0  0  0  0  0  0  0  0  0  0
    2.9750  -10.9466    1.0518 O   0  0  0  0  0  0  0  0  0  0  0  0
   -0.3139   -8.6069   -1.3094 O   0  0  0  0  0  0  0  0  0  0  0  0
  1  2  1  0
  1  3  1  0
  3  4  1  0
  4  5  1  0
  2  6  1  0
  5  7  1  0
  7  8  1  0
  9  8  1  1
  9 10  1  0
 11 12  1  0
  9 14  1  0
 13 14  1  0
 13 15  1  0
  6 16  2  0
 14 17  2  0
 12 18  1  6
 10 11  1  0
 12 13  1  0
M  END

$$$$
No_569-/export/home/yangzhenyu/potential_scad_32_flow//YTHDC2/2024-12-06-03-22-00/
     RDKit          3D

 18 18  0  0  0  0  0  0  0  0999 V2000
    1.1787   -8.0297    3.5154 Cl  0  0  0  0  0  0  0  0  0  0  0  0
    0.6122   -7.9650    2.5747 C   0  0  0  0  0  0  0  0  0  0  0  0
    0.4809   -9.1882    1.8138 C   0  0  0  0  0  0  0  0  0  0  0  0
    0.0192   -9.0891    0.5546 C   0  0  0  0  0  0  0  0  0  0  0  0
   -0.4655   -7.9863   -0.1524 C   0  0  0  0  0  0  0  0  0  0  0  0
   -0.3636   -6.8187    0.6504 C   0  0  0  0  0  0  0  0  0  0  0  0
    0.1144   -6.8137    1.9877 C   0  0  0  0  0  0  0  0  0  0  0  0
    0.2341   -5.5482    2.5704 C   0  0  0  0  0  0  0  0  0  0  0  0
   -0.8237   -4.7888    2.7246 C   0  0  0  0  0  0  0  0  0  0  0  0
   -0.8196   -3.4195    3.0759 O   0  0  0  0  0  0  0  0  0  0  0  0
   -2.1922   -5.3137    2.6497 C   0  0  0  0  0  0  0  0  0  0  0  0
    0.9837  -10.4187    2.2937 C   0  0  0  0  0  0  0  0  0  0  0  0
    0.5965  -10.8650    3.3738 O   0  0  0  0  0  0  0  0  0  0  0  0
    1.7263  -11.2221    1.5360 C   0  0  0  0  0  0  0  0  0  0  0  0
    1.7442  -12.5757    1.6521 C   0  0  0  0  0  0  0  0  0  0  0  0
    1.1268  -13.3780    1.5132 C   0  0  0  0  0  0  0  0  0  0  0  0
    1.5019   -4.8407    2.4520 O   0  0  0  0  0  0  0  0  0  0  0  0
   -1.0245   -8.0545   -1.3273 C   0  0  0  0  0  0  0  0  0  0  0  0
  1  2  1  0
  7  8  1  0
  8  9  2  3
  9 10  1  0
  9 11  1  0
  3 12  1  0
 12 13  2  0
 12 14  1  0
 14 15  1  0
 15 16  3  0
  8 17  1  0
  5 18  1  0
  2  3  2  0
  3  4  1  0
  4  5  2  0
  5  6  1  0
  6  7  2  0
  2  7  1  0
M  END

$$$$
No_570-/export/home/yangzhenyu/potential_scad_32_flow//YTHDC2/2024-12-06-03-22-00/
     RDKit          3D

 18 19  0  0  1  0  0  0  0  0999 V2000
    1.1787   -8.0297    3.5154 O   0  0  0  0  0  0  0  0  0  0  0  0
    0.6747   -7.4019    2.7838 C   0  0  0  0  0  0  0  0  0  0  0  0
    0.7594   -8.0032    1.4295 C   0  0  1  0  0  0  0  0  0  0  0  0
    1.4743   -7.4398    0.6034 C   0  0  0  0  0  0  0  0  0  0  0  0
    1.8433   -8.4150   -0.4648 C   0  0  0  0  0  0  0  0  0  0  0  0
    1.1937   -9.5681   -0.1453 C   0  0  0  0  0  0  0  0  0  0  0  0
    0.5504   -9.4714    1.1124 C   0  0  2  0  0  0  0  0  0  0  0  0
   -0.8878   -9.7895    1.0271 C   0  0  0  0  0  0  0  0  0  0  0  0
   -1.4264  -10.4466    1.8949 C   0  0  0  0  0  0  0  0  0  0  0  0
   -0.5852  -10.9305    2.9252 C   0  0  0  0  0  0  0  0  0  0  0  0
    0.7547  -10.7572    2.9607 C   0  0  0  0  0  0  0  0  0  0  0  0
    1.3429   -9.9874    1.9555 C   0  0  0  0  0  0  0  0  0  0  0  0
   -0.3938   -6.8157    2.9904 O   0  0  0  0  0  0  0  0  0  0  0  0
    1.7055  -11.4614    4.1868 C   0  0  0  0  0  0  0  0  0  0  0  0
    2.6979  -10.4004    1.8479 O   0  0  0  0  0  0  0  0  0  0  0  0
    2.0575  -10.4205    5.0487 N   0  0  0  0  0  0  0  0  0  0  0  0
    3.5151  -10.6698    5.4938 C   0  0  0  0  0  0  0  0  0  0  0  0
    3.8031  -10.4525    6.7987 O   0  0  0  0  0  0  0  0  0  0  0  0
  1  2  1  0
  3  2  1  1
  3  4  1  0
  4  5  2  0
  5  6  1  0
  3  7  1  0
  7  6  1  6
  7  8  1  0
  9 10  1  0
  7 12  1  0
 11 12  1  0
  2 13  2  0
 11 14  1  0
 12 15  2  0
 14 16  1  0
 16 17  1  0
 17 18  1  0
  8  9  1  0
 10 11  1  0
M  END

$$$$
No_571-/export/home/yangzhenyu/potential_scad_32_flow//YTHDC2/2024-12-06-03-22-00/
     RDKit          3D

 20 20  0  0  1  0  0  0  0  0999 V2000
    1.1787   -8.0297    3.5154 N   0  0  0  0  0  0  0  0  0  0  0  0
    0.8669   -7.0905    2.8589 C   0  0  0  0  0  0  0  0  0  0  0  0
    0.8842   -5.8387    3.2677 N   0  0  0  0  0  0  0  0  0  0  0  0
    0.7046   -7.3396    1.4853 C   0  0  0  0  0  0  0  0  0  0  0  0
    1.1339   -9.2740    3.0829 C   0  0  0  0  0  0  0  0  0  0  0  0
    0.8384   -9.5970    1.8450 C   0  0  0  0  0  0  0  0  0  0  0  0
    0.6959  -10.9352    1.3216 C   0  0  1  0  0  0  0  0  0  0  0  0
    0.5830   -8.5281    1.0020 C   0  0  0  0  0  0  0  0  0  0  0  0
   -0.4207  -11.3233    0.8404 O   0  0  0  0  0  0  0  0  0  0  0  0
    1.7646  -11.1848    0.3266 C   0  0  0  0  0  0  0  0  0  0  0  0
    1.6293  -10.4715    4.0238 C   0  0  0  0  0  0  0  0  0  0  0  0
    0.3426   -6.2934    0.6182 C   0  0  0  0  0  0  0  0  0  0  0  0
   -0.7052   -5.5164    0.8960 O   0  0  0  0  0  0  0  0  0  0  0  0
   -1.2728   -4.6259    0.1875 C   0  0  0  0  0  0  0  0  0  0  0  0
   -2.4014   -4.0764    0.7861 C   0  0  0  0  0  0  0  0  0  0  0  0
   -2.3346   -2.7860    1.2517 C   0  0  0  0  0  0  0  0  0  0  0  0
    2.9308  -10.6919    4.2436 N   0  0  0  0  0  0  0  0  0  0  0  0
    0.7704  -11.5259    4.1073 O   0  0  0  0  0  0  0  0  0  0  0  0
   -2.3303   -2.6191    2.4891 C   0  0  0  0  0  0  0  0  0  0  0  0
   -2.8524   -3.6768    3.2492 C   0  0  0  0  0  0  0  0  0  0  0  0
  2  3  1  0
  6  7  1  0
  7  9  1  0
  7 10  1  6
  5 11  1  0
  4 12  1  0
 12 13  1  0
 13 14  1  0
 14 15  1  0
 15 16  1  0
 11 17  1  0
 11 18  2  0
 16 19  1  0
 19 20  1  0
  1  2  2  0
  2  4  1  0
  4  8  2  0
  6  8  1  0
  5  6  2  0
  1  5  1  0
M  END

$$$$
No_572-/export/home/yangzhenyu/potential_scad_32_flow//YTHDC2/2024-12-06-03-22-00/
     RDKit          3D

 17 17  0  0  1  0  0  0  0  0999 V2000
    1.1787   -8.0297    3.5154 C   0  0  0  0  0  0  0  0  0  0  0  0
    1.1048   -9.2215    3.2892 Cl  0  0  0  0  0  0  0  0  0  0  0  0
    1.1053   -7.0623    2.3233 C   0  0  0  0  0  0  0  0  0  0  0  0
    0.2376   -7.0821    1.6319 C   0  0  1  0  0  0  0  0  0  0  0  0
   -0.0155   -8.0601    0.7610 C   0  0  2  0  0  0  0  0  0  0  0  0
   -1.2983   -8.4406    0.4545 C   0  0  0  0  0  0  0  0  0  0  0  0
   -2.2698   -7.4816    0.5425 C   0  0  2  0  0  0  0  0  0  0  0  0
   -2.0874   -6.3485    1.3329 C   0  0  0  0  0  0  0  0  0  0  0  0
   -0.7997   -6.0734    1.8418 C   0  0  0  0  0  0  0  0  0  0  0  0
    1.0744   -8.8615    0.1643 O   0  0  0  0  0  0  0  0  0  0  0  0
   -0.3832   -4.8299    2.3158 O   0  0  0  0  0  0  0  0  0  0  0  0
    1.9670   -8.2685   -0.7796 C   0  0  0  0  0  0  0  0  0  0  0  0
    3.0831   -9.1132   -0.7355 C   0  0  0  0  0  0  0  0  0  0  0  0
    3.1180   -9.9957   -0.0394 O   0  0  0  0  0  0  0  0  0  0  0  0
    3.7937   -8.7884   -1.7905 O   0  0  0  0  0  0  0  0  0  0  0  0
   -3.6218   -7.7597    0.1033 O   0  0  0  0  0  0  0  0  0  0  0  0
   -3.7806   -7.7107   -1.1676 C   0  0  0  0  0  0  0  0  0  0  0  0
  1  2  1  0
  1  3  1  0
  4  3  1  1
  4  5  1  0
  6  7  1  0
  4  9  1  0
  8  9  1  0
  5 10  1  1
  9 11  2  0
 10 12  1  0
 12 13  1  0
 13 14  1  0
 13 15  2  0
  7 16  1  1
 16 17  1  0
  5  6  1  0
  7  8  1  0
M  END

$$$$
No_573-/export/home/yangzhenyu/potential_scad_32_flow//YTHDC2/2024-12-06-03-22-00/
     RDKit          3D

 16 16  0  0  1  0  0  0  0  0999 V2000
    1.1787   -8.0297    3.5154 C   0  0  0  0  0  0  0  0  0  0  0  0
    1.0491   -6.8434    2.9820 C   0  0  2  0  0  0  0  0  0  0  0  0
    1.0690   -9.1150    2.7206 C   0  0  1  0  0  0  0  0  0  0  0  0
    0.9689   -6.6391    1.6260 C   0  0  0  0  0  0  0  0  0  0  0  0
    0.9670   -9.0334    1.3824 C   0  0  0  0  0  0  0  0  0  0  0  0
    0.8189   -7.7113    0.8022 C   0  0  0  0  0  0  0  0  0  0  0  0
    1.2122  -10.5176    3.2445 C   0  0  2  0  0  0  0  0  0  0  0  0
    2.2296  -10.8040    3.9249 C   0  0  0  0  0  0  0  0  0  0  0  0
    0.9274   -5.3469    1.1087 O   0  0  0  0  0  0  0  0  0  0  0  0
    1.2376  -11.5190    2.0832 C   0  0  0  0  0  0  0  0  0  0  0  0
    0.1802  -12.2799    2.0282 Cl  0  0  0  0  0  0  0  0  0  0  0  0
    2.2068  -11.9663    4.7973 N   0  0  0  0  0  0  0  0  0  0  0  0
    2.3804  -11.7294    1.2699 O   0  0  0  0  0  0  0  0  0  0  0  0
    0.7297   -7.5664   -0.4864 O   0  0  0  0  0  0  0  0  0  0  0  0
    3.1981   -9.9679    4.6950 O   0  0  0  0  0  0  0  0  0  0  0  0
    1.2108   -5.7228    3.8520 Cl  0  0  0  0  0  0  0  0  0  0  0  0
  3  1  1  6
  2  4  1  0
  4  6  1  0
  5  6  1  0
  3  7  1  0
  7  8  1  6
  4  9  2  0
  7 10  1  0
 10 11  1  0
  8 12  1  0
 10 13  2  0
  6 14  2  0
  8 15  2  0
  2 16  1  6
  1  2  1  0
  3  5  1  0
M  END

$$$$
No_574-/export/home/yangzhenyu/potential_scad_32_flow//YTHDC2/2024-12-06-03-22-00/
     RDKit          3D

 19 19  0  0  1  0  0  0  0  0999 V2000
    1.1787   -8.0297    3.5154 C   0  0  0  0  0  0  0  0  0  0  0  0
    1.0491   -6.8434    2.9820 C   0  0  0  0  0  0  0  0  0  0  0  0
    0.9905   -9.0774    2.6527 C   0  0  1  0  0  0  0  0  0  0  0  0
    0.7897   -8.9519    1.3691 C   0  0  0  0  0  0  0  0  0  0  0  0
    0.7018   -7.7198    0.7892 C   0  0  0  0  0  0  0  0  0  0  0  0
    0.8187   -6.6272    1.5449 C   0  0  0  0  0  0  0  0  0  0  0  0
    1.1414  -10.4624    3.2533 C   0  0  1  0  0  0  0  0  0  0  0  0
    2.2192  -10.8667    3.7596 C   0  0  0  0  0  0  0  0  0  0  0  0
    0.8346   -5.2935    1.1018 O   0  0  0  0  0  0  0  0  0  0  0  0
   -0.0199  -11.1731    3.4835 C   0  0  0  0  0  0  0  0  0  0  0  0
   -0.1290  -12.4504    3.2268 C   0  0  0  0  0  0  0  0  0  0  0  0
    1.1509  -13.0916    2.8940 C   0  0  0  0  0  0  0  0  0  0  0  0
    1.1223  -14.5293    2.6438 C   0  0  0  0  0  0  0  0  0  0  0  0
    0.1674  -15.2841    3.1311 O   0  0  0  0  0  0  0  0  0  0  0  0
    2.2454  -15.1376    2.2673 O   0  0  0  0  0  0  0  0  0  0  0  0
    2.3756  -10.8580    5.2020 O   0  0  0  0  0  0  0  0  0  0  0  0
    0.5905  -10.2410    0.2826 O   0  0  0  0  0  0  0  0  0  0  0  0
    1.5879   -5.7252    3.5547 O   0  0  0  0  0  0  0  0  0  0  0  0
    3.3637  -10.8803    3.1855 O   0  0  0  0  0  0  0  0  0  0  0  0
  1  2  1  0
  3  4  1  0
  2  6  1  0
  5  6  1  0
  3  7  1  0
  7  8  1  1
  6  9  2  0
  7 10  1  0
 10 11  2  3
 11 12  1  0
 12 13  1  0
 13 14  1  0
 13 15  2  0
  8 16  2  0
  4 17  1  0
  2 18  2  0
  8 19  1  0
  3  1  1  6
  4  5  1  0
M  END

$$$$
No_575-/export/home/yangzhenyu/potential_scad_32_flow//YTHDC2/2024-12-06-03-22-00/
     RDKit          3D

 17 18  0  0  1  0  0  0  0  0999 V2000
    1.1787   -8.0297    3.5154 C   0  0  0  0  0  0  0  0  0  0  0  0
    1.1048   -9.2215    3.2892 C   0  0  0  0  0  0  0  0  0  0  0  0
    1.2339   -9.7611    2.0189 C   0  0  0  0  0  0  0  0  0  0  0  0
    1.1954  -11.2312    1.8661 C   0  0  1  0  0  0  0  0  0  0  0  0
    1.2996  -11.5815    0.5387 C   0  0  0  0  0  0  0  0  0  0  0  0
    0.9270   -7.0442    2.4967 C   0  0  0  0  0  0  0  0  0  0  0  0
    0.9803   -7.6034    1.0978 P   0  0  1  0  0  0  0  0  0  0  0  0
    1.1894   -9.0381    1.0177 C   0  0  0  0  0  0  0  0  0  0  0  0
   -0.4705   -7.3113    0.5485 O   0  0  0  0  0  0  0  0  0  0  0  0
    1.4436  -10.9334   -0.3371 N   0  0  0  0  0  0  0  0  0  0  0  0
    1.3479   -9.5917   -0.2904 C   0  0  0  0  0  0  0  0  0  0  0  0
    1.5542   -8.8514   -1.3728 O   0  0  0  0  0  0  0  0  0  0  0  0
    0.8764   -5.6355    2.8108 C   0  0  0  0  0  0  0  0  0  0  0  0
    1.2774  -12.0561    2.9982 C   0  0  0  0  0  0  0  0  0  0  0  0
    1.9736  -12.7567    3.4260 C   0  0  0  0  0  0  0  0  0  0  0  0
    1.7684  -14.1005    2.6328 C   0  0  0  0  0  0  0  0  0  0  0  0
    0.6441  -14.7885    2.8067 C   0  0  0  0  0  0  0  0  0  0  0  0
  1  2  1  0
  2  3  2  0
  3  4  1  0
  4  5  1  0
  1  6  2  0
  6  7  1  0
  3  8  1  0
  7  8  1  1
  7  9  2  0
  8 11  1  0
 10 11  1  0
 11 12  2  0
  6 13  1  0
  4 14  1  1
 14 15  1  0
 15 16  1  0
 16 17  1  0
  5 10  1  0
M  END

$$$$
No_576-/export/home/yangzhenyu/potential_scad_32_flow//YTHDC2/2024-12-06-03-22-00/
     RDKit          3D

 18 17  0  0  1  0  0  0  0  0999 V2000
    1.1787   -8.0297    3.5154 O   0  0  0  0  0  0  0  0  0  0  0  0
    0.6747   -7.4019    2.7838 C   0  0  1  0  0  0  0  0  0  0  0  0
    0.7594   -8.0032    1.4295 C   0  0  2  0  0  0  0  0  0  0  0  0
    0.3459   -9.1500    1.3581 Cl  0  0  0  0  0  0  0  0  0  0  0  0
    2.2385   -7.6351    0.9141 C   0  0  0  0  0  0  0  0  0  0  0  0
    2.4428   -8.5550   -0.1074 C   0  0  0  0  0  0  0  0  0  0  0  0
   -0.5999   -7.1972    3.1466 C   0  0  0  0  0  0  0  0  0  0  0  0
   -1.1684   -5.9467    2.6524 C   0  0  0  0  0  0  0  0  0  0  0  0
   -2.4232   -5.5153    2.9595 C   0  0  0  0  0  0  0  0  0  0  0  0
   -2.8143   -4.2465    2.7695 O   0  0  0  0  0  0  0  0  0  0  0  0
   -3.4040   -6.4395    2.8189 O   0  0  0  0  0  0  0  0  0  0  0  0
    2.3953   -9.6698   -0.1476 O   0  0  0  0  0  0  0  0  0  0  0  0
    3.1109   -7.9293   -1.2339 N   0  0  0  0  0  0  0  0  0  0  0  0
   -0.2095   -4.8543    2.0005 C   0  0  0  0  0  0  0  0  0  0  0  0
    0.8122   -4.2962    2.6349 C   0  0  1  0  0  0  0  0  0  0  0  0
    1.9729   -4.8105    2.8417 C   0  0  0  0  0  0  0  0  0  0  0  0
    0.6837   -2.8216    2.8849 C   0  0  0  0  0  0  0  0  0  0  0  0
    1.0552   -1.9286    1.9566 O   0  0  0  0  0  0  0  0  0  0  0  0
  2  1  1  1
  2  3  1  0
  3  4  1  1
  3  5  1  0
  5  6  2  3
  2  7  1  0
  7  8  2  3
  8  9  1  0
  9 10  2  0
  9 11  1  0
  6 12  1  0
  6 13  1  0
  8 14  1  0
 14 15  1  0
 15 16  1  6
 15 17  1  0
 17 18  2  0
M  END

$$$$
No_577-/export/home/yangzhenyu/potential_scad_32_flow//YTHDC2/2024-12-06-03-22-00/
     RDKit          3D

 18 18  0  0  1  0  0  0  0  0999 V2000
    1.1787   -8.0297    3.5154 O   0  0  0  0  0  0  0  0  0  0  0  0
    0.9969   -8.9689    3.0048 C   0  0  1  0  0  0  0  0  0  0  0  0
    0.9976   -8.9567    1.6341 C   0  0  0  0  0  0  0  0  0  0  0  0
    0.7663   -7.7728    1.0082 C   0  0  1  0  0  0  0  0  0  0  0  0
    1.1468   -6.5619    1.6541 C   0  0  0  0  0  0  0  0  0  0  0  0
    1.3592   -6.6155    3.0007 C   0  0  0  0  0  0  0  0  0  0  0  0
    0.9781  -10.1276    3.6866 C   0  0  0  0  0  0  0  0  0  0  0  0
    1.9856  -10.9664    3.7361 C   0  0  0  0  0  0  0  0  0  0  0  0
    0.8263   -7.8148   -0.3756 C   0  0  0  0  0  0  0  0  0  0  0  0
   -0.4539   -7.7594   -0.9613 Cl  0  0  0  0  0  0  0  0  0  0  0  0
    1.8830   -8.0558   -1.0837 O   0  0  0  0  0  0  0  0  0  0  0  0
    3.1334  -10.4878    4.4105 C   0  0  0  0  0  0  0  0  0  0  0  0
    3.4901  -11.2753    5.6474 O   0  0  0  0  0  0  0  0  0  0  0  0
    1.5172   -5.5680    3.7681 O   0  0  0  0  0  0  0  0  0  0  0  0
    1.1201  -10.1259    0.9442 O   0  0  0  0  0  0  0  0  0  0  0  0
   -0.2550  -10.4695    4.3775 C   0  0  0  0  0  0  0  0  0  0  0  0
   -1.3473   -9.6341    4.4595 O   0  0  0  0  0  0  0  0  0  0  0  0
   -0.4322  -11.6967    4.7902 O   0  0  0  0  0  0  0  0  0  0  0  0
  1  2  1  0
  2  3  1  0
  3  4  1  0
  4  5  1  0
  1  6  1  0
  5  6  1  0
  2  7  1  6
  7  8  1  0
  4  9  1  6
  9 10  1  0
  9 11  2  0
  8 12  1  0
 12 13  1  0
  6 14  2  0
  3 15  2  0
  7 16  1  0
 16 17  2  0
 16 18  1  0
M  END

$$$$
No_578-/export/home/yangzhenyu/potential_scad_32_flow//YTHDC2/2024-12-06-03-22-00/
     RDKit          3D

 18 18  0  0  0  0  0  0  0  0999 V2000
    1.1787   -8.0297    3.5154 C   0  0  0  0  0  0  0  0  0  0  0  0
    1.0491   -6.8434    2.9820 C   0  0  0  0  0  0  0  0  0  0  0  0
    0.0950   -8.8404    3.2292 C   0  0  0  0  0  0  0  0  0  0  0  0
   -0.9173   -8.4596    2.5152 C   0  0  0  0  0  0  0  0  0  0  0  0
   -1.0331   -7.2162    2.0653 C   0  0  0  0  0  0  0  0  0  0  0  0
   -0.0105   -6.3168    2.3081 C   0  0  0  0  0  0  0  0  0  0  0  0
    0.1465  -10.2446    3.6981 Cl  0  0  0  0  0  0  0  0  0  0  0  0
    0.0249   -4.9418    1.9014 C   0  0  0  0  0  0  0  0  0  0  0  0
   -0.7067   -4.1221    2.3520 O   0  0  0  0  0  0  0  0  0  0  0  0
    1.1922   -4.4599    1.2357 O   0  0  0  0  0  0  0  0  0  0  0  0
   -2.2429   -6.7569    1.4786 C   0  0  0  0  0  0  0  0  0  0  0  0
   -3.2924   -6.4554    1.9783 C   0  0  0  0  0  0  0  0  0  0  0  0
   -4.3284   -5.9198    1.2389 O   0  0  0  0  0  0  0  0  0  0  0  0
   -2.1827   -6.7124   -0.0176 C   0  0  0  0  0  0  0  0  0  0  0  0
   -3.1024   -6.1622   -0.7214 C   0  0  0  0  0  0  0  0  0  0  0  0
   -2.9118   -6.0497   -2.0356 C   0  0  0  0  0  0  0  0  0  0  0  0
   -1.7731   -6.6598   -2.6157 C   0  0  0  0  0  0  0  0  0  0  0  0
   -0.9823   -7.5336   -1.9816 C   0  0  0  0  0  0  0  0  0  0  0  0
  3  7  1  0
  6  8  1  0
  8  9  2  0
  8 10  1  0
  5 11  1  0
 11 12  1  0
 12 13  1  0
 11 14  1  0
 14 15  1  0
 15 16  2  3
 16 17  1  0
 17 18  2  0
  1  2  2  0
  2  6  1  0
  5  6  2  0
  4  5  1  0
  3  4  2  0
  1  3  1  0
M  END

$$$$
No_579-/export/home/yangzhenyu/potential_scad_32_flow//YTHDC2/2024-12-06-03-22-00/
     RDKit          3D

 18 18  0  0  1  0  0  0  0  0999 V2000
    1.1787   -8.0297    3.5154 C   0  0  0  0  0  0  0  0  0  0  0  0
    1.1048   -9.2215    3.2892 F   0  0  0  0  0  0  0  0  0  0  0  0
    2.1516   -7.3031    2.6109 C   0  0  0  0  0  0  0  0  0  0  0  0
    1.2964   -6.8187    1.4816 C   0  0  0  0  0  0  0  0  0  0  0  0
    0.0972   -7.2258    1.3767 O   0  0  0  0  0  0  0  0  0  0  0  0
   -0.7725   -6.3498    1.4750 C   0  0  1  0  0  0  0  0  0  0  0  0
   -2.0036   -6.8577    1.6145 C   0  0  2  0  0  0  0  0  0  0  0  0
   -2.7588   -6.3108    2.6561 C   0  0  1  0  0  0  0  0  0  0  0  0
   -2.4299   -5.0085    3.1205 C   0  0  0  0  0  0  0  0  0  0  0  0
   -1.2772   -4.3919    2.7518 C   0  0  2  0  0  0  0  0  0  0  0  0
   -0.4269   -5.0418    1.8761 C   0  0  0  0  0  0  0  0  0  0  0  0
    0.8643   -4.5416    1.6876 O   0  0  0  0  0  0  0  0  0  0  0  0
   -0.0494   -7.4320    3.5332 F   0  0  0  0  0  0  0  0  0  0  0  0
   -3.3796   -4.3361    3.9584 O   0  0  0  0  0  0  0  0  0  0  0  0
   -4.0286   -6.8134    2.9569 O   0  0  0  0  0  0  0  0  0  0  0  0
   -0.8679   -3.0641    3.4976 O   0  0  0  0  0  0  0  0  0  0  0  0
   -2.3830   -8.1103    1.1676 C   0  0  0  0  0  0  0  0  0  0  0  0
   -3.0508   -8.0475   -0.0377 C   0  0  0  0  0  0  0  0  0  0  0  0
  1  2  1  0
  1  3  1  0
  3  4  1  0
  4  5  1  0
  6  5  1  1
  6  7  1  0
  8  9  1  0
  6 11  1  0
 10 11  1  0
 11 12  2  0
  1 13  1  0
  9 14  1  0
  8 15  1  6
 10 16  1  1
  7 17  1  1
 17 18  2  0
  7  8  1  0
  9 10  1  0
M  END

$$$$
No_580-/export/home/yangzhenyu/potential_scad_32_flow//YTHDC2/2024-12-06-03-22-00/
     RDKit          3D

 19 19  0  0  0  0  0  0  0  0999 V2000
    1.1787   -8.0297    3.5154 N   0  0  0  0  0  0  0  0  0  0  0  0
    0.8669   -7.0905    2.8589 C   0  0  0  0  0  0  0  0  0  0  0  0
    0.8842   -5.8387    3.2677 C   0  0  0  0  0  0  0  0  0  0  0  0
    1.2819   -9.4050    3.1259 C   0  0  0  0  0  0  0  0  0  0  0  0
    0.9577   -9.7285    2.0210 C   0  0  0  0  0  0  0  0  0  0  0  0
    0.5397   -8.8365    1.1063 C   0  0  0  0  0  0  0  0  0  0  0  0
    0.5474   -7.4800    1.4498 C   0  0  0  0  0  0  0  0  0  0  0  0
    0.0502   -6.5822    0.6090 C   0  0  0  0  0  0  0  0  0  0  0  0
    1.7922  -10.3633    4.1996 C   0  0  0  0  0  0  0  0  0  0  0  0
    1.1056  -11.6109    4.3531 O   0  0  0  0  0  0  0  0  0  0  0  0
    2.9427  -10.2981    4.8583 N   0  0  0  0  0  0  0  0  0  0  0  0
   -1.2476   -6.1415    0.8213 O   0  0  0  0  0  0  0  0  0  0  0  0
    3.3873  -11.3828    5.6189 C   0  0  0  0  0  0  0  0  0  0  0  0
    4.8908  -10.9165    5.5451 C   0  0  0  0  0  0  0  0  0  0  0  0
   -0.2121   -5.0970    3.3579 N   0  0  0  0  0  0  0  0  0  0  0  0
    2.1293   -5.1914    3.6146 O   0  0  0  0  0  0  0  0  0  0  0  0
   -1.5968   -4.8962    0.2755 C   0  0  0  0  0  0  0  0  0  0  0  0
   -2.8334   -4.6489    0.5478 C   0  0  0  0  0  0  0  0  0  0  0  0
   -3.1482   -3.3178    0.6448 C   0  0  0  0  0  0  0  0  0  0  0  0
  2  3  1  0
  7  8  1  0
  4  9  1  0
  9 10  2  0
  9 11  1  0
  8 12  1  0
 11 13  1  0
 13 14  1  0
  3 15  1  0
  3 16  2  0
 12 17  1  0
 17 18  1  0
 18 19  2  0
  1  2  2  0
  2  7  1  0
  6  7  2  0
  5  6  1  0
  4  5  2  0
  1  4  1  0
M  END

$$$$
No_581-/export/home/yangzhenyu/potential_scad_32_flow//YTHDC2/2024-12-06-03-22-00/
     RDKit          3D

 16 17  0  0  0  0  0  0  0  0999 V2000
    1.1787   -8.0297    3.5154 O   0  0  0  0  0  0  0  0  0  0  0  0
    0.6747   -7.4019    2.7838 C   0  0  0  0  0  0  0  0  0  0  0  0
    0.7594   -8.0032    1.4295 C   0  0  0  0  0  0  0  0  0  0  0  0
    0.3459   -9.1500    1.3581 C   0  0  0  0  0  0  0  0  0  0  0  0
   -0.4155   -9.6726    2.0241 C   0  0  0  0  0  0  0  0  0  0  0  0
   -0.9778   -9.0613    3.0813 C   0  0  0  0  0  0  0  0  0  0  0  0
   -0.2389   -7.9325    3.6013 C   0  0  0  0  0  0  0  0  0  0  0  0
    1.3884   -7.1142    0.6399 C   0  0  0  0  0  0  0  0  0  0  0  0
    2.1697   -7.7442   -0.2467 C   0  0  0  0  0  0  0  0  0  0  0  0
    0.6434   -9.7325   -0.0107 C   0  0  0  0  0  0  0  0  0  0  0  0
    2.9445   -7.4792   -1.1070 C   0  0  0  0  0  0  0  0  0  0  0  0
    0.1916  -10.9254   -0.2716 C   0  0  0  0  0  0  0  0  0  0  0  0
    1.7639   -9.2363   -0.3642 C   0  0  0  0  0  0  0  0  0  0  0  0
   -1.9250   -9.6544    4.0500 C   0  0  0  0  0  0  0  0  0  0  0  0
   -2.8901  -10.2538    3.6863 O   0  0  0  0  0  0  0  0  0  0  0  0
   -1.6691   -9.7398    5.4212 O   0  0  0  0  0  0  0  0  0  0  0  0
  1  2  1  0
  9 11  1  0
  6 14  1  0
 14 15  2  0
 14 16  1  0
 10 12  1  0
  2  3  2  0
  4  5  2  0
  5  6  1  0
  6  7  2  0
  2  7  1  0
  3  4  1  0
  4 10  1  0
 10 13  2  0
  9 13  1  0
  8  9  2  0
  3  8  1  0
M  END

$$$$
No_582-/export/home/yangzhenyu/potential_scad_32_flow//YTHDC2/2024-12-06-03-22-00/
     RDKit          3D

 20 20  0  0  0  0  0  0  0  0999 V2000
    1.1787   -8.0297    3.5154 C   0  0  0  0  0  0  0  0  0  0  0  0
    1.1048   -9.2215    3.2892 C   0  0  0  0  0  0  0  0  0  0  0  0
    1.4683  -10.2314    4.1915 C   0  0  0  0  0  0  0  0  0  0  0  0
    0.8445   -6.9865    2.5175 C   0  0  0  0  0  0  0  0  0  0  0  0
    0.3587   -7.3973    1.3953 C   0  0  0  0  0  0  0  0  0  0  0  0
    0.1901   -8.6971    1.0711 C   0  0  0  0  0  0  0  0  0  0  0  0
    0.5759   -9.6647    1.9442 C   0  0  0  0  0  0  0  0  0  0  0  0
    2.7321  -10.4989    4.4285 C   0  0  0  0  0  0  0  0  0  0  0  0
   -0.0744   -6.4873    0.4091 O   0  0  0  0  0  0  0  0  0  0  0  0
    0.4382  -10.9559    4.7682 C   0  0  0  0  0  0  0  0  0  0  0  0
    3.1271  -11.5453    5.0344 O   0  0  0  0  0  0  0  0  0  0  0  0
    1.0279   -5.5697    2.8754 Cl  0  0  0  0  0  0  0  0  0  0  0  0
   -0.8334  -10.5599    4.5003 O   0  0  0  0  0  0  0  0  0  0  0  0
    3.6473   -9.6475    4.3336 O   0  0  0  0  0  0  0  0  0  0  0  0
    0.6727  -12.0951    5.2061 O   0  0  0  0  0  0  0  0  0  0  0  0
   -0.3345   -9.1554   -0.1778 C   0  0  0  0  0  0  0  0  0  0  0  0
   -1.3474   -9.7512   -0.3174 O   0  0  0  0  0  0  0  0  0  0  0  0
    0.6136   -9.2244   -1.2393 O   0  0  0  0  0  0  0  0  0  0  0  0
   -1.4330   -6.0812    0.4508 C   0  0  0  0  0  0  0  0  0  0  0  0
   -1.8848   -5.5257   -0.6542 C   0  0  0  0  0  0  0  0  0  0  0  0
  2  3  1  0
  3  8  1  0
  5  9  1  0
  3 10  1  0
  8 11  1  0
  4 12  1  0
 10 13  1  0
  8 14  2  0
 10 15  2  0
  6 16  1  0
 16 17  2  0
 16 18  1  0
  9 19  1  0
 19 20  1  0
  1  2  2  0
  2  7  1  0
  6  7  2  0
  5  6  1  0
  4  5  2  0
  1  4  1  0
M  END

$$$$
No_583-/export/home/yangzhenyu/potential_scad_32_flow//YTHDC2/2024-12-06-03-22-00/
     RDKit          3D

 19 19  0  0  1  0  0  0  0  0999 V2000
    1.1787   -8.0297    3.5154 C   0  0  0  0  0  0  0  0  0  0  0  0
    1.0491   -6.8434    2.9820 C   0  0  1  0  0  0  0  0  0  0  0  0
    1.9985   -8.9840    2.8958 C   0  0  2  0  0  0  0  0  0  0  0  0
    1.7297   -9.2108    1.6335 C   0  0  0  0  0  0  0  0  0  0  0  0
    1.7343   -8.0566    0.8408 C   0  0  1  0  0  0  0  0  0  0  0  0
    1.0269   -6.8892    1.4456 C   0  0  0  0  0  0  0  0  0  0  0  0
    2.4114   -7.8399   -0.2028 C   0  0  0  0  0  0  0  0  0  0  0  0
    1.9539  -10.3659    3.6022 C   0  0  0  0  0  0  0  0  0  0  0  0
    1.1532  -11.2983    3.3285 O   0  0  0  0  0  0  0  0  0  0  0  0
    3.0112  -10.6120    4.4435 O   0  0  0  0  0  0  0  0  0  0  0  0
    2.3256   -8.6375   -1.2876 C   0  0  0  0  0  0  0  0  0  0  0  0
    3.4324   -9.3738   -1.7559 O   0  0  0  0  0  0  0  0  0  0  0  0
    1.1903   -9.2147   -1.4993 O   0  0  0  0  0  0  0  0  0  0  0  0
    1.1366   -5.6087    0.8533 O   0  0  0  0  0  0  0  0  0  0  0  0
    0.7125   -5.7714    3.5392 F   0  0  0  0  0  0  0  0  0  0  0  0
    0.0188   -8.4139   -1.6719 C   0  0  0  0  0  0  0  0  0  0  0  0
   -0.6265   -8.3008   -2.7977 C   0  0  0  0  0  0  0  0  0  0  0  0
   -1.4802   -7.2125   -2.9162 C   0  0  0  0  0  0  0  0  0  0  0  0
   -2.1507   -6.8269   -1.7664 C   0  0  0  0  0  0  0  0  0  0  0  0
  1  2  1  0
  1  3  1  0
  3  4  1  0
  4  5  1  0
  2  6  1  0
  5  6  1  0
  5  7  1  1
  3  8  1  1
  8  9  2  0
  8 10  1  0
  7 11  1  0
 11 12  2  0
 11 13  1  0
  6 14  2  0
  2 15  1  1
 13 16  1  0
 16 17  1  0
 17 18  2  3
 18 19  1  0
M  END

$$$$
No_584-/export/home/yangzhenyu/potential_scad_32_flow//YTHDC2/2024-12-06-03-22-00/
     RDKit          3D

 20 20  0  0  0  0  0  0  0  0999 V2000
    1.1787   -8.0297    3.5154 C   0  0  0  0  0  0  0  0  0  0  0  0
    1.0491   -6.8434    2.9820 C   0  0  0  0  0  0  0  0  0  0  0  0
    1.9985   -8.9840    2.8958 C   0  0  0  0  0  0  0  0  0  0  0  0
    1.9135  -10.3404    3.6266 C   0  0  0  0  0  0  0  0  0  0  0  0
    1.3291  -11.3908    3.0222 C   0  0  0  0  0  0  0  0  0  0  0  0
    1.2749  -12.5326    3.7562 C   0  0  0  0  0  0  0  0  0  0  0  0
    1.8025   -5.7637    3.3237 O   0  0  0  0  0  0  0  0  0  0  0  0
    0.6993  -13.6777    3.1480 C   0  0  0  0  0  0  0  0  0  0  0  0
    0.4312  -13.6502    1.8454 C   0  0  0  0  0  0  0  0  0  0  0  0
    0.6474  -12.6281    1.0768 C   0  0  0  0  0  0  0  0  0  0  0  0
    1.1387  -11.4640    1.6116 C   0  0  0  0  0  0  0  0  0  0  0  0
    0.2701   -6.5293    1.9614 O   0  0  0  0  0  0  0  0  0  0  0  0
    1.3472  -10.4142    0.7595 C   0  0  0  0  0  0  0  0  0  0  0  0
    0.2572   -9.8624    0.1900 O   0  0  0  0  0  0  0  0  0  0  0  0
    2.4898  -10.0235    0.2655 O   0  0  0  0  0  0  0  0  0  0  0  0
    0.5260  -14.8431    3.9076 O   0  0  0  0  0  0  0  0  0  0  0  0
    0.0981  -16.0618    3.5732 C   0  0  0  0  0  0  0  0  0  0  0  0
    2.5894  -10.3612    4.7620 O   0  0  0  0  0  0  0  0  0  0  0  0
    0.6583  -16.9962    4.3393 C   0  0  0  0  0  0  0  0  0  0  0  0
    1.7984  -17.6650    3.8818 O   0  0  0  0  0  0  0  0  0  0  0  0
  1  2  1  0
  1  3  1  0
  3  4  1  0
  4  5  1  0
  2  7  1  0
  2 12  2  0
 11 13  1  0
 13 14  2  0
 13 15  1  0
  8 16  1  0
 16 17  1  0
  4 18  2  0
 17 19  1  0
 19 20  2  0
  5  6  2  0
  6  8  1  0
  8  9  2  0
  9 10  1  0
 10 11  2  0
  5 11  1  0
M  END

$$$$
No_585-/export/home/yangzhenyu/potential_scad_32_flow//YTHDC2/2024-12-06-03-22-00/
     RDKit          3D

 16 16  0  0  0  0  0  0  0  0999 V2000
    1.1787   -8.0297    3.5154 C   0  0  0  0  0  0  0  0  0  0  0  0
    1.1048   -9.2215    3.2892 C   0  0  0  0  0  0  0  0  0  0  0  0
    1.2339   -9.7611    2.0189 C   0  0  0  0  0  0  0  0  0  0  0  0
    1.3583   -9.0036    0.9764 C   0  0  0  0  0  0  0  0  0  0  0  0
    1.5996   -7.6362    1.1311 C   0  0  0  0  0  0  0  0  0  0  0  0
    1.4830   -7.0928    2.3626 C   0  0  0  0  0  0  0  0  0  0  0  0
    1.5395   -5.7300    2.6182 C   0  0  0  0  0  0  0  0  0  0  0  0
    1.1775  -11.2233    1.8407 C   0  0  0  0  0  0  0  0  0  0  0  0
    0.7252  -11.5870    0.5412 O   0  0  0  0  0  0  0  0  0  0  0  0
    0.6928  -11.9740    2.7568 O   0  0  0  0  0  0  0  0  0  0  0  0
    1.2734   -4.8009    1.7015 O   0  0  0  0  0  0  0  0  0  0  0  0
    2.1022   -5.1057    3.7203 O   0  0  0  0  0  0  0  0  0  0  0  0
    1.4818   -9.3828   -0.3751 C   0  0  0  0  0  0  0  0  0  0  0  0
    1.5501   -8.6281   -1.3270 P   0  0  0  0  0  0  0  0  0  0  0  0
    1.0957   -7.2038   -0.9703 O   0  0  0  0  0  0  0  0  0  0  0  0
    1.6635   -8.8519   -2.4535 O   0  0  0  0  0  0  0  0  0  0  0  0
  6  7  1  0
  3  8  1  0
  8  9  1  0
  8 10  2  0
  7 11  2  0
  7 12  1  0
  4 13  1  0
 13 14  1  0
 14 15  1  0
 14 16  1  0
  1  2  2  0
  2  3  1  0
  3  4  2  0
  4  5  1  0
  5  6  2  0
  1  6  1  0
M  END

$$$$
No_586-/export/home/yangzhenyu/potential_scad_32_flow//YTHDC2/2024-12-06-03-22-00/
     RDKit          3D

 18 17  0  0  0  0  0  0  0  0999 V2000
    1.1787   -8.0297    3.5154 C   0  0  0  0  0  0  0  0  0  0  0  0
    1.0491   -6.8434    2.9820 C   0  0  0  0  0  0  0  0  0  0  0  0
    1.9985   -8.9840    2.8958 C   0  0  0  0  0  0  0  0  0  0  0  0
    1.9135  -10.3404    3.6266 C   0  0  0  0  0  0  0  0  0  0  0  0
    2.2847  -10.5440    4.7936 O   0  0  0  0  0  0  0  0  0  0  0  0
    1.5992  -11.4789    2.9217 S   0  0  0  0  0  0  0  0  0  0  0  0
    1.7706   -5.7794    3.3299 O   0  0  0  0  0  0  0  0  0  0  0  0
    1.3079  -11.1043    1.3636 C   0  0  0  0  0  0  0  0  0  0  0  0
    1.9139  -10.1280    0.6562 C   0  0  0  0  0  0  0  0  0  0  0  0
    1.7024   -9.8574   -0.6340 C   0  0  0  0  0  0  0  0  0  0  0  0
    2.1247   -8.6235   -1.2912 C   0  0  0  0  0  0  0  0  0  0  0  0
    0.0332   -6.5240    2.1359 O   0  0  0  0  0  0  0  0  0  0  0  0
    0.5888  -11.9481    0.5238 O   0  0  0  0  0  0  0  0  0  0  0  0
    1.6223   -7.4964   -1.1553 O   0  0  0  0  0  0  0  0  0  0  0  0
    3.2856   -8.7204   -1.8464 O   0  0  0  0  0  0  0  0  0  0  0  0
    0.2730  -12.2164    3.3957 O   0  0  0  0  0  0  0  0  0  0  0  0
    2.6560  -12.5867    2.8722 O   0  0  0  0  0  0  0  0  0  0  0  0
    1.1410   -4.8548    4.2284 C   0  0  0  0  0  0  0  0  0  0  0  0
  1  2  1  0
  1  3  1  0
  3  4  1  0
  4  5  2  0
  4  6  1  0
  2  7  1  0
  6  8  1  0
  8  9  1  0
  9 10  2  3
 10 11  1  0
  2 12  2  0
  8 13  2  0
 11 14  1  0
 11 15  2  0
  6 16  2  0
  6 17  2  0
  7 18  1  0
M  END

$$$$
No_587-/export/home/yangzhenyu/potential_scad_32_flow//YTHDC2/2024-12-06-03-22-00/
     RDKit          3D

 20 21  0  0  1  0  0  0  0  0999 V2000
    1.1787   -8.0297    3.5154 C   0  0  0  0  0  0  0  0  0  0  0  0
    1.0491   -6.8434    2.9820 C   0  0  0  0  0  0  0  0  0  0  0  0
    0.0950   -8.8404    3.2292 C   0  0  0  0  0  0  0  0  0  0  0  0
   -0.9173   -8.4596    2.5152 C   0  0  0  0  0  0  0  0  0  0  0  0
   -1.0331   -7.2162    2.0653 C   0  0  0  0  0  0  0  0  0  0  0  0
   -0.0105   -6.3168    2.3081 C   0  0  0  0  0  0  0  0  0  0  0  0
    0.1465  -10.2446    3.6981 C   0  0  0  0  0  0  0  0  0  0  0  0
   -1.0337  -10.8619    3.9439 O   0  0  0  0  0  0  0  0  0  0  0  0
    1.1753  -10.7254    4.5024 N   0  0  0  0  0  0  0  0  0  0  0  0
    1.3526  -12.0618    4.6515 O   0  0  0  0  0  0  0  0  0  0  0  0
   -0.0193   -4.8198    1.7164 C   0  0  2  0  0  0  0  0  0  0  0  0
   -0.9021   -4.0002    2.2114 C   0  0  2  0  0  0  0  0  0  0  0  0
   -0.7049   -2.7139    1.7535 C   0  0  0  0  0  0  0  0  0  0  0  0
    0.1255   -2.3512    0.7682 C   0  0  1  0  0  0  0  0  0  0  0  0
    0.9121   -3.2941    0.1434 C   0  0  0  0  0  0  0  0  0  0  0  0
    0.9020   -4.5875    0.6798 C   0  0  0  0  0  0  0  0  0  0  0  0
    0.1942   -1.0296    0.1243 Cl  0  0  0  0  0  0  0  0  0  0  0  0
   -1.7699   -4.2322    3.2460 Cl  0  0  0  0  0  0  0  0  0  0  0  0
    1.6684   -5.5068    0.4001 O   0  0  0  0  0  0  0  0  0  0  0  0
    2.2054   -5.8867    3.2699 O   0  0  0  0  0  0  0  0  0  0  0  0
  3  7  1  0
  7  8  2  0
  7  9  1  0
  9 10  2  0
 11  6  1  6
 11 12  1  0
 13 14  1  0
 11 16  1  0
 15 16  1  0
 14 17  1  6
 12 18  1  1
 16 19  2  0
  2 20  1  0
 12 13  1  0
 14 15  1  0
  1  2  2  0
  2  6  1  0
  5  6  2  0
  4  5  1  0
  3  4  2  0
  1  3  1  0
M  END

$$$$
No_588-/export/home/yangzhenyu/potential_scad_32_flow//YTHDC2/2024-12-06-03-22-00/
     RDKit          3D

 17 17  0  0  1  0  0  0  0  0999 V2000
    1.1787   -8.0297    3.5154 C   0  0  2  0  0  0  0  0  0  0  0  0
    1.1048   -9.2215    3.2892 C   0  0  0  0  0  0  0  0  0  0  0  0
    1.3627  -10.1721    4.3044 C   0  0  0  0  0  0  0  0  0  0  0  0
    1.7354  -11.4730    3.9023 C   0  0  0  0  0  0  0  0  0  0  0  0
    1.8080  -11.8127    2.7216 C   0  0  0  0  0  0  0  0  0  0  0  0
    1.5854  -11.0021    1.7249 C   0  0  0  0  0  0  0  0  0  0  0  0
    1.3573   -9.7389    1.9287 C   0  0  0  0  0  0  0  0  0  0  0  0
    1.1102   -8.8712    0.9017 C   0  0  0  0  0  0  0  0  0  0  0  0
    1.5724   -9.1697   -0.3048 O   0  0  0  0  0  0  0  0  0  0  0  0
    0.8071   -7.5472    0.9953 O   0  0  0  0  0  0  0  0  0  0  0  0
    2.0866  -13.2063    2.3149 C   0  0  0  0  0  0  0  0  0  0  0  0
    1.2037  -14.0546    1.6991 O   0  0  0  0  0  0  0  0  0  0  0  0
    2.9637  -13.9538    2.9440 O   0  0  0  0  0  0  0  0  0  0  0  0
    0.1075   -7.2187    3.5003 F   0  0  0  0  0  0  0  0  0  0  0  0
    2.0956   -7.0616    2.7240 Br  0  0  0  0  0  0  0  0  0  0  0  0
   -0.6672   -7.5516    0.3613 C   0  0  0  0  0  0  0  0  0  0  0  0
   -1.3853   -6.3783    0.4250 C   0  0  0  0  0  0  0  0  0  0  0  0
  1  2  1  0
  7  8  1  0
  8  9  2  0
  8 10  1  0
  5 11  1  0
 11 12  2  0
 11 13  1  0
  1 14  1  6
  1 15  1  0
 10 16  1  0
 16 17  1  0
  2  3  2  0
  3  4  1  0
  4  5  2  0
  5  6  1  0
  6  7  2  0
  2  7  1  0
M  END

$$$$
No_589-/export/home/yangzhenyu/potential_scad_32_flow//YTHDC2/2024-12-06-03-22-00/
     RDKit          3D

 20 21  0  0  1  0  0  0  0  0999 V2000
    1.1787   -8.0297    3.5154 C   0  0  0  0  0  0  0  0  0  0  0  0
    1.0491   -6.8434    2.9820 C   0  0  0  0  0  0  0  0  0  0  0  0
    0.0950   -8.8404    3.2292 C   0  0  0  0  0  0  0  0  0  0  0  0
   -0.9173   -8.4596    2.5152 C   0  0  0  0  0  0  0  0  0  0  0  0
   -1.0331   -7.2162    2.0653 C   0  0  0  0  0  0  0  0  0  0  0  0
   -0.0105   -6.3168    2.3081 C   0  0  0  0  0  0  0  0  0  0  0  0
    0.1150   -4.9910    1.8495 C   0  0  0  0  0  0  0  0  0  0  0  0
   -0.5774   -4.1593    2.0596 O   0  0  0  0  0  0  0  0  0  0  0  0
    1.3665   -4.5425    1.2260 O   0  0  0  0  0  0  0  0  0  0  0  0
    0.1563  -10.2873    3.6555 C   0  0  2  0  0  0  0  0  0  0  0  0
   -1.0545  -10.9681    3.8002 C   0  0  0  0  0  0  0  0  0  0  0  0
    1.3407  -10.8239    4.3206 C   0  0  0  0  0  0  0  0  0  0  0  0
    1.4771  -12.1395    4.4426 C   0  0  0  0  0  0  0  0  0  0  0  0
   -0.9605  -12.3372    4.0034 C   0  0  2  0  0  0  0  0  0  0  0  0
    0.3622  -12.9394    4.2309 C   0  0  0  0  0  0  0  0  0  0  0  0
    0.5130  -14.2674    4.2004 O   0  0  0  0  0  0  0  0  0  0  0  0
   -2.0551  -13.0976    3.8749 C   0  0  0  0  0  0  0  0  0  0  0  0
   -2.0847  -14.2934    3.2399 O   0  0  0  0  0  0  0  0  0  0  0  0
   -3.2773  -12.5820    4.1605 O   0  0  0  0  0  0  0  0  0  0  0  0
   -2.2104   -6.7649    1.3892 C   0  0  0  0  0  0  0  0  0  0  0  0
  6  7  1  0
  7  8  2  0
  7  9  1  0
 10  3  1  1
 10 12  1  0
 11 14  1  0
 13 15  1  0
 14 15  1  0
 15 16  2  0
 14 17  1  6
 17 18  2  0
 17 19  1  0
  5 20  1  0
 12 13  1  0
 10 11  1  0
  1  2  2  0
  2  6  1  0
  5  6  2  0
  4  5  1  0
  3  4  2  0
  1  3  1  0
M  END

$$$$
No_590-/export/home/yangzhenyu/potential_scad_32_flow//YTHDC2/2024-12-06-03-22-00/
     RDKit          3D

 19 20  0  0  1  0  0  0  0  0999 V2000
    1.1787   -8.0297    3.5154 C   0  0  0  0  0  0  0  0  0  0  0  0
    1.0491   -6.8434    2.9820 C   0  0  0  0  0  0  0  0  0  0  0  0
    0.0950   -8.8404    3.2292 C   0  0  0  0  0  0  0  0  0  0  0  0
   -0.7663   -8.2602    2.4375 C   0  0  0  0  0  0  0  0  0  0  0  0
   -0.7437   -6.9718    1.9778 C   0  0  0  0  0  0  0  0  0  0  0  0
    0.2554   -6.2202    2.2855 C   0  0  0  0  0  0  0  0  0  0  0  0
    0.3834   -4.8695    1.8944 C   0  0  0  0  0  0  0  0  0  0  0  0
    0.0508  -10.3896    3.6475 C   0  0  2  0  0  0  0  0  0  0  0  0
   -1.1831  -10.9101    3.7106 C   0  0  0  0  0  0  0  0  0  0  0  0
    1.2007  -10.9229    4.2307 C   0  0  0  0  0  0  0  0  0  0  0  0
    1.1426  -12.2849    4.3952 C   0  0  0  0  0  0  0  0  0  0  0  0
   -1.1914  -12.2541    3.9282 C   0  0  0  0  0  0  0  0  0  0  0  0
    0.0506  -12.9152    4.2088 C   0  0  2  0  0  0  0  0  0  0  0  0
    0.3767   -4.7024    0.5701 O   0  0  0  0  0  0  0  0  0  0  0  0
    0.6905   -3.8611    2.7057 O   0  0  0  0  0  0  0  0  0  0  0  0
    0.0125  -14.2723    4.3877 Br  0  0  0  0  0  0  0  0  0  0  0  0
   -2.3535  -12.8600    3.8396 O   0  0  0  0  0  0  0  0  0  0  0  0
   -1.9890   -6.5546    1.3704 C   0  0  0  0  0  0  0  0  0  0  0  0
   -3.0313   -6.0747    2.0868 N   0  0  0  0  0  0  0  0  0  0  0  0
  6  7  1  0
  8  3  1  1
  8 10  1  0
  9 12  1  0
 11 13  1  0
 12 13  1  0
  7 14  2  0
  7 15  1  0
 13 16  1  1
 12 17  2  0
  5 18  1  0
 18 19  1  0
  8  9  1  0
 10 11  1  0
  1  2  2  0
  2  6  1  0
  5  6  2  0
  4  5  1  0
  3  4  2  0
  1  3  1  0
M  END

$$$$
No_591-/export/home/yangzhenyu/potential_scad_32_flow//YTHDC2/2024-12-06-03-22-00/
     RDKit          3D

 21 22  0  0  1  0  0  0  0  0999 V2000
    1.1787   -8.0297    3.5154 C   0  0  0  0  0  0  0  0  0  0  0  0
    1.1048   -9.2215    3.2892 C   0  0  0  0  0  0  0  0  0  0  0  0
    1.3627  -10.1721    4.3044 C   0  0  0  0  0  0  0  0  0  0  0  0
    1.0682  -11.5187    4.0618 C   0  0  0  0  0  0  0  0  0  0  0  0
    0.6332  -11.9655    2.9682 C   0  0  0  0  0  0  0  0  0  0  0  0
    0.4776  -11.1308    1.9203 C   0  0  0  0  0  0  0  0  0  0  0  0
    0.7470   -9.8274    2.0368 C   0  0  0  0  0  0  0  0  0  0  0  0
    1.0387   -7.0301    2.5175 N   0  0  0  0  0  0  0  0  0  0  0  0
    0.9298   -7.5514    1.2672 C   0  0  0  0  0  0  0  0  0  0  0  0
    0.7824   -8.7713    0.9713 C   0  0  0  0  0  0  0  0  0  0  0  0
    0.6486   -9.2285   -0.2792 C   0  0  0  0  0  0  0  0  0  0  0  0
    0.0394   -8.6365   -1.0803 O   0  0  0  0  0  0  0  0  0  0  0  0
    0.4754  -13.5975    2.6485 O   0  0  0  0  0  0  0  0  0  0  0  0
    1.3265  -14.1816    1.8767 C   0  0  1  0  0  0  0  0  0  0  0  0
    0.7999  -10.4332   -0.6754 O   0  0  0  0  0  0  0  0  0  0  0  0
    1.7470  -13.6717    0.9834 C   0  0  0  0  0  0  0  0  0  0  0  0
    2.3084  -14.9161    2.8259 C   0  0  0  0  0  0  0  0  0  0  0  0
    2.4303  -16.3398    2.3970 O   0  0  0  0  0  0  0  0  0  0  0  0
    3.0968  -13.0703    0.9373 O   0  0  0  0  0  0  0  0  0  0  0  0
    1.2488  -13.8719   -0.1961 O   0  0  0  0  0  0  0  0  0  0  0  0
    1.5917  -17.3308    2.6148 C   0  0  0  0  0  0  0  0  0  0  0  0
 10 11  1  0
 11 12  2  0
  5 13  1  0
 13 14  1  0
 11 15  1  0
 14 16  1  0
 14 17  1  1
 17 18  1  0
 16 19  2  0
 16 20  1  0
 18 21  1  0
  2  3  1  0
  3  4  2  0
  4  5  1  0
  5  6  2  0
  6  7  1  0
  1  2  2  0
  2  7  1  0
  7 10  2  0
  9 10  1  0
  8  9  2  0
  1  8  1  0
M  END

$$$$
No_592-/export/home/yangzhenyu/potential_scad_32_flow//YTHDC2/2024-12-06-03-22-00/
     RDKit          3D

 17 18  0  0  0  0  0  0  0  0999 V2000
    1.1787   -8.0297    3.5154 C   0  0  0  0  0  0  0  0  0  0  0  0
    1.0491   -6.8434    2.9820 C   0  0  0  0  0  0  0  0  0  0  0  0
    1.9985   -8.9840    2.8958 C   0  0  0  0  0  0  0  0  0  0  0  0
    1.7297   -9.2108    1.6335 C   0  0  0  0  0  0  0  0  0  0  0  0
    1.7343   -8.0566    0.8408 C   0  0  0  0  0  0  0  0  0  0  0  0
    1.0269   -6.8892    1.4456 C   0  0  0  0  0  0  0  0  0  0  0  0
    2.0740   -7.9416   -0.3682 O   0  0  0  0  0  0  0  0  0  0  0  0
    2.2757  -10.2253    3.6437 C   0  0  0  0  0  0  0  0  0  0  0  0
    1.8809  -11.2592    3.7161 N   0  0  0  0  0  0  0  0  0  0  0  0
    3.5698  -10.1937    4.4799 N   0  0  0  0  0  0  0  0  0  0  0  0
    2.3631  -10.2256    0.7779 O   0  0  0  0  0  0  0  0  0  0  0  0
    3.6498  -11.3243    5.0810 N   0  0  0  0  0  0  0  0  0  0  0  0
    2.6023  -11.9563    4.5717 N   0  0  0  0  0  0  0  0  0  0  0  0
    0.7956   -5.6637    3.4922 O   0  0  0  0  0  0  0  0  0  0  0  0
    0.8751   -5.7334    0.8457 O   0  0  0  0  0  0  0  0  0  0  0  0
    0.5650   -8.1118    4.5800 O   0  0  0  0  0  0  0  0  0  0  0  0
    4.7127  -11.4288    5.8463 C   0  0  0  0  0  0  0  0  0  0  0  0
  1  2  1  0
  1  3  1  0
  3  4  1  0
  4  5  1  0
  2  6  1  0
  5  6  1  0
  5  7  2  0
  3  8  1  0
  8  9  2  0
  8 10  1  0
  4 11  2  0
 10 12  1  0
  9 13  1  0
 12 13  1  0
  2 14  2  0
  6 15  2  0
  1 16  2  0
 12 17  1  0
M  END

$$$$
No_593-/export/home/yangzhenyu/potential_scad_32_flow//YTHDC2/2024-12-06-03-22-00/
     RDKit          3D

 18 18  0  0  1  0  0  0  0  0999 V2000
    1.1787   -8.0297    3.5154 C   0  0  0  0  0  0  0  0  0  0  0  0
    1.1048   -9.2215    3.2892 C   0  0  0  0  0  0  0  0  0  0  0  0
    1.3627  -10.1721    4.3044 C   0  0  2  0  0  0  0  0  0  0  0  0
    2.3720  -10.8948    4.2468 C   0  0  0  0  0  0  0  0  0  0  0  0
    1.0579   -7.0441    2.4219 C   0  0  0  0  0  0  0  0  0  0  0  0
    0.8578   -7.4970    1.1686 C   0  0  0  0  0  0  0  0  0  0  0  0
    0.7382   -8.7683    0.8754 C   0  0  0  0  0  0  0  0  0  0  0  0
    0.8882   -9.7347    1.9238 C   0  0  0  0  0  0  0  0  0  0  0  0
    0.9437  -11.0299    1.7005 C   0  0  0  0  0  0  0  0  0  0  0  0
    1.9466  -11.5929    1.1835 F   0  0  0  0  0  0  0  0  0  0  0  0
   -0.0350  -11.8046    1.7949 O   0  0  0  0  0  0  0  0  0  0  0  0
    1.1995   -5.6007    2.6877 Cl  0  0  0  0  0  0  0  0  0  0  0  0
    2.5671  -11.9653    3.8499 C   0  0  0  0  0  0  0  0  0  0  0  0
    3.5062  -10.3891    5.2426 C   0  0  0  0  0  0  0  0  0  0  0  0
    4.3458  -10.7701    5.6702 N   0  0  0  0  0  0  0  0  0  0  0  0
    4.9802  -10.4581    6.7287 C   0  0  0  0  0  0  0  0  0  0  0  0
    0.5694   -9.2899   -0.4136 O   0  0  0  0  0  0  0  0  0  0  0  0
    0.3215  -10.4202    5.0601 C   0  0  0  0  0  0  0  0  0  0  0  0
  2  3  1  0
  3  4  1  0
  8  9  1  0
  9 10  1  0
  9 11  2  0
  5 12  1  0
  4 13  2  0
  4 14  1  0
 14 15  2  3
 15 16  1  0
  7 17  1  0
  3 18  1  6
  1  2  2  0
  2  8  1  0
  7  8  2  0
  6  7  1  0
  5  6  2  0
  1  5  1  0
M  END

$$$$
No_594-/export/home/yangzhenyu/potential_scad_32_flow//YTHDC2/2024-12-06-03-22-00/
     RDKit          3D

 19 19  0  0  1  0  0  0  0  0999 V2000
    1.1787   -8.0297    3.5154 C   0  0  0  0  0  0  0  0  0  0  0  0
    1.1048   -9.2215    3.2892 C   0  0  0  0  0  0  0  0  0  0  0  0
    1.2339   -9.7611    2.0189 C   0  0  0  0  0  0  0  0  0  0  0  0
    1.3583   -9.0036    0.9764 C   0  0  1  0  0  0  0  0  0  0  0  0
    1.5996   -7.6362    1.1311 F   0  0  0  0  0  0  0  0  0  0  0  0
    1.7898   -9.4915   -0.2758 C   0  0  0  0  0  0  0  0  0  0  0  0
    1.8708  -10.6728   -0.4111 O   0  0  0  0  0  0  0  0  0  0  0  0
    1.8390   -8.6863   -1.3074 O   0  0  0  0  0  0  0  0  0  0  0  0
    1.0718  -11.1913    1.9682 C   0  0  0  0  0  0  0  0  0  0  0  0
   -0.0888  -11.6746    1.4884 C   0  0  0  0  0  0  0  0  0  0  0  0
   -0.0292  -13.0913    1.1185 N   0  0  0  0  0  0  0  0  0  0  0  0
    0.9095  -13.8297    1.6581 C   0  0  2  0  0  0  0  0  0  0  0  0
    2.1058  -13.3199    2.1934 C   0  0  0  0  0  0  0  0  0  0  0  0
    2.1309  -11.9791    2.3582 C   0  0  0  0  0  0  0  0  0  0  0  0
    0.8981  -15.1709    1.3174 C   0  0  0  0  0  0  0  0  0  0  0  0
    1.8269  -16.0566    1.8616 O   0  0  0  0  0  0  0  0  0  0  0  0
    0.0805  -15.7309    0.5417 N   0  0  0  0  0  0  0  0  0  0  0  0
   -1.1613  -11.0480    1.2861 O   0  0  0  0  0  0  0  0  0  0  0  0
    0.0622  -17.1468    0.2511 C   0  0  0  0  0  0  0  0  0  0  0  0
  1  2  1  0
  2  3  2  3
  3  4  1  0
  4  5  1  1
  4  6  1  0
  6  7  1  0
  6  8  2  0
  3  9  1  0
  9 10  1  0
 10 11  1  0
 11 12  1  0
 12 13  1  0
  9 14  1  0
 13 14  1  0
 12 15  1  6
 15 16  2  0
 15 17  1  0
 10 18  2  0
 17 19  1  0
M  END

$$$$
No_595-/export/home/yangzhenyu/potential_scad_32_flow//YTHDC2/2024-12-06-03-22-00/
     RDKit          3D

 19 18  0  0  1  0  0  0  0  0999 V2000
    1.1787   -8.0297    3.5154 Br  0  0  0  0  0  0  0  0  0  0  0  0
    0.6869   -7.2306    2.5437 C   0  0  1  0  0  0  0  0  0  0  0  0
    0.3636   -5.8926    2.7538 C   0  0  0  0  0  0  0  0  0  0  0  0
    1.3759   -4.8999    2.8913 C   0  0  0  0  0  0  0  0  0  0  0  0
    0.6879   -7.5787    1.1650 C   0  0  2  0  0  0  0  0  0  0  0  0
    1.6627   -8.2257    0.5660 C   0  0  0  0  0  0  0  0  0  0  0  0
    1.4259   -9.4348   -0.1513 C   0  0  0  0  0  0  0  0  0  0  0  0
    2.1112  -10.3965    0.0631 O   0  0  0  0  0  0  0  0  0  0  0  0
    0.3139   -9.5863   -0.7739 O   0  0  0  0  0  0  0  0  0  0  0  0
    0.9716   -3.5587    2.5605 O   0  0  0  0  0  0  0  0  0  0  0  0
    0.8628   -3.0855    1.4061 C   0  0  1  0  0  0  0  0  0  0  0  0
    1.8078   -2.3757    0.9209 C   0  0  0  0  0  0  0  0  0  0  0  0
    2.7835   -2.0905    1.8896 O   0  0  0  0  0  0  0  0  0  0  0  0
    1.9389   -1.7732   -0.1366 O   0  0  0  0  0  0  0  0  0  0  0  0
   -0.1656   -3.4317    0.6683 Cl  0  0  0  0  0  0  0  0  0  0  0  0
    0.0246   -6.6129    0.2849 O   0  0  0  0  0  0  0  0  0  0  0  0
   -1.3586   -7.0513    0.0040 C   0  0  0  0  0  0  0  0  0  0  0  0
   -1.7781   -6.6418   -1.1829 O   0  0  0  0  0  0  0  0  0  0  0  0
   -2.2429   -7.2281    0.9634 O   0  0  0  0  0  0  0  0  0  0  0  0
  2  1  1  6
  2  3  1  0
  3  4  1  0
  2  5  1  0
  5  6  1  6
  6  7  1  0
  7  8  1  0
  7  9  2  0
  4 10  1  0
 10 11  1  0
 11 12  1  0
 12 13  1  0
 12 14  2  0
 11 15  1  6
  5 16  1  0
 16 17  1  0
 17 18  2  0
 17 19  1  0
M  END

$$$$
No_596-/export/home/yangzhenyu/potential_scad_32_flow//YTHDC2/2024-12-06-03-22-00/
     RDKit          3D

 19 19  0  0  1  0  0  0  0  0999 V2000
    1.1787   -8.0297    3.5154 C   0  0  0  0  0  0  0  0  0  0  0  0
    1.0491   -6.8434    2.9820 C   0  0  0  0  0  0  0  0  0  0  0  0
    0.9905   -9.0774    2.6527 C   0  0  0  0  0  0  0  0  0  0  0  0
    0.7897   -8.9519    1.3691 C   0  0  0  0  0  0  0  0  0  0  0  0
    0.7018   -7.7198    0.7892 C   0  0  0  0  0  0  0  0  0  0  0  0
    0.8918   -6.5957    1.6117 C   0  0  0  0  0  0  0  0  0  0  0  0
    1.0711  -10.4814    3.2282 C   0  0  2  0  0  0  0  0  0  0  0  0
   -0.1055  -11.1328    3.5223 C   0  0  0  0  0  0  0  0  0  0  0  0
   -0.7419  -11.5628    2.6150 N   0  0  0  0  0  0  0  0  0  0  0  0
   -2.0187  -11.3999    2.4567 C   0  0  0  0  0  0  0  0  0  0  0  0
   -2.6537  -10.4460    3.3047 O   0  0  0  0  0  0  0  0  0  0  0  0
   -2.8409  -11.9840    1.5328 C   0  0  0  0  0  0  0  0  0  0  0  0
    0.8760   -5.2869    1.1339 Cl  0  0  0  0  0  0  0  0  0  0  0  0
    2.3802  -10.9371    3.4484 C   0  0  0  0  0  0  0  0  0  0  0  0
    2.5206  -12.0555    4.1650 O   0  0  0  0  0  0  0  0  0  0  0  0
   -2.5714  -13.3064    1.4332 C   0  0  0  0  0  0  0  0  0  0  0  0
   -1.8129  -13.7725    0.4341 C   0  0  0  0  0  0  0  0  0  0  0  0
   -1.7522  -13.1212   -0.7459 C   0  0  0  0  0  0  0  0  0  0  0  0
   -2.1549  -11.7520   -0.7883 Cl  0  0  0  0  0  0  0  0  0  0  0  0
  3  7  1  0
  7  8  1  1
  8  9  1  0
  9 10  1  0
 10 11  2  0
 10 12  1  0
  6 13  1  0
  7 14  1  0
 14 15  2  0
 12 16  1  0
 16 17  1  0
 17 18  1  0
 18 19  1  0
  1  2  2  0
  2  6  1  0
  5  6  2  0
  4  5  1  0
  3  4  2  0
  1  3  1  0
M  END

$$$$
No_597-/export/home/yangzhenyu/potential_scad_32_flow//YTHDC2/2024-12-06-03-22-00/
     RDKit          3D

 19 19  0  0  1  0  0  0  0  0999 V2000
    1.1787   -8.0297    3.5154 O   0  0  0  0  0  0  0  0  0  0  0  0
    0.6747   -7.4019    2.7838 C   0  0  0  0  0  0  0  0  0  0  0  0
    0.5570   -6.0797    2.8560 C   0  0  1  0  0  0  0  0  0  0  0  0
    1.6734   -5.4651    3.4094 C   0  0  0  0  0  0  0  0  0  0  0  0
    1.3890   -9.4346    3.3337 C   0  0  0  0  0  0  0  0  0  0  0  0
    1.2051  -10.0658    2.2186 C   0  0  0  0  0  0  0  0  0  0  0  0
    1.3347  -11.4632    2.0946 C   0  0  0  0  0  0  0  0  0  0  0  0
    2.0053  -12.1089    3.1034 C   0  0  0  0  0  0  0  0  0  0  0  0
    2.2156  -11.5016    4.3514 C   0  0  0  0  0  0  0  0  0  0  0  0
    1.9396  -10.1346    4.4587 C   0  0  0  0  0  0  0  0  0  0  0  0
    2.2661  -13.7102    3.0582 N   0  0  0  0  0  0  0  0  0  0  0  0
    0.1571   -5.3322    1.5312 C   0  0  0  0  0  0  0  0  0  0  0  0
   -0.9908   -4.5837    1.7073 C   0  0  0  0  0  0  0  0  0  0  0  0
   -0.8396   -3.2636    1.8310 O   0  0  0  0  0  0  0  0  0  0  0  0
   -2.1575   -5.1309    1.9657 O   0  0  0  0  0  0  0  0  0  0  0  0
    2.3095  -14.3780    2.0624 C   0  0  0  0  0  0  0  0  0  0  0  0
    2.2091  -13.9962    0.9396 O   0  0  0  0  0  0  0  0  0  0  0  0
    2.5766  -15.8262    2.3251 I   0  0  0  0  0  0  0  0  0  0  0  0
    1.5921   -4.9712    4.5660 O   0  0  0  0  0  0  0  0  0  0  0  0
  1  2  1  0
  3  2  1  6
  3  4  1  0
  1  5  1  0
  8 11  1  0
  3 12  1  0
 12 13  1  0
 13 14  2  0
 13 15  1  0
 11 16  1  0
 16 17  2  0
 16 18  1  0
  4 19  1  0
  5  6  2  0
  6  7  1  0
  7  8  2  0
  8  9  1  0
  9 10  2  0
  5 10  1  0
M  END

$$$$
No_598-/export/home/yangzhenyu/potential_scad_32_flow//YTHDC2/2024-12-06-03-22-00/
     RDKit          3D

 19 19  0  0  1  0  0  0  0  0999 V2000
    1.1787   -8.0297    3.5154 C   0  0  0  0  0  0  0  0  0  0  0  0
    1.0491   -6.8434    2.9820 C   0  0  0  0  0  0  0  0  0  0  0  0
    0.9905   -9.0774    2.6527 C   0  0  0  0  0  0  0  0  0  0  0  0
    0.7897   -8.9519    1.3691 C   0  0  0  0  0  0  0  0  0  0  0  0
    0.7018   -7.7198    0.7892 C   0  0  0  0  0  0  0  0  0  0  0  0
    0.8918   -6.5957    1.6117 C   0  0  0  0  0  0  0  0  0  0  0  0
    1.0998  -10.4710    3.2437 C   0  0  1  0  0  0  0  0  0  0  0  0
    2.1917  -10.8879    3.7399 C   0  0  0  0  0  0  0  0  0  0  0  0
    0.8983   -5.2566    1.2088 N   0  0  0  0  0  0  0  0  0  0  0  0
   -0.0196  -11.2287    3.3701 C   0  0  0  0  0  0  0  0  0  0  0  0
   -1.1413  -10.5516    3.9541 O   0  0  0  0  0  0  0  0  0  0  0  0
   -0.2255  -12.3986    2.9923 N   0  0  0  0  0  0  0  0  0  0  0  0
    0.9779   -4.3166    2.2287 N   0  0  0  0  0  0  0  0  0  0  0  0
    2.2704  -11.4217    4.9585 O   0  0  0  0  0  0  0  0  0  0  0  0
    0.8388   -3.0603    1.6870 O   0  0  0  0  0  0  0  0  0  0  0  0
    0.9743  -13.0994    2.3458 C   0  0  0  0  0  0  0  0  0  0  0  0
    0.8091  -13.1608    0.9109 C   0  0  0  0  0  0  0  0  0  0  0  0
    0.1621  -12.2390    0.3917 C   0  0  0  0  0  0  0  0  0  0  0  0
   -1.0880  -12.3032    0.0778 C   0  0  0  0  0  0  0  0  0  0  0  0
  3  7  1  0
  7  8  1  1
  7 10  1  0
 10 11  2  0
 10 12  1  0
  9 13  1  0
  8 14  2  0
 13 15  2  0
 12 16  1  0
 16 17  1  0
 17 18  1  0
 18 19  1  0
  6  9  1  0
  1  2  2  0
  2  6  1  0
  5  6  2  0
  4  5  1  0
  3  4  2  0
  1  3  1  0
M  END

$$$$
No_599-/export/home/yangzhenyu/potential_scad_32_flow//YTHDC2/2024-12-06-03-22-00/
     RDKit          3D

 19 20  0  0  1  0  0  0  0  0999 V2000
    1.1787   -8.0297    3.5154 C   0  0  0  0  0  0  0  0  0  0  0  0
    1.1048   -9.2215    3.2892 C   0  0  1  0  0  0  0  0  0  0  0  0
    1.2339   -9.7611    2.0189 C   0  0  0  0  0  0  0  0  0  0  0  0
    1.3583   -9.0036    0.9764 C   0  0  2  0  0  0  0  0  0  0  0  0
    1.7077   -9.6100   -0.3010 C   0  0  0  0  0  0  0  0  0  0  0  0
    1.3637   -7.1087    2.3226 C   0  0  1  0  0  0  0  0  0  0  0  0
    1.4257   -7.6645    1.0231 C   0  0  0  0  0  0  0  0  0  0  0  0
    1.9364   -8.8976   -1.3212 O   0  0  0  0  0  0  0  0  0  0  0  0
    1.5161  -10.9175   -0.4592 O   0  0  0  0  0  0  0  0  0  0  0  0
    1.1228  -10.1701    4.3932 Br  0  0  0  0  0  0  0  0  0  0  0  0
    1.3176   -5.3593    2.5666 Cl  0  0  0  0  0  0  0  0  0  0  0  0
    1.2430  -11.1332    1.9030 N   0  0  0  0  0  0  0  0  0  0  0  0
    1.3828  -11.7528    0.5067 C   0  0  0  0  0  0  0  0  0  0  0  0
    1.3422  -13.0821    0.4334 O   0  0  0  0  0  0  0  0  0  0  0  0
    1.6065   -6.8388    0.1402 O   0  0  0  0  0  0  0  0  0  0  0  0
    1.0452  -12.1291    2.8874 C   0  0  0  0  0  0  0  0  0  0  0  0
    2.1817  -12.9599    3.3002 C   0  0  0  0  0  0  0  0  0  0  0  0
    1.6745  -14.4396    3.3067 C   0  0  0  0  0  0  0  0  0  0  0  0
    0.2478  -14.5187    3.6464 O   0  0  0  0  0  0  0  0  0  0  0  0
  1  2  1  0
  3  4  1  0
  4  5  1  1
  4  7  1  0
  6  7  1  0
  5  8  2  0
  5  9  1  0
  2 10  1  1
  6 11  1  6
  3 12  1  0
  9 13  1  0
 12 13  1  0
 13 14  2  0
  7 15  2  0
 12 16  1  0
 16 17  1  0
 17 18  1  0
 18 19  1  0
  2  3  1  0
  1  6  1  0
M  END

$$$$
No_600-/export/home/yangzhenyu/potential_scad_32_flow//YTHDC2/2024-12-06-03-22-00/
     RDKit          3D

 20 20  0  0  1  0  0  0  0  0999 V2000
    1.1787   -8.0297    3.5154 C   0  0  0  0  0  0  0  0  0  0  0  0
    1.0491   -6.8434    2.9820 C   0  0  0  0  0  0  0  0  0  0  0  0
    0.0950   -8.8404    3.2292 C   0  0  0  0  0  0  0  0  0  0  0  0
   -0.9173   -8.4596    2.5152 C   0  0  0  0  0  0  0  0  0  0  0  0
   -1.0331   -7.2162    2.0653 C   0  0  0  0  0  0  0  0  0  0  0  0
   -0.0105   -6.3168    2.3081 C   0  0  0  0  0  0  0  0  0  0  0  0
    0.0485   -4.9783    1.8782 C   0  0  0  0  0  0  0  0  0  0  0  0
    0.9625   -4.1072    2.3252 O   0  0  0  0  0  0  0  0  0  0  0  0
    0.1709  -10.4695    3.7373 C   0  0  1  0  0  0  0  0  0  0  0  0
   -0.9889  -11.1332    3.5552 Cl  0  0  0  0  0  0  0  0  0  0  0  0
    1.4659  -11.0954    3.4761 C   0  0  0  0  0  0  0  0  0  0  0  0
    1.6059  -11.6545    2.5917 C   0  0  0  0  0  0  0  0  0  0  0  0
    1.8577  -11.0865    1.3020 C   0  0  0  0  0  0  0  0  0  0  0  0
    2.6467  -10.0778    1.1437 O   0  0  0  0  0  0  0  0  0  0  0  0
    1.2176  -11.4090    0.2695 O   0  0  0  0  0  0  0  0  0  0  0  0
   -1.0528   -4.2453    1.5429 O   0  0  0  0  0  0  0  0  0  0  0  0
    1.8049  -13.0844    2.5972 C   0  0  0  0  0  0  0  0  0  0  0  0
    0.8252  -13.9158    2.9543 O   0  0  0  0  0  0  0  0  0  0  0  0
    2.8760  -13.7786    2.2700 O   0  0  0  0  0  0  0  0  0  0  0  0
    1.6567   -3.1874    1.5561 C   0  0  0  0  0  0  0  0  0  0  0  0
  6  7  1  0
  7  8  1  0
  3  9  1  0
  9 10  1  6
  9 11  1  0
 11 12  1  0
 12 13  1  0
 13 14  1  0
 13 15  2  0
  7 16  2  0
 12 17  1  0
 17 18  1  0
 17 19  2  0
  8 20  1  0
  1  2  2  0
  2  6  1  0
  5  6  2  0
  4  5  1  0
  3  4  2  0
  1  3  1  0
M  END

$$$$
No_601-/export/home/yangzhenyu/potential_scad_32_flow//YTHDC2/2024-12-06-03-22-00/
     RDKit          3D

 18 18  0  0  0  0  0  0  0  0999 V2000
    1.1787   -8.0297    3.5154 C   0  0  0  0  0  0  0  0  0  0  0  0
    1.1048   -9.2215    3.2892 I   0  0  0  0  0  0  0  0  0  0  0  0
    0.2778   -6.9603    2.7764 C   0  0  0  0  0  0  0  0  0  0  0  0
    0.8020   -5.6489    2.4829 C   0  0  0  0  0  0  0  0  0  0  0  0
   -0.1069   -4.8207    1.7784 C   0  0  0  0  0  0  0  0  0  0  0  0
   -1.2247   -5.2756    1.2698 C   0  0  0  0  0  0  0  0  0  0  0  0
   -1.5366   -6.5412    1.2985 C   0  0  0  0  0  0  0  0  0  0  0  0
   -0.7724   -7.4511    2.0035 C   0  0  0  0  0  0  0  0  0  0  0  0
   -1.8430   -4.3647    0.3155 S   0  0  0  0  0  0  0  0  0  0  0  0
   -2.8439   -4.7739   -0.3680 O   0  0  0  0  0  0  0  0  0  0  0  0
   -2.5636   -3.3466    1.3602 O   0  0  0  0  0  0  0  0  0  0  0  0
   -1.1863   -3.2768   -0.7009 O   0  0  0  0  0  0  0  0  0  0  0  0
   -1.3078   -2.1149   -0.9039 C   0  0  0  0  0  0  0  0  0  0  0  0
   -0.4335   -1.4557   -1.7436 C   0  0  0  0  0  0  0  0  0  0  0  0
    0.6872   -1.9338   -1.7757 O   0  0  0  0  0  0  0  0  0  0  0  0
   -0.7719   -0.4654   -2.3964 O   0  0  0  0  0  0  0  0  0  0  0  0
    2.1536   -5.0537    3.2088 Cl  0  0  0  0  0  0  0  0  0  0  0  0
   -2.7210   -7.1067    0.7777 C   0  0  0  0  0  0  0  0  0  0  0  0
  1  2  1  0
  1  3  1  0
  6  9  1  0
  9 10  2  0
  9 11  2  0
  9 12  1  0
 12 13  1  0
 13 14  1  0
 14 15  1  0
 14 16  2  0
  4 17  1  0
  7 18  1  0
  3  4  2  0
  4  5  1  0
  5  6  2  0
  6  7  1  0
  7  8  2  0
  3  8  1  0
M  END

$$$$
No_602-/export/home/yangzhenyu/potential_scad_32_flow//YTHDC2/2024-12-06-03-22-00/
     RDKit          3D

 19 19  0  0  0  0  0  0  0  0999 V2000
    1.1787   -8.0297    3.5154 C   0  0  0  0  0  0  0  0  0  0  0  0
    1.1048   -9.2215    3.2892 C   0  0  0  0  0  0  0  0  0  0  0  0
    1.3627  -10.1721    4.3044 C   0  0  0  0  0  0  0  0  0  0  0  0
    1.0682  -11.5187    4.0618 C   0  0  0  0  0  0  0  0  0  0  0  0
    0.6332  -11.9655    2.9682 C   0  0  0  0  0  0  0  0  0  0  0  0
    0.4776  -11.1308    1.9203 C   0  0  0  0  0  0  0  0  0  0  0  0
    0.7470   -9.8274    2.0368 C   0  0  0  0  0  0  0  0  0  0  0  0
    1.0387   -7.0301    2.5175 O   0  0  0  0  0  0  0  0  0  0  0  0
    0.4220  -13.4291    2.8032 C   0  0  0  0  0  0  0  0  0  0  0  0
   -0.7524  -13.9320    2.4107 O   0  0  0  0  0  0  0  0  0  0  0  0
    1.1982  -14.3581    3.4949 O   0  0  0  0  0  0  0  0  0  0  0  0
    2.2309  -14.9684    2.5040 C   0  0  0  0  0  0  0  0  0  0  0  0
    0.6588   -9.0114    0.9436 C   0  0  0  0  0  0  0  0  0  0  0  0
    1.7661   -8.9924    0.0201 O   0  0  0  0  0  0  0  0  0  0  0  0
   -0.3919   -9.3845   -0.0590 O   0  0  0  0  0  0  0  0  0  0  0  0
    1.6619  -15.7517    1.5039 C   0  0  0  0  0  0  0  0  0  0  0  0
    1.2903  -15.2542    0.4789 O   0  0  0  0  0  0  0  0  0  0  0  0
    1.6781  -17.0066    1.7161 O   0  0  0  0  0  0  0  0  0  0  0  0
    2.1675   -7.3160    4.4473 P   0  0  0  0  0  0  0  0  0  0  0  0
  1  2  1  0
  1  8  2  0
  5  9  1  0
  9 10  2  0
  9 11  1  0
 11 12  1  0
  7 13  1  0
 13 14  1  0
 13 15  2  0
 12 16  1  0
 16 17  2  0
 16 18  1  0
  1 19  1  0
  2  3  2  0
  3  4  1  0
  4  5  2  0
  5  6  1  0
  6  7  2  0
  2  7  1  0
M  END

$$$$
No_603-/export/home/yangzhenyu/potential_scad_32_flow//YTHDC2/2024-12-06-03-22-00/
     RDKit          3D

 20 20  0  0  1  0  0  0  0  0999 V2000
    1.1787   -8.0297    3.5154 C   0  0  0  0  0  0  0  0  0  0  0  0
    1.0491   -6.8434    2.9820 C   0  0  0  0  0  0  0  0  0  0  0  0
    1.9985   -8.9840    2.8958 C   0  0  2  0  0  0  0  0  0  0  0  0
    1.7297   -9.2108    1.6335 C   0  0  0  0  0  0  0  0  0  0  0  0
    1.7343   -8.0566    0.8408 C   0  0  2  0  0  0  0  0  0  0  0  0
    1.0269   -6.8892    1.4456 C   0  0  0  0  0  0  0  0  0  0  0  0
    2.0740   -7.9416   -0.3682 C   0  0  0  0  0  0  0  0  0  0  0  0
    3.0714   -8.7358   -0.8759 C   0  0  0  0  0  0  0  0  0  0  0  0
    2.9993   -9.5731   -1.5107 O   0  0  0  0  0  0  0  0  0  0  0  0
    2.3569  -10.1720    3.6739 C   0  0  1  0  0  0  0  0  0  0  0  0
    3.3181  -10.2382    4.4497 C   0  0  2  0  0  0  0  0  0  0  0  0
    4.0311   -9.8922    5.0738 O   0  0  0  0  0  0  0  0  0  0  0  0
    3.6972  -11.5151    4.3359 F   0  0  0  0  0  0  0  0  0  0  0  0
    4.1473   -8.5916   -0.5208 O   0  0  0  0  0  0  0  0  0  0  0  0
    0.7207   -5.7994    0.8374 O   0  0  0  0  0  0  0  0  0  0  0  0
    1.4509  -11.2092    3.4973 C   0  0  0  0  0  0  0  0  0  0  0  0
    1.6017  -12.3644    2.9366 C   0  0  0  0  0  0  0  0  0  0  0  0
    1.0024  -13.4705    3.3510 C   0  0  0  0  0  0  0  0  0  0  0  0
    1.4224  -14.8259    2.9704 C   0  0  0  0  0  0  0  0  0  0  0  0
    2.3684  -15.0444    2.0646 C   0  0  0  0  0  0  0  0  0  0  0  0
  1  2  1  0
  3  1  1  1
  3  4  1  0
  4  5  1  0
  2  6  1  0
  5  6  1  0
  5  7  1  6
  7  8  1  0
  8  9  1  0
  3 10  1  0
 10 11  1  0
 11 12  1  6
 11 13  1  0
  8 14  2  0
  6 15  2  0
 10 16  1  1
 16 17  1  0
 17 18  1  0
 18 19  1  0
 19 20  1  0
M  END

$$$$
No_604-/export/home/yangzhenyu/potential_scad_32_flow//YTHDC2/2024-12-06-03-22-00/
     RDKit          3D

 18 20  0  0  0  0  0  0  0  0999 V2000
    1.1787   -8.0297    3.5154 C   0  0  0  0  0  0  0  0  0  0  0  0
    1.0491   -6.8434    2.9820 C   0  0  0  0  0  0  0  0  0  0  0  0
    0.0950   -8.8404    3.2292 N   0  0  0  0  0  0  0  0  0  0  0  0
    0.3469   -6.4935    2.0826 C   0  0  0  0  0  0  0  0  0  0  0  0
   -0.5532   -7.2574    1.5916 C   0  0  0  0  0  0  0  0  0  0  0  0
   -0.5814   -8.5101    2.0421 C   0  0  0  0  0  0  0  0  0  0  0  0
    0.5810   -5.0792    1.3923 O   0  0  0  0  0  0  0  0  0  0  0  0
   -1.3674   -6.9408    0.5430 C   0  0  0  0  0  0  0  0  0  0  0  0
   -2.2829   -7.6477    0.2898 C   0  0  0  0  0  0  0  0  0  0  0  0
   -2.3435   -9.0505    0.6619 C   0  0  0  0  0  0  0  0  0  0  0  0
   -1.4818   -9.4142    1.6483 C   0  0  0  0  0  0  0  0  0  0  0  0
   -3.3310   -9.9339    0.2443 C   0  0  0  0  0  0  0  0  0  0  0  0
   -4.5471   -9.6277    0.3920 C   0  0  0  0  0  0  0  0  0  0  0  0
   -5.3779   -9.5187   -0.5213 C   0  0  0  0  0  0  0  0  0  0  0  0
   -6.7014   -9.1336   -0.3374 C   0  0  0  0  0  0  0  0  0  0  0  0
   -7.0281   -9.0176    1.0158 C   0  0  0  0  0  0  0  0  0  0  0  0
   -6.1956   -9.1216    2.0692 C   0  0  0  0  0  0  0  0  0  0  0  0
   -4.8197   -9.4644    1.8266 C   0  0  0  0  0  0  0  0  0  0  0  0
  4  7  1  0
 10 12  1  0
 12 13  1  0
  1  2  2  0
  2  4  1  0
  4  5  2  0
  3  6  2  0
  1  3  1  0
  5  6  1  0
  6 11  1  0
 10 11  2  0
  9 10  1  0
  8  9  2  0
  5  8  1  0
 13 14  2  0
 14 15  1  0
 15 16  2  0
 16 17  1  0
 17 18  2  0
 13 18  1  0
M  END

$$$$
No_605-/export/home/yangzhenyu/potential_scad_32_flow//YTHDC2/2024-12-06-03-22-00/
     RDKit          3D

 19 20  0  0  1  0  0  0  0  0999 V2000
    1.1787   -8.0297    3.5154 O   0  0  0  0  0  0  0  0  0  0  0  0
    0.9969   -8.9689    3.0048 C   0  0  1  0  0  0  0  0  0  0  0  0
    0.9976   -8.9567    1.6341 C   0  0  0  0  0  0  0  0  0  0  0  0
    0.7663   -7.7728    1.0082 C   0  0  0  0  0  0  0  0  0  0  0  0
    1.1468   -6.5619    1.6541 C   0  0  0  0  0  0  0  0  0  0  0  0
    1.3592   -6.6155    3.0007 C   0  0  0  0  0  0  0  0  0  0  0  0
    0.9781  -10.1276    3.6866 C   0  0  1  0  0  0  0  0  0  0  0  0
   -0.1772  -10.7865    4.0343 C   0  0  0  0  0  0  0  0  0  0  0  0
    2.0101  -11.1674    3.2617 C   0  0  0  0  0  0  0  0  0  0  0  0
    1.7926  -12.3790    3.9534 C   0  0  0  0  0  0  0  0  0  0  0  0
    2.2657  -13.4510    3.0358 C   0  0  2  0  0  0  0  0  0  0  0  0
    0.7394   -7.8079   -0.3556 C   0  0  0  0  0  0  0  0  0  0  0  0
    0.1708   -8.6569   -0.8909 C   0  0  0  0  0  0  0  0  0  0  0  0
    2.1025  -13.3827    1.6705 Cl  0  0  0  0  0  0  0  0  0  0  0  0
    0.6361  -10.1102    0.8120 C   0  0  0  0  0  0  0  0  0  0  0  0
    0.2253   -9.9845   -0.4773 C   0  0  0  0  0  0  0  0  0  0  0  0
    1.6934   -5.6553    3.7645 O   0  0  0  0  0  0  0  0  0  0  0  0
   -0.1117   -8.7080   -2.3310 O   0  0  0  0  0  0  0  0  0  0  0  0
    1.6019  -14.7905    3.4293 O   0  0  0  0  0  0  0  0  0  0  0  0
  2  1  1  1
  2  3  1  0
  4  5  1  0
  1  6  1  0
  5  6  1  0
  2  7  1  0
  7  8  1  6
  7  9  1  0
  9 10  1  0
 10 11  1  0
 11 14  1  0
  6 17  2  0
 13 18  1  0
 11 19  1  1
  3  4  2  0
  4 12  1  0
 12 13  2  0
 13 16  1  0
 15 16  2  0
  3 15  1  0
M  END

$$$$
No_606-/export/home/yangzhenyu/potential_scad_32_flow//YTHDC2/2024-12-06-03-22-00/
     RDKit          3D

 19 20  0  0  0  0  0  0  0  0999 V2000
    1.1787   -8.0297    3.5154 O   0  0  0  0  0  0  0  0  0  0  0  0
    0.6747   -7.4019    2.7838 C   0  0  0  0  0  0  0  0  0  0  0  0
    0.5570   -6.0797    2.8560 C   0  0  0  0  0  0  0  0  0  0  0  0
   -0.2158   -5.3007    2.0284 C   0  0  0  0  0  0  0  0  0  0  0  0
   -0.8260   -5.9169    1.0290 C   0  0  0  0  0  0  0  0  0  0  0  0
   -0.6925   -7.2407    0.8216 C   0  0  0  0  0  0  0  0  0  0  0  0
    0.1645   -8.0156    1.6621 C   0  0  0  0  0  0  0  0  0  0  0  0
    1.0017   -8.8762    1.1985 C   0  0  0  0  0  0  0  0  0  0  0  0
    1.1090  -10.1538    1.7185 C   0  0  0  0  0  0  0  0  0  0  0  0
    1.9902  -11.1065    1.1241 C   0  0  0  0  0  0  0  0  0  0  0  0
    2.4681  -10.8612   -0.0810 N   0  0  0  0  0  0  0  0  0  0  0  0
    1.7577   -8.8541   -0.1440 C   0  0  0  0  0  0  0  0  0  0  0  0
    1.6501   -7.5512   -0.6978 C   0  0  0  0  0  0  0  0  0  0  0  0
    2.3691   -9.7245   -0.6114 C   0  0  0  0  0  0  0  0  0  0  0  0
    2.0822  -12.5758    1.7252 C   0  0  0  0  0  0  0  0  0  0  0  0
    1.7261  -12.7409    2.9853 C   0  0  0  0  0  0  0  0  0  0  0  0
    1.3555  -14.0462    3.1809 O   0  0  0  0  0  0  0  0  0  0  0  0
    0.9648  -14.7440    2.1726 C   0  0  0  0  0  0  0  0  0  0  0  0
    1.4252  -14.3109    0.9988 C   0  0  0  0  0  0  0  0  0  0  0  0
  1  2  1  0
  7  8  1  0
 12 13  1  0
 10 15  1  0
 15 16  1  0
 16 17  1  0
 17 18  1  0
 18 19  1  0
  2  3  2  0
  3  4  1  0
  4  5  2  0
  5  6  1  0
  6  7  2  0
  2  7  1  0
  8  9  2  0
  9 10  1  0
 10 11  2  0
 11 14  1  0
 12 14  2  0
  8 12  1  0
M  END

$$$$
No_607-/export/home/yangzhenyu/potential_scad_32_flow//YTHDC2/2024-12-06-03-22-00/
     RDKit          3D

 21 21  0  0  0  0  0  0  0  0999 V2000
    1.1787   -8.0297    3.5154 C   0  0  0  0  0  0  0  0  0  0  0  0
    1.1048   -9.2215    3.2892 Cl  0  0  0  0  0  0  0  0  0  0  0  0
    1.1053   -7.0623    2.3233 C   0  0  0  0  0  0  0  0  0  0  0  0
    1.4726   -7.8192    1.2373 C   0  0  0  0  0  0  0  0  0  0  0  0
    2.7805   -8.0329    0.8318 C   0  0  0  0  0  0  0  0  0  0  0  0
    0.7734   -5.8171    2.4872 N   0  0  0  0  0  0  0  0  0  0  0  0
    2.8172   -8.6181   -0.4902 C   0  0  0  0  0  0  0  0  0  0  0  0
    1.7145   -8.7238   -1.2039 C   0  0  0  0  0  0  0  0  0  0  0  0
    0.4812   -8.3681   -0.8678 C   0  0  0  0  0  0  0  0  0  0  0  0
    0.3449   -7.8723    0.3880 C   0  0  0  0  0  0  0  0  0  0  0  0
   -0.7324   -8.6223   -1.7005 C   0  0  0  0  0  0  0  0  0  0  0  0
   -0.7699   -8.6168   -2.7286 O   0  0  0  0  0  0  0  0  0  0  0  0
   -1.8582   -8.6349   -0.9440 N   0  0  0  0  0  0  0  0  0  0  0  0
   -3.0432   -8.7302   -1.7172 C   0  0  0  0  0  0  0  0  0  0  0  0
   -4.1468   -8.9216   -0.8931 C   0  0  0  0  0  0  0  0  0  0  0  0
   -4.2415   -9.9228   -0.1646 C   0  0  0  0  0  0  0  0  0  0  0  0
   -3.8623  -11.1288   -0.4854 C   0  0  0  0  0  0  0  0  0  0  0  0
   -3.1189  -11.9384    0.4108 C   0  0  0  0  0  0  0  0  0  0  0  0
   -3.1096  -11.6317    1.7484 C   0  0  0  0  0  0  0  0  0  0  0  0
   -3.6166  -10.4749    2.2170 C   0  0  0  0  0  0  0  0  0  0  0  0
    0.7405   -5.1944    1.6927 H   0  0  0  0  0  0  0  0  0  0  0  0
  1  2  1  0
  1  3  1  0
  3  4  1  0
  3  6  2  0
  9 11  1  0
 11 12  2  0
 11 13  1  0
 13 14  1  0
 14 15  1  0
 15 16  1  0
 16 17  1  0
 17 18  2  3
 18 19  1  0
 19 20  2  0
  4  5  2  0
  5  7  1  0
  7  8  2  0
  8  9  1  0
  9 10  2  0
  4 10  1  0
  6 21  1  0
M  END

$$$$
No_608-/export/home/yangzhenyu/potential_scad_32_flow//YTHDC2/2024-12-06-03-22-00/
     RDKit          3D

 20 20  0  0  1  0  0  0  0  0999 V2000
    1.1787   -8.0297    3.5154 O   0  0  0  0  0  0  0  0  0  0  0  0
    0.6747   -7.4019    2.7838 C   0  0  0  0  0  0  0  0  0  0  0  0
    0.5570   -6.0797    2.8560 C   0  0  0  0  0  0  0  0  0  0  0  0
   -0.2158   -5.3007    2.0284 C   0  0  0  0  0  0  0  0  0  0  0  0
   -0.8260   -5.9169    1.0290 C   0  0  0  0  0  0  0  0  0  0  0  0
   -0.6925   -7.2407    0.8216 C   0  0  0  0  0  0  0  0  0  0  0  0
    0.1645   -8.0156    1.6621 C   0  0  0  0  0  0  0  0  0  0  0  0
    0.4049   -9.3434    1.4877 C   0  0  2  0  0  0  0  0  0  0  0  0
    0.0670  -10.2565    2.0992 N   0  0  0  0  0  0  0  0  0  0  0  0
    0.8996  -11.2312    2.4648 C   0  0  1  0  0  0  0  0  0  0  0  0
    2.1774  -11.0836    2.2001 C   0  0  0  0  0  0  0  0  0  0  0  0
    1.3056   -9.5480    0.3581 C   0  0  0  0  0  0  0  0  0  0  0  0
    1.6971   -8.8248   -0.6548 C   0  0  0  0  0  0  0  0  0  0  0  0
    0.4662  -12.3127    3.2915 C   0  0  0  0  0  0  0  0  0  0  0  0
    2.8826   -8.7141   -1.2542 O   0  0  0  0  0  0  0  0  0  0  0  0
    0.7706   -8.3226   -1.4594 O   0  0  0  0  0  0  0  0  0  0  0  0
    0.2341  -13.5050    2.6403 C   0  0  0  0  0  0  0  0  0  0  0  0
    0.9813  -14.6055    3.0347 C   0  0  0  0  0  0  0  0  0  0  0  0
    0.7552  -15.8965    2.7628 O   0  0  0  0  0  0  0  0  0  0  0  0
    2.0001  -14.6424    3.7974 O   0  0  0  0  0  0  0  0  0  0  0  0
  1  2  1  0
  7  8  1  0
  8  9  1  0
  9 10  1  0
 10 11  1  1
  8 12  1  1
 12 13  1  0
 10 14  1  0
 13 15  1  0
 13 16  2  0
 14 17  1  0
 17 18  1  0
 18 19  2  0
 18 20  1  0
  2  3  2  0
  3  4  1  0
  4  5  2  0
  5  6  1  0
  6  7  2  0
  2  7  1  0
M  END

$$$$
No_609-/export/home/yangzhenyu/potential_scad_32_flow//YTHDC2/2024-12-06-03-22-00/
     RDKit          3D

 20 20  0  0  1  0  0  0  0  0999 V2000
    1.1787   -8.0297    3.5154 C   0  0  0  0  0  0  0  0  0  0  0  0
    1.0491   -6.8434    2.9820 Cl  0  0  0  0  0  0  0  0  0  0  0  0
    0.0905   -8.9512    3.3831 C   0  0  1  0  0  0  0  0  0  0  0  0
    0.2318  -10.2544    3.9736 C   0  0  1  0  0  0  0  0  0  0  0  0
   -0.8140  -11.1080    3.8400 C   0  0  0  0  0  0  0  0  0  0  0  0
   -1.9051  -10.8448    3.1600 C   0  0  2  0  0  0  0  0  0  0  0  0
   -2.0660   -9.5478    2.7286 C   0  0  0  0  0  0  0  0  0  0  0  0
   -1.0633   -8.6185    2.8135 C   0  0  0  0  0  0  0  0  0  0  0  0
    1.4238  -10.7294    4.6063 C   0  0  0  0  0  0  0  0  0  0  0  0
    2.4148  -11.3054    3.8700 I   0  0  0  0  0  0  0  0  0  0  0  0
   -1.3693   -7.2603    2.7620 O   0  0  0  0  0  0  0  0  0  0  0  0
   -3.0415  -11.6806    3.0757 Cl  0  0  0  0  0  0  0  0  0  0  0  0
   -3.2984   -9.1508    2.1537 O   0  0  0  0  0  0  0  0  0  0  0  0
   -3.5284   -9.1788    0.8888 C   0  0  1  0  0  0  0  0  0  0  0  0
   -4.6064   -8.6646    0.4793 C   0  0  0  0  0  0  0  0  0  0  0  0
   -5.4472   -8.3688    1.2978 N   0  0  0  0  0  0  0  0  0  0  0  0
   -2.3618   -9.5481   -0.0345 C   0  0  2  0  0  0  0  0  0  0  0  0
   -2.0208  -10.7295   -0.3245 Cl  0  0  0  0  0  0  0  0  0  0  0  0
   -4.7881   -8.4209   -0.8097 O   0  0  0  0  0  0  0  0  0  0  0  0
   -1.5107   -8.3534   -0.5457 C   0  0  0  0  0  0  0  0  0  0  0  0
  1  2  1  0
  3  1  1  1
  3  4  1  0
  5  6  1  0
  3  8  1  0
  7  8  1  0
  4  9  1  6
  9 10  1  0
  8 11  2  0
  6 12  1  1
  7 13  1  0
 14 13  1  1
 14 15  1  0
 15 16  1  0
 14 17  1  0
 17 18  1  0
 15 19  2  0
 17 20  1  1
  4  5  1  0
  6  7  1  0
M  END

$$$$
No_610-/export/home/yangzhenyu/potential_scad_32_flow//YTHDC2/2024-12-06-03-22-00/
     RDKit          3D

 21 20  0  0  1  0  0  0  0  0999 V2000
    1.1787   -8.0297    3.5154 C   0  0  0  0  0  0  0  0  0  0  0  0
    1.0491   -6.8434    2.9820 C   0  0  0  0  0  0  0  0  0  0  0  0
    1.9985   -8.9840    2.8958 C   0  0  0  0  0  0  0  0  0  0  0  0
    1.1815  -10.1889    2.5497 C   0  0  1  0  0  0  0  0  0  0  0  0
    0.3496  -10.1352    1.6536 C   0  0  0  0  0  0  0  0  0  0  0  0
   -0.8355  -10.5689    1.8958 C   0  0  0  0  0  0  0  0  0  0  0  0
   -1.8104  -10.4599    0.9058 C   0  0  0  0  0  0  0  0  0  0  0  0
   -3.0402  -10.7990    1.1378 C   0  0  0  0  0  0  0  0  0  0  0  0
    0.5692   -6.8953    1.6181 C   0  0  0  0  0  0  0  0  0  0  0  0
    1.1943   -7.2377    0.7192 C   0  0  0  0  0  0  0  0  0  0  0  0
   -4.0803  -10.2193    0.6943 C   0  0  0  0  0  0  0  0  0  0  0  0
    0.8560  -10.1271    0.2042 C   0  0  0  0  0  0  0  0  0  0  0  0
    0.1370  -10.1707   -0.7824 O   0  0  0  0  0  0  0  0  0  0  0  0
    2.2256  -10.0532   -0.0150 O   0  0  0  0  0  0  0  0  0  0  0  0
   -3.9420   -9.2339   -0.1956 C   0  0  0  0  0  0  0  0  0  0  0  0
   -5.0197   -8.5697   -0.7279 C   0  0  0  0  0  0  0  0  0  0  0  0
   -4.7294   -7.5226   -1.7341 O   0  0  0  0  0  0  0  0  0  0  0  0
    1.6879  -11.3764    3.1055 C   0  0  0  0  0  0  0  0  0  0  0  0
    0.9811  -12.2388    3.5973 O   0  0  0  0  0  0  0  0  0  0  0  0
   -0.8593   -7.4868    1.7254 C   0  0  0  0  0  0  0  0  0  0  0  0
    2.7422  -12.0376    2.7494 N   0  0  0  0  0  0  0  0  0  0  0  0
  1  2  1  0
  1  3  1  0
  4  3  1  6
  4  5  1  0
  5  6  2  3
  6  7  1  0
  7  8  1  0
  2  9  1  0
  9 10  1  0
  8 11  1  0
  5 12  1  0
 12 13  2  0
 12 14  1  0
 11 15  1  0
 15 16  1  0
 16 17  1  0
  4 18  1  0
 18 19  2  0
  9 20  1  0
 18 21  1  0
M  END

$$$$
No_611-/export/home/yangzhenyu/potential_scad_32_flow//YTHDC2/2024-12-06-03-22-00/
     RDKit          3D

 19 19  0  0  1  0  0  0  0  0999 V2000
    1.1787   -8.0297    3.5154 O   0  0  0  0  0  0  0  0  0  0  0  0
    0.9969   -8.9689    3.0048 C   0  0  1  0  0  0  0  0  0  0  0  0
    0.9976   -8.9567    1.6341 C   0  0  2  0  0  0  0  0  0  0  0  0
    1.6062   -9.9071    0.9292 C   0  0  0  0  0  0  0  0  0  0  0  0
    2.1191  -10.9757    1.6503 N   0  0  0  0  0  0  0  0  0  0  0  0
    2.0886  -10.9867    2.9870 C   0  0  0  0  0  0  0  0  0  0  0  0
    1.5470   -9.9062    3.6686 C   0  0  0  0  0  0  0  0  0  0  0  0
    0.4647   -7.7381    0.9800 C   0  0  2  0  0  0  0  0  0  0  0  0
    0.9207   -6.5820    1.1530 I   0  0  0  0  0  0  0  0  0  0  0  0
    2.5949  -12.2017    3.4844 N   0  0  0  0  0  0  0  0  0  0  0  0
   -1.1290   -7.8830    1.0427 C   0  0  0  0  0  0  0  0  0  0  0  0
   -1.8045   -8.0589    1.9006 O   0  0  0  0  0  0  0  0  0  0  0  0
   -1.7116   -7.8270   -0.1780 O   0  0  0  0  0  0  0  0  0  0  0  0
    1.6743  -10.2496    4.9610 O   0  0  0  0  0  0  0  0  0  0  0  0
   -1.3463   -8.8018   -1.1701 C   0  0  0  0  0  0  0  0  0  0  0  0
   -2.3203   -8.8534   -2.1155 C   0  0  0  0  0  0  0  0  0  0  0  0
   -3.1946   -8.0664   -2.0743 O   0  0  0  0  0  0  0  0  0  0  0  0
   -2.4546  -10.1381   -2.6782 Br  0  0  0  0  0  0  0  0  0  0  0  0
    2.3826  -13.3797    2.9755 C   0  0  0  0  0  0  0  0  0  0  0  0
  2  1  1  1
  2  3  1  0
  4  5  1  0
  2  7  1  0
  6  7  1  0
  3  8  1  0
  8  9  1  1
  6 10  1  0
  8 11  1  0
 11 12  2  0
 11 13  1  0
  7 14  2  0
 13 15  1  0
 15 16  1  0
 16 17  2  0
 16 18  1  0
 10 19  1  0
  3  4  1  1
  5  6  1  0
M  END

$$$$
No_612-/export/home/yangzhenyu/potential_scad_32_flow//YTHDC2/2024-12-06-03-22-00/
     RDKit          3D

 19 19  0  0  1  0  0  0  0  0999 V2000
    1.1787   -8.0297    3.5154 C   0  0  0  0  0  0  0  0  0  0  0  0
    1.1048   -9.2215    3.2892 C   0  0  0  0  0  0  0  0  0  0  0  0
    1.2339   -9.7611    2.0189 C   0  0  0  0  0  0  0  0  0  0  0  0
    1.3583   -9.0036    0.9764 C   0  0  1  0  0  0  0  0  0  0  0  0
    1.5996   -7.6362    1.1311 S   0  0  0  0  0  0  0  0  0  0  0  0
    1.4699   -7.1217    2.4809 C   0  0  1  0  0  0  0  0  0  0  0  0
    1.6243   -9.7287   -0.2225 C   0  0  0  0  0  0  0  0  0  0  0  0
    1.4365  -10.8793   -0.3100 O   0  0  0  0  0  0  0  0  0  0  0  0
    1.7291   -9.0456   -1.4070 O   0  0  0  0  0  0  0  0  0  0  0  0
    1.4679   -5.6817    2.7953 C   0  0  0  0  0  0  0  0  0  0  0  0
    1.6993   -5.1924    3.9744 N   0  0  0  0  0  0  0  0  0  0  0  0
    1.3746   -4.8557    1.7321 O   0  0  0  0  0  0  0  0  0  0  0  0
    0.9500  -10.2213    4.3856 C   0  0  2  0  0  0  0  0  0  0  0  0
    1.8290  -11.2345    4.7256 C   0  0  0  0  0  0  0  0  0  0  0  0
    3.0338  -10.7245    5.2787 N   0  0  0  0  0  0  0  0  0  0  0  0
    4.2498  -11.2868    4.8845 N   0  0  0  0  0  0  0  0  0  0  0  0
   -0.2506  -10.5059    4.8917 C   0  0  0  0  0  0  0  0  0  0  0  0
   -0.9329  -11.6423    4.6928 O   0  0  0  0  0  0  0  0  0  0  0  0
   -1.0530   -9.4501    5.3692 O   0  0  0  0  0  0  0  0  0  0  0  0
  1  2  1  0
  2  3  2  0
  3  4  1  0
  4  5  1  0
  1  6  1  0
  5  6  1  0
  4  7  1  6
  7  8  2  0
  7  9  1  0
  6 10  1  6
 10 11  1  0
 10 12  2  0
  2 13  1  0
 13 14  1  6
 14 15  1  0
 15 16  1  0
 13 17  1  0
 17 18  2  0
 17 19  1  0
M  END

$$$$
No_613-/export/home/yangzhenyu/potential_scad_32_flow//YTHDC2/2024-12-06-03-22-00/
     RDKit          3D

 18 19  0  0  1  0  0  0  0  0999 V2000
    1.1787   -8.0297    3.5154 I   0  0  0  0  0  0  0  0  0  0  0  0
    0.6545   -7.6914    2.3650 C   0  0  2  0  0  0  0  0  0  0  0  0
    0.8488   -8.4410    1.1921 C   0  0  0  0  0  0  0  0  0  0  0  0
    1.3570   -9.6728    1.0694 C   0  0  0  0  0  0  0  0  0  0  0  0
    1.5375  -10.3010   -0.0381 C   0  0  0  0  0  0  0  0  0  0  0  0
    1.2343   -9.7521   -1.1918 C   0  0  0  0  0  0  0  0  0  0  0  0
    0.6851   -8.4854   -1.2589 C   0  0  0  0  0  0  0  0  0  0  0  0
    0.3073   -8.0884   -2.4300 C   0  0  0  0  0  0  0  0  0  0  0  0
    0.4401   -7.8880   -0.0781 C   0  0  0  0  0  0  0  0  0  0  0  0
    0.1175   -6.3378    2.2348 C   0  0  0  0  0  0  0  0  0  0  0  0
   -1.3442   -6.2327    2.2150 C   0  0  0  0  0  0  0  0  0  0  0  0
    0.8800   -5.1159    2.2804 C   0  0  0  0  0  0  0  0  0  0  0  0
   -1.8991   -4.9371    2.2497 C   0  0  0  0  0  0  0  0  0  0  0  0
   -1.0645   -3.7444    2.2824 C   0  0  0  0  0  0  0  0  0  0  0  0
    0.3076   -3.8928    2.2649 C   0  0  0  0  0  0  0  0  0  0  0  0
   -1.0017   -8.2526   -2.9494 O   0  0  0  0  0  0  0  0  0  0  0  0
    0.9439   -7.7674   -3.3491 O   0  0  0  0  0  0  0  0  0  0  0  0
    1.1317   -2.7511    2.3826 Cl  0  0  0  0  0  0  0  0  0  0  0  0
  2  1  1  6
  2  3  1  0
  7  8  1  0
  2 10  1  0
  8 16  2  0
  8 17  1  0
 15 18  1  0
 10 11  2  0
 11 13  1  0
 13 14  2  0
 14 15  1  0
 12 15  2  0
 10 12  1  0
  3  4  2  0
  4  5  1  0
  5  6  2  0
  6  7  1  0
  7  9  2  0
  3  9  1  0
M  END

$$$$
No_614-/export/home/yangzhenyu/potential_scad_32_flow//YTHDC2/2024-12-06-03-22-00/
     RDKit          3D

 19 20  0  0  0  0  0  0  0  0999 V2000
    1.1787   -8.0297    3.5154 C   0  0  0  0  0  0  0  0  0  0  0  0
    1.1048   -9.2215    3.2892 C   0  0  0  0  0  0  0  0  0  0  0  0
    1.2339   -9.7611    2.0189 C   0  0  0  0  0  0  0  0  0  0  0  0
    1.1954  -11.2312    1.8661 C   0  0  0  0  0  0  0  0  0  0  0  0
    1.2996  -11.5815    0.5387 C   0  0  0  0  0  0  0  0  0  0  0  0
    1.3263   -7.1208    2.3229 C   0  0  0  0  0  0  0  0  0  0  0  0
    1.2845   -5.6360    2.4729 C   0  0  0  0  0  0  0  0  0  0  0  0
    1.4964  -10.8172   -0.4539 C   0  0  0  0  0  0  0  0  0  0  0  0
    1.5790   -9.4645   -0.2352 C   0  0  0  0  0  0  0  0  0  0  0  0
    1.7674   -8.6029   -1.4177 C   0  0  0  0  0  0  0  0  0  0  0  0
    1.4787   -8.9972    0.8983 C   0  0  0  0  0  0  0  0  0  0  0  0
    1.4812   -7.7128    1.1440 C   0  0  0  0  0  0  0  0  0  0  0  0
    1.0788  -12.0499    2.8794 C   0  0  0  0  0  0  0  0  0  0  0  0
    1.7899  -12.1192    3.9042 O   0  0  0  0  0  0  0  0  0  0  0  0
   -0.1192  -12.7194    3.1244 O   0  0  0  0  0  0  0  0  0  0  0  0
    1.1726   -8.9330   -2.4745 O   0  0  0  0  0  0  0  0  0  0  0  0
    2.7203   -7.8320   -1.4541 O   0  0  0  0  0  0  0  0  0  0  0  0
    1.8365   -5.0131    3.4384 C   0  0  0  0  0  0  0  0  0  0  0  0
    0.8141   -4.9587    1.3749 C   0  0  0  0  0  0  0  0  0  0  0  0
  6  7  1  0
  9 10  1  0
  4 13  1  0
 13 14  2  0
 13 15  1  0
 10 16  2  0
 10 17  1  0
  7 18  2  0
  7 19  1  0
  1  2  2  0
  2  3  1  0
 11 12  1  0
  6 12  2  0
  1  6  1  0
  3  4  2  0
  4  5  1  0
  5  8  2  0
  8  9  1  0
  9 11  2  0
  3 11  1  0
M  END

$$$$
No_615-/export/home/yangzhenyu/potential_scad_32_flow//YTHDC2/2024-12-06-03-22-00/
     RDKit          3D

 17 17  0  0  0  0  0  0  0  0999 V2000
    1.1787   -8.0297    3.5154 C   0  0  0  0  0  0  0  0  0  0  0  0
    1.0491   -6.8434    2.9820 C   0  0  0  0  0  0  0  0  0  0  0  0
    0.2462   -8.9560    3.0873 C   0  0  0  0  0  0  0  0  0  0  0  0
    0.3295   -6.5187    1.9069 C   0  0  0  0  0  0  0  0  0  0  0  0
   -0.5260   -8.7862    2.1368 C   0  0  0  0  0  0  0  0  0  0  0  0
   -0.5458   -7.5614    1.5054 C   0  0  0  0  0  0  0  0  0  0  0  0
    0.4051  -10.4356    3.8147 C   0  0  0  0  0  0  0  0  0  0  0  0
   -0.8050  -11.1028    3.7770 O   0  0  0  0  0  0  0  0  0  0  0  0
    1.5403  -11.0337    4.0593 N   0  0  0  0  0  0  0  0  0  0  0  0
    0.2898   -5.2573    1.3416 C   0  0  0  0  0  0  0  0  0  0  0  0
   -0.3340   -4.1637    1.9459 P   0  0  0  0  0  0  0  0  0  0  0  0
   -1.2060   -4.5373    2.9678 O   0  0  0  0  0  0  0  0  0  0  0  0
    0.6901   -3.2725    2.7942 O   0  0  0  0  0  0  0  0  0  0  0  0
   -0.8801   -3.1678    1.0251 O   0  0  0  0  0  0  0  0  0  0  0  0
    1.9923  -12.0767    3.7775 C   0  0  0  0  0  0  0  0  0  0  0  0
    2.0417  -12.2837    2.2369 C   0  0  0  0  0  0  0  0  0  0  0  0
    1.8284  -13.4834    1.6944 C   0  0  0  0  0  0  0  0  0  0  0  0
  3  7  1  0
  7  8  2  0
  7  9  1  0
  4 10  1  0
 10 11  1  0
 11 12  1  0
 11 13  1  0
 11 14  2  0
  9 15  1  0
 15 16  1  0
 16 17  1  0
  1  2  2  0
  2  4  1  0
  4  6  2  0
  5  6  1  0
  3  5  2  0
  1  3  1  0
M  END

$$$$
No_616-/export/home/yangzhenyu/potential_scad_32_flow//YTHDC2/2024-12-06-03-22-00/
     RDKit          3D

 18 19  0  0  0  0  0  0  0  0999 V2000
    1.1787   -8.0297    3.5154 F   0  0  0  0  0  0  0  0  0  0  0  0
    0.5277   -7.9922    2.7193 C   0  0  0  0  0  0  0  0  0  0  0  0
    0.3243   -6.6787    2.2086 C   0  0  0  0  0  0  0  0  0  0  0  0
   -0.7600   -6.4338    1.4514 C   0  0  0  0  0  0  0  0  0  0  0  0
   -1.4143   -7.4597    0.8512 C   0  0  0  0  0  0  0  0  0  0  0  0
   -0.1557   -9.0028    2.1904 C   0  0  0  0  0  0  0  0  0  0  0  0
   -1.1175   -8.7175    1.1780 C   0  0  0  0  0  0  0  0  0  0  0  0
   -2.2088   -7.2971   -0.2810 C   0  0  0  0  0  0  0  0  0  0  0  0
   -2.0972   -8.1750   -1.3780 C   0  0  0  0  0  0  0  0  0  0  0  0
   -3.0186   -8.6205   -1.9397 C   0  0  0  0  0  0  0  0  0  0  0  0
   -4.2510   -8.0512   -1.9133 C   0  0  0  0  0  0  0  0  0  0  0  0
   -4.4614   -7.1002   -0.9151 C   0  0  0  0  0  0  0  0  0  0  0  0
   -3.4073   -6.7528   -0.0752 C   0  0  0  0  0  0  0  0  0  0  0  0
    0.1869  -10.2605    2.6212 C   0  0  0  0  0  0  0  0  0  0  0  0
   -0.0185  -11.2453    2.0777 O   0  0  0  0  0  0  0  0  0  0  0  0
    0.3760  -10.5108    4.0609 N   0  0  0  0  0  0  0  0  0  0  0  0
    0.1854  -10.0515    4.9947 O   0  0  0  0  0  0  0  0  0  0  0  0
   -0.7675   -8.9275   -1.5178 Cl  0  0  0  0  0  0  0  0  0  0  0  0
  1  2  1  0
  5  8  1  0
  6 14  1  0
 14 15  2  0
 14 16  1  0
 16 17  2  0
  9 18  1  0
  2  3  2  0
  3  4  1  0
  4  5  2  0
  5  7  1  0
  6  7  2  0
  2  6  1  0
  8  9  2  0
  9 10  1  0
 10 11  2  0
 11 12  1  0
 12 13  2  0
  8 13  1  0
M  END

$$$$
No_617-/export/home/yangzhenyu/potential_scad_32_flow//YTHDC2/2024-12-06-03-22-00/
     RDKit          3D

 20 20  0  0  1  0  0  0  0  0999 V2000
    1.1787   -8.0297    3.5154 N   0  0  0  0  0  0  0  0  0  0  0  0
    0.8669   -7.0905    2.8589 C   0  0  1  0  0  0  0  0  0  0  0  0
    0.8842   -5.8387    3.2677 N   0  0  0  0  0  0  0  0  0  0  0  0
    0.7046   -7.3396    1.4853 C   0  0  0  0  0  0  0  0  0  0  0  0
    1.3141   -9.3038    3.0097 C   0  0  0  0  0  0  0  0  0  0  0  0
    1.1146   -9.5822    1.7111 C   0  0  0  0  0  0  0  0  0  0  0  0
    1.2434  -10.9854    1.1970 C   0  0  0  0  0  0  0  0  0  0  0  0
    0.8475   -8.5819    0.9186 C   0  0  1  0  0  0  0  0  0  0  0  0
    0.4543  -11.5154    0.4379 O   0  0  0  0  0  0  0  0  0  0  0  0
    2.3372  -11.6393    1.5600 O   0  0  0  0  0  0  0  0  0  0  0  0
    0.4100   -6.2872    0.6158 O   0  0  0  0  0  0  0  0  0  0  0  0
    1.7528  -10.3359    3.9906 C   0  0  0  0  0  0  0  0  0  0  0  0
    2.9956  -10.5204    4.4793 C   0  0  0  0  0  0  0  0  0  0  0  0
    3.7241   -9.9459    4.9419 O   0  0  0  0  0  0  0  0  0  0  0  0
    3.0249  -11.9851    4.8397 O   0  0  0  0  0  0  0  0  0  0  0  0
    0.6328   -8.7304   -0.4684 F   0  0  0  0  0  0  0  0  0  0  0  0
    2.0134   -5.2109    3.8101 C   0  0  0  0  0  0  0  0  0  0  0  0
    1.5712   -3.7116    3.8446 O   0  0  0  0  0  0  0  0  0  0  0  0
    1.0134   -3.1187    2.8774 C   0  0  0  0  0  0  0  0  0  0  0  0
   -0.2444   -2.7143    3.2920 C   0  0  0  0  0  0  0  0  0  0  0  0
  1  2  1  0
  2  3  1  6
  2  4  1  0
  5  6  1  0
  6  7  1  0
  4  8  1  0
  6  8  1  0
  7  9  1  0
  7 10  2  0
  4 11  2  0
  5 12  1  0
 12 13  1  0
 13 14  2  0
 13 15  1  0
  8 16  1  1
  3 17  1  0
 17 18  1  0
 18 19  1  0
 19 20  1  0
  1  5  1  0
M  END

$$$$
No_618-/export/home/yangzhenyu/potential_scad_32_flow//YTHDC2/2024-12-06-03-22-00/
     RDKit          3D

 19 19  0  0  1  0  0  0  0  0999 V2000
    1.1787   -8.0297    3.5154 C   0  0  0  0  0  0  0  0  0  0  0  0
    1.0491   -6.8434    2.9820 C   0  0  0  0  0  0  0  0  0  0  0  0
    1.9985   -8.9840    2.8958 C   0  0  2  0  0  0  0  0  0  0  0  0
    1.7297   -9.2108    1.6335 C   0  0  0  0  0  0  0  0  0  0  0  0
    1.7343   -8.0566    0.8408 C   0  0  2  0  0  0  0  0  0  0  0  0
    1.0269   -6.8892    1.4456 C   0  0  0  0  0  0  0  0  0  0  0  0
    2.0740   -7.9416   -0.3682 C   0  0  0  0  0  0  0  0  0  0  0  0
    2.2588   -9.0634   -1.1089 C   0  0  0  0  0  0  0  0  0  0  0  0
    3.4999   -9.2524   -1.6422 Br  0  0  0  0  0  0  0  0  0  0  0  0
    1.9106  -10.3568    3.6126 C   0  0  0  0  0  0  0  0  0  0  0  0
    2.9069  -10.5317    4.4923 O   0  0  0  0  0  0  0  0  0  0  0  0
    1.3220  -11.4095    3.2767 O   0  0  0  0  0  0  0  0  0  0  0  0
    1.1038   -5.6778    0.8895 O   0  0  0  0  0  0  0  0  0  0  0  0
    1.2284   -9.8338   -1.2241 O   0  0  0  0  0  0  0  0  0  0  0  0
    0.7431   -5.7633    3.5442 O   0  0  0  0  0  0  0  0  0  0  0  0
    1.9055  -10.3548    1.1133 O   0  0  0  0  0  0  0  0  0  0  0  0
    3.2277  -11.7316    5.1328 C   0  0  0  0  0  0  0  0  0  0  0  0
    4.7495  -11.6317    5.0483 C   0  0  0  0  0  0  0  0  0  0  0  0
    5.3151  -10.3288    5.2535 F   0  0  0  0  0  0  0  0  0  0  0  0
  1  2  1  0
  1  3  1  0
  3  4  1  0
  4  5  1  0
  2  6  1  0
  5  6  1  0
  5  7  1  6
  7  8  1  0
  8  9  1  0
  3 10  1  1
 10 11  1  0
 10 12  2  0
  6 13  2  0
  8 14  2  0
  2 15  2  0
  4 16  2  0
 11 17  1  0
 17 18  1  0
 18 19  1  0
M  END

$$$$
No_619-/export/home/yangzhenyu/potential_scad_32_flow//YTHDC2/2024-12-06-03-22-00/
     RDKit          3D

 21 21  0  0  0  0  0  0  0  0999 V2000
    1.1787   -8.0297    3.5154 C   0  0  0  0  0  0  0  0  0  0  0  0
    1.0491   -6.8434    2.9820 C   0  0  0  0  0  0  0  0  0  0  0  0
    0.9905   -9.0774    2.6527 C   0  0  0  0  0  0  0  0  0  0  0  0
    0.7897   -8.9519    1.3691 C   0  0  0  0  0  0  0  0  0  0  0  0
    0.7018   -7.7198    0.7892 C   0  0  0  0  0  0  0  0  0  0  0  0
    0.8918   -6.5957    1.6117 C   0  0  0  0  0  0  0  0  0  0  0  0
    1.0774  -10.6059    3.3145 C   0  0  0  0  0  0  0  0  0  0  0  0
    1.2215  -11.6205    2.4178 N   0  0  0  0  0  0  0  0  0  0  0  0
    1.3494  -12.8632    2.9522 C   0  0  0  0  0  0  0  0  0  0  0  0
    0.9832  -13.9748    2.3339 C   0  0  0  0  0  0  0  0  0  0  0  0
    0.4223  -13.8569    1.0941 C   0  0  0  0  0  0  0  0  0  0  0  0
    1.0960  -15.2586    2.8506 C   0  0  0  0  0  0  0  0  0  0  0  0
    1.5160  -15.5928    3.8916 C   0  0  0  0  0  0  0  0  0  0  0  0
    1.1039  -10.6618    4.5425 O   0  0  0  0  0  0  0  0  0  0  0  0
    0.7868   -5.2925    1.0992 Cl  0  0  0  0  0  0  0  0  0  0  0  0
    0.9522  -14.4326    0.1827 C   0  0  0  0  0  0  0  0  0  0  0  0
    1.4456  -16.9209    4.2828 C   0  0  0  0  0  0  0  0  0  0  0  0
    2.2734  -17.8531    3.5844 N   0  0  0  0  0  0  0  0  0  0  0  0
    0.7190  -17.4231    5.3419 O   0  0  0  0  0  0  0  0  0  0  0  0
    0.2049  -14.6919   -1.0200 O   0  0  0  0  0  0  0  0  0  0  0  0
    2.8531  -17.5392    2.8192 H   0  0  0  0  0  0  0  0  0  0  0  0
  3  7  1  0
  7  8  1  0
  8  9  1  0
  9 10  1  0
 10 11  1  0
 10 12  1  0
 12 13  2  3
  7 14  2  0
  6 15  1  0
 11 16  1  0
 13 17  1  0
 17 18  2  0
 17 19  1  0
 16 20  2  0
  1  2  2  0
  2  6  1  0
  5  6  2  0
  4  5  1  0
  3  4  2  0
  1  3  1  0
 18 21  1  0
M  END

$$$$
No_620-/export/home/yangzhenyu/potential_scad_32_flow//YTHDC2/2024-12-06-03-22-00/
     RDKit          3D

 18 19  0  0  0  0  0  0  0  0999 V2000
    1.1787   -8.0297    3.5154 C   0  0  0  0  0  0  0  0  0  0  0  0
    1.1048   -9.2215    3.2892 C   0  0  0  0  0  0  0  0  0  0  0  0
    1.2339   -9.7611    2.0189 C   0  0  0  0  0  0  0  0  0  0  0  0
    1.1954  -11.2312    1.8661 C   0  0  0  0  0  0  0  0  0  0  0  0
    1.2996  -11.5815    0.5387 C   0  0  0  0  0  0  0  0  0  0  0  0
    1.3263   -7.1208    2.3229 C   0  0  0  0  0  0  0  0  0  0  0  0
    1.3693   -7.6408    1.0625 C   0  0  0  0  0  0  0  0  0  0  0  0
    1.4358   -8.9950    0.8622 C   0  0  0  0  0  0  0  0  0  0  0  0
    1.6034  -10.8414   -0.4738 C   0  0  0  0  0  0  0  0  0  0  0  0
    1.5954   -9.4621   -0.3677 C   0  0  0  0  0  0  0  0  0  0  0  0
    1.7474   -8.6617   -1.3337 O   0  0  0  0  0  0  0  0  0  0  0  0
    1.3238   -5.6170    2.5672 O   0  0  0  0  0  0  0  0  0  0  0  0
    1.0527  -11.9842    2.9434 C   0  0  0  0  0  0  0  0  0  0  0  0
    0.3120  -12.9928    2.9854 C   0  0  0  0  0  0  0  0  0  0  0  0
    0.9493  -14.3158    3.3712 C   0  0  0  0  0  0  0  0  0  0  0  0
    0.3710  -15.4952    3.1616 C   0  0  0  0  0  0  0  0  0  0  0  0
    1.0232  -16.7340    3.5919 C   0  0  0  0  0  0  0  0  0  0  0  0
    0.3742  -17.6494    4.0451 C   0  0  0  0  0  0  0  0  0  0  0  0
  3  4  1  0
  4  5  1  0
  8 10  1  0
  9 10  1  0
 10 11  2  0
  6 12  1  0
  4 13  1  0
 13 14  1  0
 14 15  1  0
 15 16  1  0
 16 17  1  0
 17 18  2  0
  5  9  1  0
  1  2  2  0
  2  3  1  0
  3  8  2  0
  7  8  1  0
  6  7  2  0
  1  6  1  0
M  END

$$$$
No_621-/export/home/yangzhenyu/potential_scad_32_flow//YTHDC2/2024-12-06-03-22-00/
     RDKit          3D

 20 20  0  0  0  0  0  0  0  0999 V2000
    1.1787   -8.0297    3.5154 C   0  0  0  0  0  0  0  0  0  0  0  0
    1.1048   -9.2215    3.2892 C   0  0  0  0  0  0  0  0  0  0  0  0
    1.2339   -9.7611    2.0189 C   0  0  0  0  0  0  0  0  0  0  0  0
    1.3583   -9.0036    0.9764 C   0  0  0  0  0  0  0  0  0  0  0  0
    1.5996   -7.6362    1.1311 C   0  0  0  0  0  0  0  0  0  0  0  0
    1.4830   -7.0928    2.3626 C   0  0  0  0  0  0  0  0  0  0  0  0
    1.1171  -11.3311    1.8661 N   0  0  0  0  0  0  0  0  0  0  0  0
    1.9263  -12.1218    2.2275 C   0  0  0  0  0  0  0  0  0  0  0  0
    1.6645  -13.4317    1.7783 C   0  0  0  0  0  0  0  0  0  0  0  0
    1.2472  -13.5403    0.5964 O   0  0  0  0  0  0  0  0  0  0  0  0
    2.2896  -14.4749    2.4013 O   0  0  0  0  0  0  0  0  0  0  0  0
    1.5337   -5.6463    2.6424 Cl  0  0  0  0  0  0  0  0  0  0  0  0
    1.5103   -9.5403   -0.3545 Cl  0  0  0  0  0  0  0  0  0  0  0  0
    0.9267  -10.1765    4.4177 Cl  0  0  0  0  0  0  0  0  0  0  0  0
   -0.2898  -11.6487    1.3411 C   0  0  0  0  0  0  0  0  0  0  0  0
   -1.3037  -11.7293    2.3088 C   0  0  0  0  0  0  0  0  0  0  0  0
   -2.1758  -10.8850    2.5635 O   0  0  0  0  0  0  0  0  0  0  0  0
   -1.6669  -13.0015    2.5633 N   0  0  0  0  0  0  0  0  0  0  0  0
   -1.1450  -14.2713    2.2314 C   0  0  0  0  0  0  0  0  0  0  0  0
   -1.8308  -14.8421    1.1881 C   0  0  0  0  0  0  0  0  0  0  0  0
  3  7  1  0
  7  8  1  0
  8  9  1  0
  9 10  1  0
  9 11  2  0
  6 12  1  0
  4 13  1  0
  2 14  1  0
  7 15  1  0
 15 16  1  0
 16 17  2  0
 16 18  1  0
 18 19  1  0
 19 20  1  0
  1  2  2  0
  2  3  1  0
  3  4  2  0
  4  5  1  0
  5  6  2  0
  1  6  1  0
M  END

$$$$
No_622-/export/home/yangzhenyu/potential_scad_32_flow//YTHDC2/2024-12-06-03-22-00/
     RDKit          3D

 18 17  0  0  1  0  0  0  0  0999 V2000
    1.1787   -8.0297    3.5154 I   0  0  0  0  0  0  0  0  0  0  0  0
    0.4528   -9.3028    2.7351 C   0  0  2  0  0  0  0  0  0  0  0  0
    1.1907  -10.6341    3.0061 C   0  0  1  0  0  0  0  0  0  0  0  0
    1.7191  -10.9493    4.0636 C   0  0  0  0  0  0  0  0  0  0  0  0
    1.0349  -11.6394    2.0327 C   0  0  0  0  0  0  0  0  0  0  0  0
    1.3303  -11.3846    0.6968 C   0  0  0  0  0  0  0  0  0  0  0  0
    0.7210  -11.9127   -0.1578 O   0  0  0  0  0  0  0  0  0  0  0  0
    2.3525  -10.5961    0.4507 O   0  0  0  0  0  0  0  0  0  0  0  0
    2.3736  -12.0096    4.4996 N   0  0  0  0  0  0  0  0  0  0  0  0
    0.1037   -9.0825    1.3262 C   0  0  0  0  0  0  0  0  0  0  0  0
   -1.2481   -9.5363    1.1027 O   0  0  0  0  0  0  0  0  0  0  0  0
    0.2974   -8.0092    0.5622 O   0  0  0  0  0  0  0  0  0  0  0  0
    1.7000  -12.9045    2.3634 O   0  0  0  0  0  0  0  0  0  0  0  0
    1.5930  -10.0356    5.2954 N   0  0  0  0  0  0  0  0  0  0  0  0
    0.4094   -8.0469   -0.5763 C   0  0  0  0  0  0  0  0  0  0  0  0
    1.3645   -8.6882   -1.3265 C   0  0  0  0  0  0  0  0  0  0  0  0
   -0.7722   -7.8925   -1.3962 C   0  0  0  0  0  0  0  0  0  0  0  0
    2.5631  -12.7790    3.8733 H   0  0  0  0  0  0  0  0  0  0  0  0
  2  1  1  6
  2  3  1  0
  3  4  1  0
  3  5  1  1
  5  6  1  0
  6  7  2  0
  6  8  1  0
  4  9  2  0
  2 10  1  0
 10 11  2  0
 10 12  1  0
  5 13  2  0
  4 14  1  0
 12 15  1  0
 15 16  1  0
 15 17  1  0
  9 18  1  0
M  END

$$$$
No_623-/export/home/yangzhenyu/potential_scad_32_flow//YTHDC2/2024-12-06-03-22-00/
     RDKit          3D

 18 18  0  0  1  0  0  0  0  0999 V2000
    1.1787   -8.0297    3.5154 C   0  0  0  0  0  0  0  0  0  0  0  0
    1.0491   -6.8434    2.9820 C   0  0  0  0  0  0  0  0  0  0  0  0
    0.9905   -9.0774    2.6527 C   0  0  1  0  0  0  0  0  0  0  0  0
    0.7897   -8.9519    1.3691 C   0  0  0  0  0  0  0  0  0  0  0  0
    0.7018   -7.7198    0.7892 C   0  0  0  0  0  0  0  0  0  0  0  0
    0.8918   -6.5957    1.6117 C   0  0  0  0  0  0  0  0  0  0  0  0
    1.0998  -10.4710    3.2437 C   0  0  2  0  0  0  0  0  0  0  0  0
    2.1917  -10.8879    3.7399 C   0  0  0  0  0  0  0  0  0  0  0  0
    0.8624   -5.2493    1.2482 O   0  0  0  0  0  0  0  0  0  0  0  0
    0.4950  -11.5086    2.3980 C   0  0  0  0  0  0  0  0  0  0  0  0
    0.4236  -12.7632    3.1115 C   0  0  0  0  0  0  0  0  0  0  0  0
    1.4326  -13.5190    2.8340 C   0  0  0  0  0  0  0  0  0  0  0  0
    1.1357  -14.9995    2.9431 C   0  0  0  0  0  0  0  0  0  0  0  0
    2.1846  -15.9843    2.6459 O   0  0  0  0  0  0  0  0  0  0  0  0
    0.1983  -15.5592    3.6350 O   0  0  0  0  0  0  0  0  0  0  0  0
    2.1248  -10.6743    5.2816 O   0  0  0  0  0  0  0  0  0  0  0  0
    3.4298  -10.9938    3.4963 O   0  0  0  0  0  0  0  0  0  0  0  0
    1.3947   -5.7520    3.8318 O   0  0  0  0  0  0  0  0  0  0  0  0
  1  2  1  0
  3  4  1  6
  2  6  1  0
  5  6  1  0
  3  7  1  0
  7  8  1  0
  6  9  2  0
  7 10  1  6
 10 11  1  0
 11 12  1  0
 12 13  1  0
 13 14  2  0
 13 15  1  0
  8 16  1  0
  8 17  2  0
  2 18  2  0
  1  3  1  0
  4  5  1  0
M  END

$$$$
No_624-/export/home/yangzhenyu/potential_scad_32_flow//YTHDC2/2024-12-06-03-22-00/
     RDKit          3D

 19 19  0  0  1  0  0  0  0  0999 V2000
    1.1787   -8.0297    3.5154 C   0  0  0  0  0  0  0  0  0  0  0  0
    1.0491   -6.8434    2.9820 C   0  0  0  0  0  0  0  0  0  0  0  0
    1.9985   -8.9840    2.8958 C   0  0  0  0  0  0  0  0  0  0  0  0
    1.1814  -10.1889    2.5497 C   0  0  1  0  0  0  0  0  0  0  0  0
    0.3496  -10.1352    1.6537 C   0  0  0  0  0  0  0  0  0  0  0  0
    0.7737   -9.6057    0.4354 O   0  0  0  0  0  0  0  0  0  0  0  0
   -0.8015  -10.6494    1.7184 N   0  0  0  0  0  0  0  0  0  0  0  0
    0.5233   -6.6436    1.6665 C   0  0  2  0  0  0  0  0  0  0  0  0
    1.2069   -6.2049    0.7648 O   0  0  0  0  0  0  0  0  0  0  0  0
   -1.1103  -11.4621    2.7393 C   0  0  0  0  0  0  0  0  0  0  0  0
    1.4349  -11.3560    3.1885 C   0  0  2  0  0  0  0  0  0  0  0  0
   -0.0002  -11.8770    3.6401 C   0  0  0  0  0  0  0  0  0  0  0  0
   -0.7827   -6.0783    1.5623 C   0  0  1  0  0  0  0  0  0  0  0  0
   -2.2553  -11.8963    3.0574 O   0  0  0  0  0  0  0  0  0  0  0  0
   -1.5089   -6.2282    0.4090 F   0  0  0  0  0  0  0  0  0  0  0  0
   -1.7955   -6.7690    2.5154 Cl  0  0  0  0  0  0  0  0  0  0  0  0
    1.7801   -5.7513    3.4624 S   0  0  0  0  0  0  0  0  0  0  0  0
    2.4994  -11.7760    3.7136 C   0  0  0  0  0  0  0  0  0  0  0  0
    3.1186  -10.8358    4.7001 O   0  0  0  0  0  0  0  0  0  0  0  0
  1  2  1  0
  1  3  1  0
  4  3  1  6
  4  5  1  0
  5  6  2  0
  5  7  1  0
  2  8  1  0
  8  9  1  6
  7 10  1  0
  4 11  1  0
 10 12  1  0
 11 12  1  0
  8 13  1  0
 10 14  2  0
 13 15  1  6
 13 16  1  0
  2 17  2  0
 11 18  1  1
 18 19  1  0
M  END

$$$$
No_625-/export/home/yangzhenyu/potential_scad_32_flow//YTHDC2/2024-12-06-03-22-00/
     RDKit          3D

 19 20  0  0  1  0  0  0  0  0999 V2000
    1.1787   -8.0297    3.5154 O   0  0  0  0  0  0  0  0  0  0  0  0
    0.9969   -8.9689    3.0048 C   0  0  0  0  0  0  0  0  0  0  0  0
    1.3055  -10.1056    3.6616 C   0  0  0  0  0  0  0  0  0  0  0  0
    2.1315  -10.4529    4.2438 C   0  0  0  0  0  0  0  0  0  0  0  0
    0.4484   -8.8156    1.7225 C   0  0  0  0  0  0  0  0  0  0  0  0
    0.5531   -9.6870    0.8856 O   0  0  0  0  0  0  0  0  0  0  0  0
   -0.2833   -7.6475    1.4315 C   0  0  1  0  0  0  0  0  0  0  0  0
   -1.4695   -7.5874    1.4078 C   0  0  0  0  0  0  0  0  0  0  0  0
   -2.1335   -6.4324    1.1408 C   0  0  0  0  0  0  0  0  0  0  0  0
   -1.3771   -5.1960    0.8862 C   0  0  2  0  0  0  0  0  0  0  0  0
    0.0260   -5.2100    0.9857 C   0  0  0  0  0  0  0  0  0  0  0  0
    0.6387   -6.4191    1.3886 C   0  0  0  0  0  0  0  0  0  0  0  0
    0.0536  -11.1024    3.6903 C   0  0  0  0  0  0  0  0  0  0  0  0
    0.2345  -12.3489    3.8598 C   0  0  0  0  0  0  0  0  0  0  0  0
    1.5876  -12.7608    4.2578 C   0  0  0  0  0  0  0  0  0  0  0  0
    2.5504  -11.8510    4.4128 C   0  0  0  0  0  0  0  0  0  0  0  0
   -2.1014   -3.8548    0.5866 Cl  0  0  0  0  0  0  0  0  0  0  0  0
    1.9873   -6.4765    1.3419 O   0  0  0  0  0  0  0  0  0  0  0  0
    1.7790  -14.2105    4.4073 O   0  0  0  0  0  0  0  0  0  0  0  0
  1  2  1  0
  2  3  1  0
  2  5  1  0
  5  6  2  0
  7  5  1  1
  7  8  1  0
  9 10  1  0
  7 12  1  0
 11 12  1  0
 10 17  1  1
 12 18  2  0
 15 19  1  0
  8  9  1  0
 10 11  1  0
  3  4  2  0
  4 16  1  0
 15 16  2  0
 14 15  1  0
 13 14  2  0
  3 13  1  0
M  END

$$$$
No_626-/export/home/yangzhenyu/potential_scad_32_flow//YTHDC2/2024-12-06-03-22-00/
     RDKit          3D

 17 17  0  0  0  0  0  0  0  0999 V2000
    1.1787   -8.0297    3.5154 C   0  0  0  0  0  0  0  0  0  0  0  0
    1.0491   -6.8434    2.9820 C   0  0  0  0  0  0  0  0  0  0  0  0
    0.0950   -8.8404    3.2292 C   0  0  0  0  0  0  0  0  0  0  0  0
   -0.9173   -8.4596    2.5152 C   0  0  0  0  0  0  0  0  0  0  0  0
   -1.0331   -7.2162    2.0653 C   0  0  0  0  0  0  0  0  0  0  0  0
   -0.0105   -6.3168    2.3081 C   0  0  0  0  0  0  0  0  0  0  0  0
    0.1150   -4.9910    1.8495 C   0  0  0  0  0  0  0  0  0  0  0  0
   -0.5774   -4.1593    2.0596 O   0  0  0  0  0  0  0  0  0  0  0  0
    1.1226   -4.6805    0.9513 P   0  0  0  0  0  0  0  0  0  0  0  0
    2.1727   -5.5631    0.6653 O   0  0  0  0  0  0  0  0  0  0  0  0
    1.8451   -3.3434    1.5698 O   0  0  0  0  0  0  0  0  0  0  0  0
    0.2086  -10.3913    3.8658 Cl  0  0  0  0  0  0  0  0  0  0  0  0
    0.6349   -4.0829   -0.3340 O   0  0  0  0  0  0  0  0  0  0  0  0
   -2.4362   -6.8454    1.2272 N   0  0  0  0  0  0  0  0  0  0  0  0
   -3.2876   -6.5583    2.0057 C   0  0  0  0  0  0  0  0  0  0  0  0
   -3.5206   -6.7308    3.0804 C   0  0  0  0  0  0  0  0  0  0  0  0
   -4.7144   -6.3643    3.7599 C   0  0  0  0  0  0  0  0  0  0  0  0
  6  7  1  0
  7  8  2  0
  7  9  1  0
  9 10  1  0
  9 11  2  0
  3 12  1  0
  9 13  1  0
  5 14  1  0
 14 15  1  0
 15 16  1  0
 16 17  2  0
  1  2  2  0
  2  6  1  0
  5  6  2  0
  4  5  1  0
  3  4  2  0
  1  3  1  0
M  END

$$$$
No_627-/export/home/yangzhenyu/potential_scad_32_flow//YTHDC2/2024-12-06-03-22-00/
     RDKit          3D

 20 20  0  0  1  0  0  0  0  0999 V2000
    1.1787   -8.0297    3.5154 C   0  0  0  0  0  0  0  0  0  0  0  0
    1.0491   -6.8434    2.9820 C   0  0  1  0  0  0  0  0  0  0  0  0
    1.9985   -8.9840    2.8958 C   0  0  2  0  0  0  0  0  0  0  0  0
    1.7297   -9.2108    1.6335 C   0  0  0  0  0  0  0  0  0  0  0  0
    1.7343   -8.0566    0.8408 C   0  0  2  0  0  0  0  0  0  0  0  0
    1.0269   -6.8892    1.4456 C   0  0  0  0  0  0  0  0  0  0  0  0
    2.0740   -7.9416   -0.3682 C   0  0  0  0  0  0  0  0  0  0  0  0
    1.3156   -7.8710   -1.3006 Cl  0  0  0  0  0  0  0  0  0  0  0  0
    3.4477   -8.2048   -0.6747 O   0  0  0  0  0  0  0  0  0  0  0  0
    1.9779  -10.3616    3.6072 C   0  0  0  0  0  0  0  0  0  0  0  0
    1.1508  -11.2915    3.3971 C   0  0  0  0  0  0  0  0  0  0  0  0
    1.4928  -12.6382    3.4176 C   0  0  0  0  0  0  0  0  0  0  0  0
    1.1559  -13.3094    2.2496 C   0  0  0  0  0  0  0  0  0  0  0  0
    1.9396  -14.5403    2.0657 C   0  0  0  0  0  0  0  0  0  0  0  0
    1.8051  -15.3366    1.2505 O   0  0  0  0  0  0  0  0  0  0  0  0
    2.9489  -14.9816    2.8034 O   0  0  0  0  0  0  0  0  0  0  0  0
    1.8756  -10.3501    0.9422 O   0  0  0  0  0  0  0  0  0  0  0  0
    0.7687   -5.6767    3.5272 C   0  0  0  0  0  0  0  0  0  0  0  0
    0.7386   -4.6177    3.2034 C   0  0  0  0  0  0  0  0  0  0  0  0
    1.7191   -4.1095    2.2797 O   0  0  0  0  0  0  0  0  0  0  0  0
  2  1  1  1
  1  3  1  0
  3  4  1  0
  4  5  1  0
  2  6  1  0
  5  6  1  0
  5  7  1  6
  7  8  1  0
  7  9  2  0
  3 10  1  1
 10 11  1  0
 11 12  1  0
 12 13  1  0
 13 14  1  0
 14 15  2  0
 14 16  1  0
  4 17  2  0
  2 18  1  0
 18 19  2  3
 19 20  1  0
M  END

$$$$
No_628-/export/home/yangzhenyu/potential_scad_32_flow//YTHDC2/2024-12-06-03-22-00/
     RDKit          3D

 19 19  0  0  0  0  0  0  0  0999 V2000
    1.1787   -8.0297    3.5154 C   0  0  0  0  0  0  0  0  0  0  0  0
    1.0491   -6.8434    2.9820 C   0  0  0  0  0  0  0  0  0  0  0  0
    1.0690   -9.1150    2.7206 C   0  0  0  0  0  0  0  0  0  0  0  0
    0.9689   -6.6391    1.6260 C   0  0  0  0  0  0  0  0  0  0  0  0
    0.9670   -9.0334    1.3824 C   0  0  0  0  0  0  0  0  0  0  0  0
    0.8189   -7.7113    0.8022 C   0  0  0  0  0  0  0  0  0  0  0  0
    1.2114  -10.5217    3.2468 C   0  0  0  0  0  0  0  0  0  0  0  0
    0.2824  -11.3381    3.2295 N   0  0  0  0  0  0  0  0  0  0  0  0
   -0.9590  -11.1485    3.2152 C   0  0  0  0  0  0  0  0  0  0  0  0
    0.5766  -12.8251    3.2022 C   0  0  0  0  0  0  0  0  0  0  0  0
    1.9721  -13.1691    3.4356 P   0  0  0  0  0  0  0  0  0  0  0  0
    2.7996  -12.2988    3.7520 O   0  0  0  0  0  0  0  0  0  0  0  0
    2.5044  -13.7359    1.8891 O   0  0  0  0  0  0  0  0  0  0  0  0
    0.9231   -5.3286    1.0597 Cl  0  0  0  0  0  0  0  0  0  0  0  0
    2.1156  -14.7214    3.9466 O   0  0  0  0  0  0  0  0  0  0  0  0
   -1.6225  -10.4142    4.2458 C   0  0  0  0  0  0  0  0  0  0  0  0
   -2.8886   -9.9176    4.2175 C   0  0  0  0  0  0  0  0  0  0  0  0
   -3.5983  -10.2817    3.1810 C   0  0  0  0  0  0  0  0  0  0  0  0
   -3.0951  -10.9471    2.1570 C   0  0  0  0  0  0  0  0  0  0  0  0
  3  7  1  0
  7  8  1  0
  8  9  1  0
  8 10  1  0
 10 11  1  0
 11 12  2  0
 11 13  1  0
  4 14  1  0
 11 15  1  0
  9 16  1  0
 16 17  2  3
 17 18  1  0
 18 19  2  0
  1  2  2  0
  2  4  1  0
  4  6  2  0
  5  6  1  0
  3  5  2  0
  1  3  1  0
M  END

$$$$
No_629-/export/home/yangzhenyu/potential_scad_32_flow//YTHDC2/2024-12-06-03-22-00/
     RDKit          3D

 19 20  0  0  1  0  0  0  0  0999 V2000
    1.1787   -8.0297    3.5154 O   0  0  0  0  0  0  0  0  0  0  0  0
    0.6747   -7.4019    2.7838 C   0  0  0  0  0  0  0  0  0  0  0  0
    0.5570   -6.0797    2.8560 O   0  0  0  0  0  0  0  0  0  0  0  0
    0.6564   -7.9917    1.3044 C   0  0  0  0  0  0  0  0  0  0  0  0
   -0.1985   -7.7581    0.6948 C   0  0  0  0  0  0  0  0  0  0  0  0
    1.7889   -8.7456    0.9018 C   0  0  0  0  0  0  0  0  0  0  0  0
    1.8718   -9.1814   -0.3091 C   0  0  0  0  0  0  0  0  0  0  0  0
    0.8239   -9.0318   -1.1087 C   0  0  0  0  0  0  0  0  0  0  0  0
   -0.2628   -8.3356   -0.6993 C   0  0  0  0  0  0  0  0  0  0  0  0
   -1.6685   -8.1477   -1.5898 C   0  0  0  0  0  0  0  0  0  0  0  0
   -2.2848   -9.2061   -1.8582 O   0  0  0  0  0  0  0  0  0  0  0  0
   -1.7640   -7.0109   -2.1424 O   0  0  0  0  0  0  0  0  0  0  0  0
   -1.9175   -6.8700   -3.4753 C   0  0  1  0  0  0  0  0  0  0  0  0
   -2.7114   -5.8652   -3.9053 C   0  0  0  0  0  0  0  0  0  0  0  0
   -2.6860   -5.3969   -4.9993 C   0  0  0  0  0  0  0  0  0  0  0  0
   -1.9569   -6.0928   -6.0791 C   0  0  0  0  0  0  0  0  0  0  0  0
   -1.1631   -7.1149   -5.7356 C   0  0  0  0  0  0  0  0  0  0  0  0
   -1.0822   -7.4969   -4.3791 C   0  0  0  0  0  0  0  0  0  0  0  0
   -0.3503   -8.5934   -4.1234 O   0  0  0  0  0  0  0  0  0  0  0  0
  1  2  1  0
  2  3  2  0
  2  4  1  0
  9 10  1  0
 10 11  2  0
 10 12  1  0
 13 12  1  1
 13 14  1  0
 15 16  1  0
 13 18  1  0
 17 18  1  0
 18 19  2  0
 14 15  1  0
 16 17  1  0
  4  5  2  0
  5  9  1  0
  8  9  2  0
  7  8  1  0
  6  7  2  0
  4  6  1  0
M  END

$$$$
No_630-/export/home/yangzhenyu/potential_scad_32_flow//YTHDC2/2024-12-06-03-22-00/
     RDKit          3D

 17 17  0  0  1  0  0  0  0  0999 V2000
    1.1787   -8.0297    3.5154 C   0  0  0  0  0  0  0  0  0  0  0  0
    1.0491   -6.8434    2.9820 C   0  0  2  0  0  0  0  0  0  0  0  0
    1.9985   -8.9840    2.8958 C   0  0  2  0  0  0  0  0  0  0  0  0
    1.7297   -9.2108    1.6335 C   0  0  0  0  0  0  0  0  0  0  0  0
    1.7343   -8.0566    0.8408 C   0  0  2  0  0  0  0  0  0  0  0  0
    1.0269   -6.8892    1.4456 C   0  0  0  0  0  0  0  0  0  0  0  0
    2.0740   -7.9416   -0.3682 C   0  0  0  0  0  0  0  0  0  0  0  0
    2.2588   -9.0634   -1.1089 C   0  0  0  0  0  0  0  0  0  0  0  0
    1.3343   -9.8745   -1.3425 O   0  0  0  0  0  0  0  0  0  0  0  0
    3.3542   -9.0471   -2.0172 O   0  0  0  0  0  0  0  0  0  0  0  0
    1.9252  -10.3515    3.6297 C   0  0  0  0  0  0  0  0  0  0  0  0
    2.8959  -10.5087    4.5015 O   0  0  0  0  0  0  0  0  0  0  0  0
    1.0778  -11.2693    3.5320 O   0  0  0  0  0  0  0  0  0  0  0  0
    0.0361   -6.2878    0.9688 O   0  0  0  0  0  0  0  0  0  0  0  0
    1.1522   -5.5836    3.4313 C   0  0  0  0  0  0  0  0  0  0  0  0
    0.2428   -4.6486    3.2366 O   0  0  0  0  0  0  0  0  0  0  0  0
    2.1037   -5.1287    4.2638 O   0  0  0  0  0  0  0  0  0  0  0  0
  1  2  1  0
  1  3  1  0
  3  4  1  0
  4  5  1  0
  2  6  1  0
  5  6  1  0
  5  7  1  6
  7  8  1  0
  8  9  1  0
  8 10  2  0
  3 11  1  1
 11 12  1  0
 11 13  2  0
  6 14  2  0
  2 15  1  6
 15 16  2  0
 15 17  1  0
M  END

$$$$
No_631-/export/home/yangzhenyu/potential_scad_32_flow//YTHDC2/2024-12-06-03-22-00/
     RDKit          3D

 20 20  0  0  1  0  0  0  0  0999 V2000
    1.1787   -8.0297    3.5154 O   0  0  0  0  0  0  0  0  0  0  0  0
    0.9969   -8.9689    3.0048 C   0  0  1  0  0  0  0  0  0  0  0  0
    0.9976   -8.9567    1.6341 C   0  0  2  0  0  0  0  0  0  0  0  0
    1.6062   -9.9071    0.9292 C   0  0  1  0  0  0  0  0  0  0  0  0
    2.1191  -10.9757    1.6503 C   0  0  0  0  0  0  0  0  0  0  0  0
    2.1177  -10.9891    3.0403 C   0  0  1  0  0  0  0  0  0  0  0  0
    1.5441   -9.8905    3.6897 C   0  0  0  0  0  0  0  0  0  0  0  0
    0.4333   -7.7031    1.0153 C   0  0  0  0  0  0  0  0  0  0  0  0
   -0.5264   -8.0196    0.1598 Cl  0  0  0  0  0  0  0  0  0  0  0  0
    1.6163  -10.1858    5.0382 O   0  0  0  0  0  0  0  0  0  0  0  0
    1.0516   -6.5156    1.0914 O   0  0  0  0  0  0  0  0  0  0  0  0
    2.5806  -12.1956    3.5745 C   0  0  0  0  0  0  0  0  0  0  0  0
    1.6615  -13.4101    3.5073 O   0  0  0  0  0  0  0  0  0  0  0  0
    1.9212  -14.6041    2.8209 C   0  0  0  0  0  0  0  0  0  0  0  0
    2.9184  -14.4840    1.8878 C   0  0  0  0  0  0  0  0  0  0  0  0
    1.2964  -15.6632    3.0109 O   0  0  0  0  0  0  0  0  0  0  0  0
    2.6898  -15.1727    0.7630 O   0  0  0  0  0  0  0  0  0  0  0  0
    3.7196  -13.5185    1.6890 O   0  0  0  0  0  0  0  0  0  0  0  0
    1.6348   -9.9535   -0.4334 O   0  0  0  0  0  0  0  0  0  0  0  0
    2.1602   -8.8869   -1.2009 C   0  0  0  0  0  0  0  0  0  0  0  0
  2  1  1  1
  2  3  1  0
  4  5  1  0
  2  7  1  0
  6  7  1  0
  3  8  1  1
  8  9  1  0
  7 10  2  0
  8 11  2  0
  6 12  1  6
 12 13  1  0
 13 14  1  0
 14 15  1  0
 14 16  2  0
 15 17  2  0
 15 18  1  0
  4 19  1  6
 19 20  1  0
  3  4  1  0
  5  6  1  0
M  END

$$$$
No_632-/export/home/yangzhenyu/potential_scad_32_flow//YTHDC2/2024-12-06-03-22-00/
     RDKit          3D

 21 22  0  0  1  0  0  0  0  0999 V2000
    1.1787   -8.0297    3.5154 C   0  0  0  0  0  0  0  0  0  0  0  0
    1.1048   -9.2215    3.2892 C   0  0  0  0  0  0  0  0  0  0  0  0
    1.3627  -10.1721    4.3044 C   0  0  0  0  0  0  0  0  0  0  0  0
    1.7354  -11.4730    3.9023 C   0  0  0  0  0  0  0  0  0  0  0  0
    1.8080  -11.8127    2.7216 C   0  0  0  0  0  0  0  0  0  0  0  0
    1.5854  -11.0021    1.7249 C   0  0  0  0  0  0  0  0  0  0  0  0
    1.3573   -9.7389    1.9287 C   0  0  0  0  0  0  0  0  0  0  0  0
    1.2865   -8.8078    0.9161 C   0  0  0  0  0  0  0  0  0  0  0  0
    1.6845   -9.1638   -0.2896 O   0  0  0  0  0  0  0  0  0  0  0  0
    0.9852   -7.5566    1.1137 O   0  0  0  0  0  0  0  0  0  0  0  0
    2.0809  -13.2098    2.3190 O   0  0  0  0  0  0  0  0  0  0  0  0
    1.8812  -13.7276    1.0598 C   0  0  0  0  0  0  0  0  0  0  0  0
    0.5750  -13.9147    0.7905 C   0  0  2  0  0  0  0  0  0  0  0  0
    0.1583  -13.3965   -0.3589 C   0  0  0  0  0  0  0  0  0  0  0  0
   -1.1893  -13.2921   -0.6619 C   0  0  0  0  0  0  0  0  0  0  0  0
   -2.0474  -13.7669    0.1259 C   0  0  0  0  0  0  0  0  0  0  0  0
   -1.6882  -14.3001    1.3766 C   0  0  0  0  0  0  0  0  0  0  0  0
   -0.3484  -14.3023    1.7370 C   0  0  0  0  0  0  0  0  0  0  0  0
    0.0501  -14.9964    2.8608 O   0  0  0  0  0  0  0  0  0  0  0  0
    2.4850   -7.3972    3.6829 O   0  0  0  0  0  0  0  0  0  0  0  0
    0.1669   -7.3317    3.7429 O   0  0  0  0  0  0  0  0  0  0  0  0
  1  2  1  0
  7  8  1  0
  8  9  1  0
  8 10  2  0
  5 11  1  0
 11 12  1  0
 13 12  1  1
 13 14  1  0
 15 16  1  0
 13 18  1  0
 17 18  1  0
 18 19  2  0
  1 20  1  0
  1 21  2  0
 14 15  1  0
 16 17  1  0
  2  3  2  0
  3  4  1  0
  4  5  2  0
  5  6  1  0
  6  7  2  0
  2  7  1  0
M  END

$$$$
No_633-/export/home/yangzhenyu/potential_scad_32_flow//YTHDC2/2024-12-06-03-22-00/
     RDKit          3D

 20 20  0  0  1  0  0  0  0  0999 V2000
    1.1787   -8.0297    3.5154 O   0  0  0  0  0  0  0  0  0  0  0  0
    0.9969   -8.9689    3.0048 C   0  0  1  0  0  0  0  0  0  0  0  0
    0.9976   -8.9567    1.6341 C   0  0  2  0  0  0  0  0  0  0  0  0
    1.6062   -9.9071    0.9292 C   0  0  0  0  0  0  0  0  0  0  0  0
    2.1191  -10.9757    1.6503 C   0  0  0  0  0  0  0  0  0  0  0  0
    2.1177  -10.9891    3.0403 C   0  0  0  0  0  0  0  0  0  0  0  0
    2.6075  -12.0101    3.7833 C   0  0  0  0  0  0  0  0  0  0  0  0
    1.5262   -9.8867    3.6017 C   0  0  0  0  0  0  0  0  0  0  0  0
    0.4294   -7.6694    0.9630 C   0  0  0  0  0  0  0  0  0  0  0  0
   -0.4370   -7.9569    0.0260 O   0  0  0  0  0  0  0  0  0  0  0  0
    0.8512   -6.5237    1.0878 O   0  0  0  0  0  0  0  0  0  0  0  0
    2.1645  -13.1921    3.4254 O   0  0  0  0  0  0  0  0  0  0  0  0
    3.4169  -11.8442    4.7335 O   0  0  0  0  0  0  0  0  0  0  0  0
   -0.5265   -9.2804    3.3167 O   0  0  0  0  0  0  0  0  0  0  0  0
   -0.9550   -9.3609    4.6244 C   0  0  0  0  0  0  0  0  0  0  0  0
   -2.2849   -9.4955    4.8536 C   0  0  0  0  0  0  0  0  0  0  0  0
   -2.7626  -10.7169    4.7209 C   0  0  2  0  0  0  0  0  0  0  0  0
   -2.1079  -11.5304    3.7358 C   0  0  0  0  0  0  0  0  0  0  0  0
   -4.1909  -10.8638    4.6931 C   0  0  0  0  0  0  0  0  0  0  0  0
   -4.9960   -9.9530    5.0991 C   0  0  0  0  0  0  0  0  0  0  0  0
  2  1  1  1
  2  3  1  0
  4  5  1  0
  6  7  1  0
  2  8  1  0
  6  8  1  0
  3  9  1  1
  9 10  2  0
  9 11  1  0
  7 12  2  0
  7 13  1  0
  2 14  1  0
 14 15  1  0
 15 16  1  0
 16 17  1  0
 17 18  1  6
 17 19  1  0
 19 20  1  0
  3  4  1  0
  5  6  1  0
M  END

$$$$
No_634-/export/home/yangzhenyu/potential_scad_32_flow//YTHDC2/2024-12-06-03-22-00/
     RDKit          3D

 18 19  0  0  1  0  0  0  0  0999 V2000
    1.1787   -8.0297    3.5154 C   0  0  0  0  0  0  0  0  0  0  0  0
    1.0491   -6.8434    2.9820 C   0  0  0  0  0  0  0  0  0  0  0  0
    0.0950   -8.8404    3.2292 C   0  0  0  0  0  0  0  0  0  0  0  0
   -0.9173   -8.4596    2.5152 C   0  0  0  0  0  0  0  0  0  0  0  0
   -1.0331   -7.2162    2.0653 C   0  0  0  0  0  0  0  0  0  0  0  0
   -0.0105   -6.3168    2.3081 C   0  0  0  0  0  0  0  0  0  0  0  0
    0.1150   -4.9910    1.8495 C   0  0  0  0  0  0  0  0  0  0  0  0
    0.9121   -4.1017    2.4010 Cl  0  0  0  0  0  0  0  0  0  0  0  0
    0.1307  -10.2791    3.6694 C   0  0  2  0  0  0  0  0  0  0  0  0
   -1.0913  -10.9548    3.8044 C   0  0  0  0  0  0  0  0  0  0  0  0
    1.3043  -10.8009    4.3529 C   0  0  0  0  0  0  0  0  0  0  0  0
    1.3812  -12.1583    4.4987 C   0  0  0  0  0  0  0  0  0  0  0  0
   -1.0000  -12.3350    4.0376 C   0  0  2  0  0  0  0  0  0  0  0  0
    0.3143  -12.9101    4.3172 C   0  0  0  0  0  0  0  0  0  0  0  0
   -0.6057   -4.5436    0.8131 O   0  0  0  0  0  0  0  0  0  0  0  0
    0.4146  -14.2337    4.2414 O   0  0  0  0  0  0  0  0  0  0  0  0
   -2.0658  -13.0936    3.7703 C   0  0  0  0  0  0  0  0  0  0  0  0
   -3.3272  -12.6926    4.0914 O   0  0  0  0  0  0  0  0  0  0  0  0
  6  7  1  0
  7  8  1  0
  9  3  1  1
  9 11  1  0
 10 13  1  0
 12 14  1  0
 13 14  1  0
  7 15  2  0
 14 16  2  0
 13 17  1  6
 17 18  1  0
 11 12  1  0
  9 10  1  0
  1  2  2  0
  2  6  1  0
  5  6  2  0
  4  5  1  0
  3  4  2  0
  1  3  1  0
M  END

$$$$
No_635-/export/home/yangzhenyu/potential_scad_32_flow//YTHDC2/2024-12-06-03-22-00/
     RDKit          3D

 18 18  0  0  0  0  0  0  0  0999 V2000
    1.1787   -8.0297    3.5154 C   0  0  0  0  0  0  0  0  0  0  0  0
    1.1048   -9.2215    3.2892 C   0  0  0  0  0  0  0  0  0  0  0  0
    1.3627  -10.1721    4.3044 C   0  0  0  0  0  0  0  0  0  0  0  0
    2.3720  -10.8948    4.2468 C   0  0  0  0  0  0  0  0  0  0  0  0
    1.0579   -7.0441    2.4219 C   0  0  0  0  0  0  0  0  0  0  0  0
    0.8578   -7.4970    1.1686 C   0  0  0  0  0  0  0  0  0  0  0  0
    0.7382   -8.7683    0.8754 C   0  0  0  0  0  0  0  0  0  0  0  0
    0.8882   -9.7347    1.9238 C   0  0  0  0  0  0  0  0  0  0  0  0
    0.9437  -11.0299    1.7005 C   0  0  0  0  0  0  0  0  0  0  0  0
   -0.0869  -11.8512    1.8957 O   0  0  0  0  0  0  0  0  0  0  0  0
    2.1389  -11.6243    1.3057 O   0  0  0  0  0  0  0  0  0  0  0  0
    1.1879   -5.6004    2.6782 O   0  0  0  0  0  0  0  0  0  0  0  0
    3.5435  -10.3230    5.0650 C   0  0  0  0  0  0  0  0  0  0  0  0
    3.1737  -10.0724    6.3712 O   0  0  0  0  0  0  0  0  0  0  0  0
    4.6790  -11.0265    5.0636 O   0  0  0  0  0  0  0  0  0  0  0  0
    0.5632   -9.2411   -0.4118 C   0  0  0  0  0  0  0  0  0  0  0  0
   -0.7731   -9.6462   -0.7683 O   0  0  0  0  0  0  0  0  0  0  0  0
    1.2252   -8.7315   -1.4249 O   0  0  0  0  0  0  0  0  0  0  0  0
  2  3  1  0
  3  4  1  0
  8  9  1  0
  9 10  2  0
  9 11  1  0
  5 12  1  0
  4 13  1  0
 13 14  1  0
 13 15  2  0
  7 16  1  0
 16 17  2  0
 16 18  1  0
  1  2  2  0
  2  8  1  0
  7  8  2  0
  6  7  1  0
  5  6  2  0
  1  5  1  0
M  END

$$$$
No_636-/export/home/yangzhenyu/potential_scad_32_flow//YTHDC2/2024-12-06-03-22-00/
     RDKit          3D

 17 17  0  0  0  0  0  0  0  0999 V2000
    1.1787   -8.0297    3.5154 N   0  0  0  0  0  0  0  0  0  0  0  0
    1.0818   -9.0751    3.2053 C   0  0  0  0  0  0  0  0  0  0  0  0
    1.5216  -10.1164    3.9747 C   0  0  0  0  0  0  0  0  0  0  0  0
    1.4420  -11.4363    3.6461 Br  0  0  0  0  0  0  0  0  0  0  0  0
    1.0943   -6.9825    2.5921 C   0  0  0  0  0  0  0  0  0  0  0  0
    0.8901   -7.2263    1.2644 C   0  0  0  0  0  0  0  0  0  0  0  0
    0.8291   -8.4800    0.8578 C   0  0  0  0  0  0  0  0  0  0  0  0
    0.9957   -9.5224    1.8168 C   0  0  0  0  0  0  0  0  0  0  0  0
    0.7207   -8.8576   -0.4723 C   0  0  0  0  0  0  0  0  0  0  0  0
    1.6479   -9.1059   -1.1486 C   0  0  0  0  0  0  0  0  0  0  0  0
    2.8197   -9.6539   -0.6186 O   0  0  0  0  0  0  0  0  0  0  0  0
    1.9889   -8.7403   -2.2739 O   0  0  0  0  0  0  0  0  0  0  0  0
    1.1824   -5.5688    3.2003 I   0  0  0  0  0  0  0  0  0  0  0  0
    2.2953   -9.8565    5.2121 O   0  0  0  0  0  0  0  0  0  0  0  0
   -0.5159   -8.9706   -1.0621 C   0  0  0  0  0  0  0  0  0  0  0  0
   -1.2023   -8.0033   -1.7647 O   0  0  0  0  0  0  0  0  0  0  0  0
   -1.2062  -10.1342   -1.0780 O   0  0  0  0  0  0  0  0  0  0  0  0
  2  3  1  0
  3  4  1  0
  7  9  1  0
  9 10  1  0
 10 11  1  0
 10 12  2  0
  5 13  1  0
  3 14  2  0
  9 15  1  0
 15 16  1  0
 15 17  2  0
  1  2  2  0
  2  8  1  0
  7  8  2  0
  6  7  1  0
  5  6  2  0
  1  5  1  0
M  END

$$$$
No_637-/export/home/yangzhenyu/potential_scad_32_flow//YTHDC2/2024-12-06-03-22-00/
     RDKit          3D

 18 20  0  0  0  0  0  0  0  0999 V2000
    1.1787   -8.0297    3.5154 C   0  0  0  0  0  0  0  0  0  0  0  0
    1.1048   -9.2215    3.2892 C   0  0  0  0  0  0  0  0  0  0  0  0
    1.3627  -10.1721    4.3044 C   0  0  0  0  0  0  0  0  0  0  0  0
    1.7354  -11.4730    3.9023 C   0  0  0  0  0  0  0  0  0  0  0  0
    1.8080  -11.8127    2.7216 C   0  0  0  0  0  0  0  0  0  0  0  0
    1.5854  -11.0021    1.7249 C   0  0  0  0  0  0  0  0  0  0  0  0
    1.7690  -11.5851    0.3632 C   0  0  0  0  0  0  0  0  0  0  0  0
    1.3152   -9.6753    1.9048 C   0  0  0  0  0  0  0  0  0  0  0  0
    1.1580   -8.8186    0.9568 C   0  0  0  0  0  0  0  0  0  0  0  0
    0.0189   -8.3926    0.5468 C   0  0  0  0  0  0  0  0  0  0  0  0
   -0.1284   -7.5305   -0.6737 C   0  0  0  0  0  0  0  0  0  0  0  0
    0.3194   -7.9918   -1.7207 C   0  0  0  0  0  0  0  0  0  0  0  0
    1.4753   -8.8470   -1.5803 C   0  0  0  0  0  0  0  0  0  0  0  0
    1.9040   -9.2685   -0.2853 C   0  0  0  0  0  0  0  0  0  0  0  0
    2.0912  -13.1777    2.4689 N   0  0  0  0  0  0  0  0  0  0  0  0
    1.7303  -13.7574    1.3238 C   0  0  0  0  0  0  0  0  0  0  0  0
    1.7367  -13.0181    0.3087 N   0  0  0  0  0  0  0  0  0  0  0  0
   -0.0331   -7.6379   -3.0582 O   0  0  0  0  0  0  0  0  0  0  0  0
  1  2  1  0
  8  9  1  0
 12 18  1  0
  2  3  2  0
  3  4  1  0
  4  5  2  0
  6  8  2  0
  2  8  1  0
  9 10  2  0
 10 11  1  0
 11 12  2  0
 12 13  1  0
 13 14  2  0
  9 14  1  0
  5  6  1  0
  6  7  1  0
  7 17  2  0
 16 17  1  0
 15 16  2  0
  5 15  1  0
M  END

$$$$
No_638-/export/home/yangzhenyu/potential_scad_32_flow//YTHDC2/2024-12-06-03-22-00/
     RDKit          3D

 19 18  0  0  1  0  0  0  0  0999 V2000
    1.1787   -8.0297    3.5154 C   0  0  0  0  0  0  0  0  0  0  0  0
    1.0491   -6.8434    2.9820 C   0  0  0  0  0  0  0  0  0  0  0  0
    1.9985   -8.9840    2.8958 C   0  0  0  0  0  0  0  0  0  0  0  0
    1.9135  -10.3404    3.6266 C   0  0  2  0  0  0  0  0  0  0  0  0
    2.2847  -10.5440    4.7936 C   0  0  0  0  0  0  0  0  0  0  0  0
    1.7595   -5.7666    3.2682 C   0  0  0  0  0  0  0  0  0  0  0  0
    1.3487   -4.6007    2.5276 C   0  0  0  0  0  0  0  0  0  0  0  0
   -0.0211   -4.5897    2.1865 C   0  0  0  0  0  0  0  0  0  0  0  0
   -0.3692   -3.6097    1.2774 C   0  0  0  0  0  0  0  0  0  0  0  0
   -0.7783   -4.0063    0.0692 C   0  0  0  0  0  0  0  0  0  0  0  0
   -1.8230   -3.6948   -0.3265 C   0  0  0  0  0  0  0  0  0  0  0  0
   -2.3331   -4.0207   -1.5103 O   0  0  0  0  0  0  0  0  0  0  0  0
   -2.7397   -3.1751    0.5792 O   0  0  0  0  0  0  0  0  0  0  0  0
    1.4897  -11.3865    2.8552 C   0  0  2  0  0  0  0  0  0  0  0  0
    1.6455  -11.4517    1.5089 C   0  0  0  0  0  0  0  0  0  0  0  0
    1.4151  -12.6309    0.8967 O   0  0  0  0  0  0  0  0  0  0  0  0
    1.5560  -10.3681    0.6946 O   0  0  0  0  0  0  0  0  0  0  0  0
    3.7959  -10.5470    5.0951 O   0  0  0  0  0  0  0  0  0  0  0  0
    0.1846  -11.8767    3.2454 O   0  0  0  0  0  0  0  0  0  0  0  0
  1  2  1  0
  1  3  1  0
  4  3  1  6
  4  5  1  0
  2  6  1  0
  6  7  1  0
  7  8  1  0
  8  9  1  0
  9 10  1  0
 10 11  1  0
 11 12  2  0
 11 13  1  0
  4 14  1  0
 14 15  1  0
 15 16  1  0
 15 17  2  0
  5 18  2  0
 14 19  1  6
M  END

$$$$
No_639-/export/home/yangzhenyu/potential_scad_32_flow//YTHDC2/2024-12-06-03-22-00/
     RDKit          3D

 18 19  0  0  0  0  0  0  0  0999 V2000
    1.1787   -8.0297    3.5154 C   0  0  0  0  0  0  0  0  0  0  0  0
    1.0491   -6.8434    2.9820 O   0  0  0  0  0  0  0  0  0  0  0  0
    0.9046   -9.0606    2.6037 C   0  0  0  0  0  0  0  0  0  0  0  0
    0.7701   -8.6527    1.3747 C   0  0  0  0  0  0  0  0  0  0  0  0
    0.6390   -9.5102    0.3740 C   0  0  0  0  0  0  0  0  0  0  0  0
    0.8659   -7.2224    1.1353 C   0  0  0  0  0  0  0  0  0  0  0  0
    0.3095  -10.7791    0.5865 C   0  0  0  0  0  0  0  0  0  0  0  0
    0.4412  -11.2917    1.8309 C   0  0  0  0  0  0  0  0  0  0  0  0
    0.7733  -10.4264    2.8760 C   0  0  0  0  0  0  0  0  0  0  0  0
    1.0421  -10.8974    4.1472 C   0  0  0  0  0  0  0  0  0  0  0  0
    0.3890  -12.6169    2.1587 C   0  0  0  0  0  0  0  0  0  0  0  0
    1.5424  -13.3205    2.7431 C   0  0  0  0  0  0  0  0  0  0  0  0
    1.8933  -14.6776    2.2450 C   0  0  0  0  0  0  0  0  0  0  0  0
    2.7021  -14.7167    1.3702 O   0  0  0  0  0  0  0  0  0  0  0  0
    1.1691  -15.6976    2.6419 O   0  0  0  0  0  0  0  0  0  0  0  0
    2.3261  -10.9018    4.6609 N   0  0  0  0  0  0  0  0  0  0  0  0
   -0.0089  -10.9220    5.0641 O   0  0  0  0  0  0  0  0  0  0  0  0
    0.2986   -8.9828   -0.9711 O   0  0  0  0  0  0  0  0  0  0  0  0
  1  2  1  0
  1  3  1  0
  2  6  1  0
  4  6  1  0
  9 10  1  0
  8 11  1  0
 11 12  1  0
 12 13  1  0
 13 14  2  0
 13 15  1  0
 10 16  1  0
 10 17  2  0
  5 18  1  0
  3  4  2  0
  4  5  1  0
  5  7  2  0
  7  8  1  0
  8  9  2  0
  3  9  1  0
M  END

$$$$
No_640-/export/home/yangzhenyu/potential_scad_32_flow//YTHDC2/2024-12-06-03-22-00/
     RDKit          3D

 18 19  0  0  0  0  0  0  0  0999 V2000
    1.1787   -8.0297    3.5154 O   0  0  0  0  0  0  0  0  0  0  0  0
    0.6747   -7.4019    2.7838 C   0  0  0  0  0  0  0  0  0  0  0  0
    0.7594   -8.0032    1.4295 C   0  0  0  0  0  0  0  0  0  0  0  0
    1.4743   -7.4398    0.6034 C   0  0  0  0  0  0  0  0  0  0  0  0
    1.8433   -8.4151   -0.4648 C   0  0  0  0  0  0  0  0  0  0  0  0
    1.3204   -9.5205   -0.5909 C   0  0  0  0  0  0  0  0  0  0  0  0
    0.4880  -10.0838    0.3555 C   0  0  0  0  0  0  0  0  0  0  0  0
    0.2363   -9.3226    1.4465 C   0  0  0  0  0  0  0  0  0  0  0  0
   -0.5984   -9.6542    2.4538 C   0  0  0  0  0  0  0  0  0  0  0  0
   -1.8465   -9.1558    2.6200 C   0  0  0  0  0  0  0  0  0  0  0  0
   -2.5053   -9.2941    3.9597 C   0  0  0  0  0  0  0  0  0  0  0  0
   -1.9129  -10.3019    4.7994 C   0  0  0  0  0  0  0  0  0  0  0  0
   -0.7104  -10.8797    4.5575 C   0  0  0  0  0  0  0  0  0  0  0  0
    0.0029  -10.6135    3.4707 C   0  0  0  0  0  0  0  0  0  0  0  0
    1.3483  -10.9819    3.3530 C   0  0  0  0  0  0  0  0  0  0  0  0
    2.3034  -10.5804    2.8913 O   0  0  0  0  0  0  0  0  0  0  0  0
    1.7788  -12.1376    4.1813 O   0  0  0  0  0  0  0  0  0  0  0  0
    0.2174   -6.1698    2.8574 O   0  0  0  0  0  0  0  0  0  0  0  0
  1  2  1  0
  2  3  1  0
  8  9  1  0
 14 15  1  0
 15 16  2  0
 15 17  1  0
  2 18  2  0
  3  4  2  0
  4  5  1  0
  5  6  2  0
  6  7  1  0
  7  8  2  0
  3  8  1  0
  9 10  2  0
 10 11  1  0
 11 12  2  0
 12 13  1  0
 13 14  2  0
  9 14  1  0
M  END

$$$$
No_641-/export/home/yangzhenyu/potential_scad_32_flow//YTHDC2/2024-12-06-03-22-00/
     RDKit          3D

 19 19  0  0  1  0  0  0  0  0999 V2000
    1.1787   -8.0297    3.5154 C   0  0  0  0  0  0  0  0  0  0  0  0
    1.1048   -9.2215    3.2892 Br  0  0  0  0  0  0  0  0  0  0  0  0
    1.0761   -7.0118    2.3387 C   0  0  0  0  0  0  0  0  0  0  0  0
    0.1894   -7.0017    1.6739 C   0  0  1  0  0  0  0  0  0  0  0  0
    0.0928   -7.8741    0.6686 C   0  0  2  0  0  0  0  0  0  0  0  0
   -1.1928   -8.2140    0.1372 C   0  0  0  0  0  0  0  0  0  0  0  0
   -2.1766   -7.3632    0.3125 C   0  0  2  0  0  0  0  0  0  0  0  0
   -2.1414   -6.4173    1.3570 C   0  0  0  0  0  0  0  0  0  0  0  0
   -0.9226   -6.1814    1.9901 C   0  0  0  0  0  0  0  0  0  0  0  0
    1.1421   -8.6738    0.1660 N   0  0  0  0  0  0  0  0  0  0  0  0
    2.0955   -8.1969   -0.7630 C   0  0  0  0  0  0  0  0  0  0  0  0
    3.2163   -8.9462   -0.9193 C   0  0  0  0  0  0  0  0  0  0  0  0
    3.2034  -10.0556   -0.2956 O   0  0  0  0  0  0  0  0  0  0  0  0
    3.9825   -8.6292   -1.8668 O   0  0  0  0  0  0  0  0  0  0  0  0
   -0.7009   -5.0264    2.7510 O   0  0  0  0  0  0  0  0  0  0  0  0
   -3.4451   -7.5295   -0.3775 C   0  0  0  0  0  0  0  0  0  0  0  0
   -4.5146   -8.2116    0.1625 C   0  0  0  0  0  0  0  0  0  0  0  0
   -5.6098   -7.8991   -0.2485 C   0  0  0  0  0  0  0  0  0  0  0  0
   -5.8535   -7.3186   -1.4713 C   0  0  0  0  0  0  0  0  0  0  0  0
  1  2  1  0
  1  3  1  0
  4  3  1  1
  4  5  1  0
  6  7  1  0
  4  9  1  0
  8  9  1  0
  5 10  1  1
 10 11  1  0
 11 12  1  0
 12 13  1  0
 12 14  2  0
  9 15  2  0
  7 16  1  1
 16 17  1  0
 17 18  2  3
 18 19  1  0
  5  6  1  0
  7  8  1  0
M  END

$$$$
No_642-/export/home/yangzhenyu/potential_scad_32_flow//YTHDC2/2024-12-06-03-22-00/
     RDKit          3D

 20 20  0  0  1  0  0  0  0  0999 V2000
    1.1787   -8.0297    3.5154 C   0  0  0  0  0  0  0  0  0  0  0  0
    1.0491   -6.8434    2.9820 C   0  0  0  0  0  0  0  0  0  0  0  0
    0.0950   -8.8404    3.2292 C   0  0  0  0  0  0  0  0  0  0  0  0
   -0.9173   -8.4596    2.5152 C   0  0  0  0  0  0  0  0  0  0  0  0
   -1.0331   -7.2162    2.0653 C   0  0  0  0  0  0  0  0  0  0  0  0
   -0.0105   -6.3168    2.3081 C   0  0  0  0  0  0  0  0  0  0  0  0
    0.1465  -10.2446    3.6981 C   0  0  0  0  0  0  0  0  0  0  0  0
    0.1907  -11.3369    2.8651 C   0  0  0  0  0  0  0  0  0  0  0  0
   -0.2018  -11.4456    1.8156 C   0  0  1  0  0  0  0  0  0  0  0  0
    0.5237  -11.2094    0.7371 C   0  0  0  0  0  0  0  0  0  0  0  0
    1.8413  -11.2366    0.7926 I   0  0  0  0  0  0  0  0  0  0  0  0
    0.0074   -4.9820    1.8237 C   0  0  0  0  0  0  0  0  0  0  0  0
   -0.4832   -4.7067    0.6857 O   0  0  0  0  0  0  0  0  0  0  0  0
    1.1724   -4.1627    2.1137 O   0  0  0  0  0  0  0  0  0  0  0  0
    0.8975  -12.4429    3.5735 C   0  0  0  0  0  0  0  0  0  0  0  0
    1.3675  -13.3632    2.7964 O   0  0  0  0  0  0  0  0  0  0  0  0
   -0.1896  -10.2519    5.0707 O   0  0  0  0  0  0  0  0  0  0  0  0
   -0.9423  -12.8640    1.7109 C   0  0  0  0  0  0  0  0  0  0  0  0
   -2.4022  -12.6414    1.8038 O   0  0  0  0  0  0  0  0  0  0  0  0
   -0.6109  -13.9584    1.9100 N   0  0  0  0  0  0  0  0  0  0  0  0
  3  7  1  0
  7  8  1  0
  8  9  1  0
  9 10  1  6
 10 11  1  0
  6 12  1  0
 12 13  2  0
 12 14  1  0
  8 15  1  0
 15 16  2  0
  7 17  2  0
  9 18  1  0
 18 19  2  0
 18 20  1  0
  1  2  2  0
  2  6  1  0
  5  6  2  0
  4  5  1  0
  3  4  2  0
  1  3  1  0
M  END

$$$$
No_643-/export/home/yangzhenyu/potential_scad_32_flow//YTHDC2/2024-12-06-03-22-00/
     RDKit          3D

 20 21  0  0  1  0  0  0  0  0999 V2000
    1.1787   -8.0297    3.5154 C   0  0  0  0  0  0  0  0  0  0  0  0
    1.0491   -6.8434    2.9820 C   0  0  0  0  0  0  0  0  0  0  0  0
    0.9905   -9.0774    2.6527 C   0  0  0  0  0  0  0  0  0  0  0  0
    0.7897   -8.9519    1.3691 C   0  0  0  0  0  0  0  0  0  0  0  0
    0.7018   -7.7198    0.7892 C   0  0  0  0  0  0  0  0  0  0  0  0
    0.8918   -6.5957    1.6117 C   0  0  0  0  0  0  0  0  0  0  0  0
    1.0774  -10.6059    3.3145 C   0  0  2  0  0  0  0  0  0  0  0  0
    2.1444  -11.0408    3.6446 C   0  0  0  0  0  0  0  0  0  0  0  0
    0.3723  -11.5410    2.4414 C   0  0  2  0  0  0  0  0  0  0  0  0
   -0.9824  -11.5883    2.6917 C   0  0  0  0  0  0  0  0  0  0  0  0
   -1.8302  -12.5684    2.3676 C   0  0  0  0  0  0  0  0  0  0  0  0
   -1.3040  -13.6235    1.7315 C   0  0  0  0  0  0  0  0  0  0  0  0
    0.0202  -13.5942    1.2173 C   0  0  0  0  0  0  0  0  0  0  0  0
    0.8455  -12.5568    1.6567 C   0  0  0  0  0  0  0  0  0  0  0  0
    2.1320  -12.5642    1.2854 O   0  0  0  0  0  0  0  0  0  0  0  0
    0.8317   -5.2525    1.1104 P   0  0  0  0  0  0  0  0  0  0  0  0
    1.9641   -4.5782    1.3678 O   0  0  0  0  0  0  0  0  0  0  0  0
   -0.3004   -4.3283    1.8312 O   0  0  0  0  0  0  0  0  0  0  0  0
    2.1873  -12.0403    4.7609 C   0  0  0  0  0  0  0  0  0  0  0  0
    0.4438   -5.1317   -0.2670 O   0  0  0  0  0  0  0  0  0  0  0  0
  3  7  1  0
  7  8  1  6
  7  9  1  0
  9 10  1  1
 11 12  1  0
  9 14  1  0
 13 14  1  0
 14 15  2  0
  6 16  1  0
 16 17  1  0
 16 18  2  0
  8 19  1  0
 16 20  1  0
 10 11  1  0
 12 13  1  0
  1  2  2  0
  2  6  1  0
  5  6  2  0
  4  5  1  0
  3  4  2  0
  1  3  1  0
M  END

$$$$
No_644-/export/home/yangzhenyu/potential_scad_32_flow//YTHDC2/2024-12-06-03-22-00/
     RDKit          3D

 19 18  0  0  1  0  0  0  0  0999 V2000
    1.1787   -8.0297    3.5154 C   0  0  0  0  0  0  0  0  0  0  0  0
    1.1048   -9.2215    3.2892 P   0  0  1  0  0  0  0  0  0  0  0  0
    1.8083   -9.6820    2.1466 C   0  0  0  0  0  0  0  0  0  0  0  0
    1.3682  -10.1293    0.9015 C   0  0  0  0  0  0  0  0  0  0  0  0
    0.7104   -9.5898    0.3695 O   0  0  0  0  0  0  0  0  0  0  0  0
    1.9742  -11.2346    0.3858 O   0  0  0  0  0  0  0  0  0  0  0  0
    1.4445  -10.0538    4.6584 O   0  0  0  0  0  0  0  0  0  0  0  0
   -0.4133   -9.6122    3.1512 O   0  0  0  0  0  0  0  0  0  0  0  0
    0.7335   -6.9609    2.4799 N   0  0  0  0  0  0  0  0  0  0  0  0
   -0.2655   -6.0854    2.4423 C   0  0  1  0  0  0  0  0  0  0  0  0
   -0.5294   -5.4523    1.2613 C   0  0  0  0  0  0  0  0  0  0  0  0
   -0.0822   -4.3798    1.0847 Cl  0  0  0  0  0  0  0  0  0  0  0  0
   -1.3889   -6.0678    0.3758 O   0  0  0  0  0  0  0  0  0  0  0  0
   -1.4785   -7.1006    2.9306 C   0  0  0  0  0  0  0  0  0  0  0  0
   -1.7281   -6.5197    4.4809 O   0  0  0  0  0  0  0  0  0  0  0  0
   -2.9752   -6.9260    4.8402 C   0  0  0  0  0  0  0  0  0  0  0  0
   -3.8938   -6.3556    4.3765 C   0  0  0  0  0  0  0  0  0  0  0  0
   -5.1328   -6.9481    4.4586 C   0  0  0  0  0  0  0  0  0  0  0  0
   -5.3394   -8.0925    5.1362 C   0  0  0  0  0  0  0  0  0  0  0  0
  1  2  1  0
  2  3  1  0
  3  4  1  0
  4  5  2  0
  4  6  1  0
  2  7  1  1
  2  8  2  0
  1  9  1  0
  9 10  1  0
 10 11  1  0
 11 12  1  0
 11 13  2  0
 10 14  1  6
 14 15  1  0
 15 16  1  0
 16 17  1  0
 17 18  2  3
 18 19  1  0
M  END

$$$$
No_645-/export/home/yangzhenyu/potential_scad_32_flow//YTHDC2/2024-12-06-03-22-00/
     RDKit          3D

 19 20  0  0  1  0  0  0  0  0999 V2000
    1.1787   -8.0297    3.5154 C   0  0  0  0  0  0  0  0  0  0  0  0
    1.0491   -6.8434    2.9820 C   0  0  0  0  0  0  0  0  0  0  0  0
    0.2462   -8.9560    3.0873 C   0  0  0  0  0  0  0  0  0  0  0  0
    0.3295   -6.5187    1.9069 C   0  0  0  0  0  0  0  0  0  0  0  0
   -0.5260   -8.7862    2.1368 C   0  0  0  0  0  0  0  0  0  0  0  0
   -0.3888   -7.5542    1.4076 C   0  0  0  0  0  0  0  0  0  0  0  0
    0.3746  -10.4278    3.8096 C   0  0  0  0  0  0  0  0  0  0  0  0
   -0.8369  -11.0813    3.7748 O   0  0  0  0  0  0  0  0  0  0  0  0
    1.4171  -10.8675    4.3264 O   0  0  0  0  0  0  0  0  0  0  0  0
    0.4122   -5.2876    1.2356 Cl  0  0  0  0  0  0  0  0  0  0  0  0
   -1.3789   -7.3839    0.4048 O   0  0  0  0  0  0  0  0  0  0  0  0
   -1.1768   -7.9452   -0.7259 C   0  0  0  0  0  0  0  0  0  0  0  0
   -2.0193   -7.5494   -1.7211 C   0  0  0  0  0  0  0  0  0  0  0  0
   -1.6805   -7.9499   -3.0374 C   0  0  0  0  0  0  0  0  0  0  0  0
   -0.7515   -8.7650   -3.2912 C   0  0  1  0  0  0  0  0  0  0  0  0
    0.0507   -9.2684   -2.2919 C   0  0  0  0  0  0  0  0  0  0  0  0
   -0.1972   -8.9484   -0.9526 C   0  0  0  0  0  0  0  0  0  0  0  0
   -0.5404   -9.3013   -4.5834 Cl  0  0  0  0  0  0  0  0  0  0  0  0
   -3.1899   -7.2687   -1.3075 O   0  0  0  0  0  0  0  0  0  0  0  0
  3  7  1  0
  7  8  1  0
  7  9  2  0
  4 10  1  0
  6 11  1  0
 11 12  1  0
 12 13  1  0
 13 14  1  0
 15 16  1  0
 12 17  1  0
 15 18  1  1
 13 19  2  0
 16 17  1  0
 14 15  1  0
  1  2  2  0
  2  4  1  0
  4  6  2  0
  5  6  1  0
  3  5  2  0
  1  3  1  0
M  END

$$$$
No_646-/export/home/yangzhenyu/potential_scad_32_flow//YTHDC2/2024-12-06-03-22-00/
     RDKit          3D

 19 19  0  0  1  0  0  0  0  0999 V2000
    1.1787   -8.0297    3.5154 C   0  0  0  0  0  0  0  0  0  0  0  0
    1.0491   -6.8434    2.9820 C   0  0  0  0  0  0  0  0  0  0  0  0
    1.9985   -8.9840    2.8958 C   0  0  0  0  0  0  0  0  0  0  0  0
    1.9135  -10.3404    3.6266 C   0  0  0  0  0  0  0  0  0  0  0  0
    1.3291  -11.3908    3.0222 C   0  0  0  0  0  0  0  0  0  0  0  0
    1.2749  -12.5326    3.7562 C   0  0  0  0  0  0  0  0  0  0  0  0
    0.4248   -6.6481    1.7861 C   0  0  0  0  0  0  0  0  0  0  0  0
    0.3130   -5.3457    1.3131 O   0  0  0  0  0  0  0  0  0  0  0  0
    0.1665   -7.5538    1.0002 O   0  0  0  0  0  0  0  0  0  0  0  0
    0.7627  -13.6838    3.1407 N   0  0  0  0  0  0  0  0  0  0  0  0
    1.0303  -11.4465    1.7233 C   0  0  0  0  0  0  0  0  0  0  0  0
    1.2224  -10.3194    0.8263 C   0  0  0  0  0  0  0  0  0  0  0  0
    0.4680  -12.6080    1.2749 C   0  0  0  0  0  0  0  0  0  0  0  0
    0.5192  -13.8060    2.0364 C   0  0  0  0  0  0  0  0  0  0  0  0
    0.0779  -15.1564    1.5118 C   0  0  0  0  0  0  0  0  0  0  0  0
    0.9131  -16.1056    1.6749 C   0  0  2  0  0  0  0  0  0  0  0  0
    2.2120  -16.0314    1.6454 N   0  0  0  0  0  0  0  0  0  0  0  0
    0.5298  -17.4151    1.6626 C   0  0  0  0  0  0  0  0  0  0  0  0
    0.7401  -17.9595    2.6156 O   0  0  0  0  0  0  0  0  0  0  0  0
  1  2  1  0
  1  3  1  0
  3  4  1  0
  4  5  1  0
  2  7  1  0
  7  8  2  0
  7  9  1  0
 11 12  1  0
 14 15  1  0
 15 16  1  0
 16 17  1  6
 16 18  1  0
 18 19  2  0
  5  6  2  0
  6 10  1  0
 10 14  2  0
 13 14  1  0
 11 13  2  0
  5 11  1  0
M  END

$$$$
No_647-/export/home/yangzhenyu/potential_scad_32_flow//YTHDC2/2024-12-06-03-22-00/
     RDKit          3D

 18 18  0  0  0  0  0  0  0  0999 V2000
    1.1787   -8.0297    3.5154 C   0  0  0  0  0  0  0  0  0  0  0  0
    1.1048   -9.2215    3.2892 C   0  0  0  0  0  0  0  0  0  0  0  0
    1.3627  -10.1721    4.3044 C   0  0  0  0  0  0  0  0  0  0  0  0
    1.7354  -11.4730    3.9023 C   0  0  0  0  0  0  0  0  0  0  0  0
    1.8080  -11.8127    2.7216 C   0  0  0  0  0  0  0  0  0  0  0  0
    1.5854  -11.0021    1.7249 C   0  0  0  0  0  0  0  0  0  0  0  0
    1.3573   -9.7389    1.9287 C   0  0  0  0  0  0  0  0  0  0  0  0
    1.2865   -8.8078    0.9161 C   0  0  0  0  0  0  0  0  0  0  0  0
    1.6845   -9.1638   -0.2896 O   0  0  0  0  0  0  0  0  0  0  0  0
    1.1989   -7.4617    1.0956 O   0  0  0  0  0  0  0  0  0  0  0  0
    2.0675  -13.2115    2.3139 C   0  0  0  0  0  0  0  0  0  0  0  0
    2.4513  -13.5870    1.0849 O   0  0  0  0  0  0  0  0  0  0  0  0
    2.0125  -14.1963    3.2102 O   0  0  0  0  0  0  0  0  0  0  0  0
    0.1006   -7.2168    3.3008 C   0  0  0  0  0  0  0  0  0  0  0  0
    0.2383   -5.8807    2.8679 O   0  0  0  0  0  0  0  0  0  0  0  0
   -1.1339   -7.6340    3.2740 O   0  0  0  0  0  0  0  0  0  0  0  0
   -0.6281   -5.0144    2.2850 C   0  0  0  0  0  0  0  0  0  0  0  0
   -0.0329   -3.8337    1.8397 C   0  0  0  0  0  0  0  0  0  0  0  0
  1  2  1  0
  7  8  1  0
  8  9  2  0
  8 10  1  0
  5 11  1  0
 11 12  2  0
 11 13  1  0
  1 14  1  0
 14 15  1  0
 14 16  2  0
 15 17  1  0
 17 18  1  0
  2  3  2  0
  3  4  1  0
  4  5  2  0
  5  6  1  0
  6  7  2  0
  2  7  1  0
M  END

$$$$
No_648-/export/home/yangzhenyu/potential_scad_32_flow//YTHDC2/2024-12-06-03-22-00/
     RDKit          3D

 17 17  0  0  0  0  0  0  0  0999 V2000
    1.1787   -8.0297    3.5154 C   0  0  0  0  0  0  0  0  0  0  0  0
    1.1048   -9.2215    3.2892 C   0  0  0  0  0  0  0  0  0  0  0  0
    1.3627  -10.1721    4.3044 C   0  0  0  0  0  0  0  0  0  0  0  0
    1.7354  -11.4730    3.9023 C   0  0  0  0  0  0  0  0  0  0  0  0
    1.8080  -11.8127    2.7216 C   0  0  0  0  0  0  0  0  0  0  0  0
    1.5854  -11.0021    1.7249 C   0  0  0  0  0  0  0  0  0  0  0  0
    1.3573   -9.7389    1.9287 C   0  0  0  0  0  0  0  0  0  0  0  0
    1.2865   -8.8078    0.9161 C   0  0  0  0  0  0  0  0  0  0  0  0
    1.6845   -9.1638   -0.2896 C   0  0  0  0  0  0  0  0  0  0  0  0
    2.2611   -8.4546   -1.0900 O   0  0  0  0  0  0  0  0  0  0  0  0
    1.0802  -10.1093   -0.8721 O   0  0  0  0  0  0  0  0  0  0  0  0
    2.0560  -13.2400    2.3950 O   0  0  0  0  0  0  0  0  0  0  0  0
    2.2933   -7.1907    3.6915 O   0  0  0  0  0  0  0  0  0  0  0  0
    0.0084   -7.3888    3.5471 N   0  0  0  0  0  0  0  0  0  0  0  0
    1.2497  -14.1506    1.9047 C   0  0  0  0  0  0  0  0  0  0  0  0
    1.7148  -15.2795    1.7961 C   0  0  0  0  0  0  0  0  0  0  0  0
    1.7820  -16.0771    2.4771 O   0  0  0  0  0  0  0  0  0  0  0  0
  1  2  1  0
  7  8  1  0
  8  9  1  0
  9 10  1  0
  9 11  2  0
  5 12  1  0
  1 13  2  0
  1 14  1  0
 12 15  1  0
 15 16  1  0
 16 17  1  0
  2  3  2  0
  3  4  1  0
  4  5  2  0
  5  6  1  0
  6  7  2  0
  2  7  1  0
M  END

$$$$
No_649-/export/home/yangzhenyu/potential_scad_32_flow//YTHDC2/2024-12-06-03-22-00/
     RDKit          3D

 17 17  0  0  0  0  0  0  0  0999 V2000
    1.1787   -8.0297    3.5154 C   0  0  0  0  0  0  0  0  0  0  0  0
    1.0491   -6.8434    2.9820 Cl  0  0  0  0  0  0  0  0  0  0  0  0
    2.1643   -8.9961    3.0118 C   0  0  0  0  0  0  0  0  0  0  0  0
    2.0542  -10.3454    3.7325 C   0  0  0  0  0  0  0  0  0  0  0  0
    1.0539  -10.6340    4.5979 C   0  0  0  0  0  0  0  0  0  0  0  0
   -0.0044   -9.7649    4.6652 C   0  0  0  0  0  0  0  0  0  0  0  0
   -0.0119   -8.5383    4.1066 C   0  0  0  0  0  0  0  0  0  0  0  0
   -1.0182   -7.7174    4.3477 C   0  0  0  0  0  0  0  0  0  0  0  0
   -1.6631   -7.1382    3.3519 F   0  0  0  0  0  0  0  0  0  0  0  0
   -2.2001   -8.4517    4.8665 F   0  0  0  0  0  0  0  0  0  0  0  0
    3.1992  -11.1653    3.5580 C   0  0  0  0  0  0  0  0  0  0  0  0
    4.1756  -11.0022    3.9792 N   0  0  0  0  0  0  0  0  0  0  0  0
    2.9892  -12.2795    2.8769 N   0  0  0  0  0  0  0  0  0  0  0  0
    1.7163  -12.5072    2.3125 C   0  0  0  0  0  0  0  0  0  0  0  0
    1.7754  -13.6689    1.4624 C   0  0  0  0  0  0  0  0  0  0  0  0
    0.7271  -13.9099    0.6629 C   0  0  0  0  0  0  0  0  0  0  0  0
   -0.2954  -13.0089    0.6480 C   0  0  0  0  0  0  0  0  0  0  0  0
  1  2  1  0
  7  8  1  0
  8  9  1  0
  8 10  1  0
  4 11  1  0
 11 12  1  0
 11 13  2  3
 13 14  1  0
 14 15  1  0
 15 16  2  3
 16 17  1  0
  1  3  2  0
  3  4  1  0
  4  5  2  0
  5  6  1  0
  6  7  2  0
  1  7  1  0
M  END

$$$$
No_650-/export/home/yangzhenyu/potential_scad_32_flow//YTHDC2/2024-12-06-03-22-00/
     RDKit          3D

 18 18  0  0  1  0  0  0  0  0999 V2000
    1.1787   -8.0297    3.5154 O   0  0  0  0  0  0  0  0  0  0  0  0
    0.9969   -8.9689    3.0048 C   0  0  1  0  0  0  0  0  0  0  0  0
    0.9976   -8.9567    1.6341 C   0  0  0  0  0  0  0  0  0  0  0  0
    0.7663   -7.7728    1.0082 C   0  0  1  0  0  0  0  0  0  0  0  0
    1.1468   -6.5619    1.6541 C   0  0  0  0  0  0  0  0  0  0  0  0
    1.3592   -6.6155    3.0007 C   0  0  0  0  0  0  0  0  0  0  0  0
    1.2035  -10.1894    3.6215 C   0  0  1  0  0  0  0  0  0  0  0  0
    2.4059  -10.7048    3.7081 C   0  0  0  0  0  0  0  0  0  0  0  0
    0.8349   -7.8038   -0.3749 C   0  0  0  0  0  0  0  0  0  0  0  0
   -0.4482   -7.7487   -0.9695 O   0  0  0  0  0  0  0  0  0  0  0  0
    1.7808   -8.0136   -1.1232 O   0  0  0  0  0  0  0  0  0  0  0  0
    0.4697  -10.3566    4.8905 C   0  0  0  0  0  0  0  0  0  0  0  0
    2.7225  -11.7914    4.5944 O   0  0  0  0  0  0  0  0  0  0  0  0
    1.6275   -5.5932    3.7283 C   0  0  0  0  0  0  0  0  0  0  0  0
   -0.9257  -10.1254    4.5909 C   0  0  0  0  0  0  0  0  0  0  0  0
    3.4740  -10.4625    2.9699 O   0  0  0  0  0  0  0  0  0  0  0  0
   -1.4911   -8.9494    4.9861 C   0  0  0  0  0  0  0  0  0  0  0  0
   -2.4820   -8.3317    4.6031 O   0  0  0  0  0  0  0  0  0  0  0  0
  1  2  1  0
  2  3  1  6
  3  4  1  0
  4  5  1  0
  1  6  1  0
  5  6  1  0
  2  7  1  0
  7  8  1  0
  4  9  1  6
  9 10  2  0
  9 11  1  0
  7 12  1  1
  8 13  1  0
  6 14  1  0
 12 15  1  0
  8 16  2  0
 15 17  1  0
 17 18  2  0
M  END

$$$$
No_651-/export/home/yangzhenyu/potential_scad_32_flow//YTHDC2/2024-12-06-03-22-00/
     RDKit          3D

 19 19  0  0  0  0  0  0  0  0999 V2000
    1.1787   -8.0297    3.5154 C   0  0  0  0  0  0  0  0  0  0  0  0
    1.1048   -9.2215    3.2892 C   0  0  0  0  0  0  0  0  0  0  0  0
    1.3627  -10.1721    4.3044 C   0  0  0  0  0  0  0  0  0  0  0  0
    1.7354  -11.4730    3.9023 C   0  0  0  0  0  0  0  0  0  0  0  0
    1.8080  -11.8127    2.7216 C   0  0  0  0  0  0  0  0  0  0  0  0
    1.5854  -11.0021    1.7249 C   0  0  0  0  0  0  0  0  0  0  0  0
    1.3573   -9.7389    1.9287 C   0  0  0  0  0  0  0  0  0  0  0  0
    1.1102   -8.8712    0.9017 C   0  0  0  0  0  0  0  0  0  0  0  0
    1.5724   -9.1697   -0.3048 O   0  0  0  0  0  0  0  0  0  0  0  0
    0.4835   -7.7502    1.0048 O   0  0  0  0  0  0  0  0  0  0  0  0
    2.1022  -13.2053    2.3243 C   0  0  0  0  0  0  0  0  0  0  0  0
    1.8983  -14.2534    3.1379 O   0  0  0  0  0  0  0  0  0  0  0  0
    2.0351  -13.5745    0.9992 O   0  0  0  0  0  0  0  0  0  0  0  0
    2.4830   -7.3384    3.4858 O   0  0  0  0  0  0  0  0  0  0  0  0
    0.1738   -7.2351    3.1993 O   0  0  0  0  0  0  0  0  0  0  0  0
    1.5718  -15.4808    2.7297 C   0  0  0  0  0  0  0  0  0  0  0  0
    0.4412  -15.8835    3.1037 C   0  0  0  0  0  0  0  0  0  0  0  0
   -0.6477  -15.5244    2.6173 C   0  0  0  0  0  0  0  0  0  0  0  0
   -1.9006  -15.9000    3.0717 C   0  0  0  0  0  0  0  0  0  0  0  0
  1  2  1  0
  7  8  1  0
  8  9  1  0
  8 10  2  0
  5 11  1  0
 11 12  1  0
 11 13  2  0
  1 14  1  0
  1 15  2  0
 12 16  1  0
 16 17  1  0
 17 18  1  0
 18 19  2  0
  2  3  2  0
  3  4  1  0
  4  5  2  0
  5  6  1  0
  6  7  2  0
  2  7  1  0
M  END

$$$$
No_652-/export/home/yangzhenyu/potential_scad_32_flow//YTHDC2/2024-12-06-03-22-00/
     RDKit          3D

 19 19  0  0  1  0  0  0  0  0999 V2000
    1.1787   -8.0297    3.5154 C   0  0  0  0  0  0  0  0  0  0  0  0
    1.0491   -6.8434    2.9820 C   0  0  1  0  0  0  0  0  0  0  0  0
    1.9985   -8.9840    2.8958 C   0  0  2  0  0  0  0  0  0  0  0  0
    1.7297   -9.2108    1.6335 C   0  0  0  0  0  0  0  0  0  0  0  0
    1.7343   -8.0566    0.8408 C   0  0  2  0  0  0  0  0  0  0  0  0
    1.0269   -6.8892    1.4456 C   0  0  0  0  0  0  0  0  0  0  0  0
    2.0740   -7.9416   -0.3682 C   0  0  0  0  0  0  0  0  0  0  0  0
    1.3156   -7.8710   -1.3006 C   0  0  0  0  0  0  0  0  0  0  0  0
    3.5138   -8.2319   -0.7079 C   0  0  0  0  0  0  0  0  0  0  0  0
    3.8028   -8.4912   -1.9411 O   0  0  0  0  0  0  0  0  0  0  0  0
    1.9247  -10.3647    3.5976 C   0  0  0  0  0  0  0  0  0  0  0  0
    2.8803  -10.5336    4.4842 O   0  0  0  0  0  0  0  0  0  0  0  0
    1.0677  -11.2662    3.5052 O   0  0  0  0  0  0  0  0  0  0  0  0
    1.3987  -10.3594    1.0096 O   0  0  0  0  0  0  0  0  0  0  0  0
    0.7877   -5.6076    3.5094 C   0  0  0  0  0  0  0  0  0  0  0  0
    0.2526   -4.7075    3.1186 C   0  0  0  0  0  0  0  0  0  0  0  0
    0.3618   -3.3100    3.5669 S   0  0  0  0  0  0  0  0  0  0  0  0
    0.9685   -2.4903    2.7209 C   0  0  0  0  0  0  0  0  0  0  0  0
    1.5351   -1.6013    2.8928 C   0  0  0  0  0  0  0  0  0  0  0  0
  2  1  1  1
  1  3  1  0
  3  4  1  0
  4  5  1  0
  2  6  1  0
  5  6  1  0
  5  7  1  6
  7  8  2  0
  7  9  1  0
  9 10  2  0
  3 11  1  1
 11 12  1  0
 11 13  2  0
  4 14  2  0
  2 15  1  0
 15 16  2  3
 16 17  1  0
 17 18  1  0
 18 19  2  0
M  END

$$$$
No_653-/export/home/yangzhenyu/potential_scad_32_flow//YTHDC2/2024-12-06-03-22-00/
     RDKit          3D

 19 20  0  0  0  0  0  0  0  0999 V2000
    1.1787   -8.0297    3.5154 C   0  0  0  0  0  0  0  0  0  0  0  0
    1.0491   -6.8434    2.9820 C   0  0  0  0  0  0  0  0  0  0  0  0
    0.0950   -8.8404    3.2292 C   0  0  0  0  0  0  0  0  0  0  0  0
   -0.9173   -8.4596    2.5152 C   0  0  0  0  0  0  0  0  0  0  0  0
   -1.0331   -7.2162    2.0653 C   0  0  0  0  0  0  0  0  0  0  0  0
   -0.0105   -6.3168    2.3081 C   0  0  0  0  0  0  0  0  0  0  0  0
    0.1465  -10.2446    3.6981 C   0  0  0  0  0  0  0  0  0  0  0  0
   -1.0337  -10.8619    3.9439 C   0  0  0  0  0  0  0  0  0  0  0  0
   -0.8576  -12.3101    4.1964 C   0  0  0  0  0  0  0  0  0  0  0  0
    0.3452  -12.8753    3.9453 C   0  0  0  0  0  0  0  0  0  0  0  0
    1.4894  -12.1495    3.5975 C   0  0  0  0  0  0  0  0  0  0  0  0
    1.3815  -10.8365    3.4146 C   0  0  0  0  0  0  0  0  0  0  0  0
   -0.0395   -5.0053    1.8073 C   0  0  0  0  0  0  0  0  0  0  0  0
    0.6880   -3.9961    2.4201 N   0  0  0  0  0  0  0  0  0  0  0  0
   -0.4325   -4.6291    0.6496 O   0  0  0  0  0  0  0  0  0  0  0  0
    0.8428   -2.6578    2.1864 C   0  0  0  0  0  0  0  0  0  0  0  0
    0.4799  -14.3679    4.0792 O   0  0  0  0  0  0  0  0  0  0  0  0
    2.5187  -10.1830    3.0886 C   0  0  0  0  0  0  0  0  0  0  0  0
    3.2455  -10.6792    2.3474 O   0  0  0  0  0  0  0  0  0  0  0  0
  3  7  1  0
  6 13  1  0
 13 14  1  0
 13 15  2  0
 14 16  1  0
 10 17  1  0
 12 18  1  0
 18 19  2  0
  1  2  2  0
  2  6  1  0
  5  6  2  0
  4  5  1  0
  3  4  2  0
  1  3  1  0
  7  8  2  0
  8  9  1  0
  9 10  2  0
 10 11  1  0
 11 12  2  0
  7 12  1  0
M  END

$$$$
No_654-/export/home/yangzhenyu/potential_scad_32_flow//YTHDC2/2024-12-06-03-22-00/
     RDKit          3D

 19 20  0  0  1  0  0  0  0  0999 V2000
    1.1787   -8.0297    3.5154 O   0  0  0  0  0  0  0  0  0  0  0  0
    0.9969   -8.9689    3.0048 C   0  0  2  0  0  0  0  0  0  0  0  0
    1.3055  -10.1056    3.6616 C   0  0  0  0  0  0  0  0  0  0  0  0
    1.1249  -11.3503    3.0941 C   0  0  0  0  0  0  0  0  0  0  0  0
    0.6932  -11.4484    1.8586 Cl  0  0  0  0  0  0  0  0  0  0  0  0
    1.4451  -12.6289    3.9434 C   0  0  0  0  0  0  0  0  0  0  0  0
    1.0502   -6.7403    2.6073 C   0  0  0  0  0  0  0  0  0  0  0  0
    0.9119   -5.6294    3.0836 C   0  0  0  0  0  0  0  0  0  0  0  0
    0.2528   -4.6591    2.2366 C   0  0  0  0  0  0  0  0  0  0  0  0
    0.0238   -4.9993    0.9256 C   0  0  0  0  0  0  0  0  0  0  0  0
    0.2338   -6.1641    0.4879 C   0  0  0  0  0  0  0  0  0  0  0  0
    0.7908   -7.1747    1.3375 C   0  0  0  0  0  0  0  0  0  0  0  0
    0.8049   -8.4853    1.0384 C   0  0  0  0  0  0  0  0  0  0  0  0
    0.9959   -9.1417    1.6689 C   0  0  0  0  0  0  0  0  0  0  0  0
    0.8051   -8.6480   -0.4100 O   0  0  0  0  0  0  0  0  0  0  0  0
    0.8764  -13.8287    3.3867 C   0  0  2  0  0  0  0  0  0  0  0  0
   -0.2505  -14.4652    3.7073 C   0  0  0  0  0  0  0  0  0  0  0  0
    1.8887  -14.6206    2.7156 C   0  0  0  0  0  0  0  0  0  0  0  0
    1.6168  -15.9163    2.3595 C   0  0  0  0  0  0  0  0  0  0  0  0
  1  2  1  0
  2  3  1  0
  3  4  2  3
  4  5  1  0
  4  6  1  0
  1  7  1  0
 12 13  1  0
  2 14  1  6
 13 14  1  0
 13 15  2  0
  6 16  1  0
 16 17  1  1
 16 18  1  0
 18 19  2  0
  7  8  2  0
  8  9  1  0
  9 10  2  0
 10 11  1  0
 11 12  2  0
  7 12  1  0
M  END

$$$$
No_655-/export/home/yangzhenyu/potential_scad_32_flow//YTHDC2/2024-12-06-03-22-00/
     RDKit          3D

 19 20  0  0  0  0  0  0  0  0999 V2000
    1.1787   -8.0297    3.5154 C   0  0  0  0  0  0  0  0  0  0  0  0
    1.0491   -6.8434    2.9820 C   0  0  0  0  0  0  0  0  0  0  0  0
    0.0950   -8.8404    3.2292 C   0  0  0  0  0  0  0  0  0  0  0  0
    0.0602  -10.1764    3.8231 C   0  0  0  0  0  0  0  0  0  0  0  0
    0.2248   -6.3830    2.0648 C   0  0  0  0  0  0  0  0  0  0  0  0
   -0.6745   -7.2322    1.6857 C   0  0  0  0  0  0  0  0  0  0  0  0
   -0.7374   -8.4992    2.1291 C   0  0  0  0  0  0  0  0  0  0  0  0
    1.0201  -10.8960    4.1038 C   0  0  0  0  0  0  0  0  0  0  0  0
    0.8663  -12.2863    4.4757 N   0  0  0  0  0  0  0  0  0  0  0  0
    0.4036   -5.1158    1.3984 Cl  0  0  0  0  0  0  0  0  0  0  0  0
   -0.3092  -12.5990    4.1349 C   0  0  0  0  0  0  0  0  0  0  0  0
   -0.9644  -11.2896    3.7883 N   0  0  0  0  0  0  0  0  0  0  0  0
    2.5083  -10.4466    4.2066 F   0  0  0  0  0  0  0  0  0  0  0  0
   -1.6505   -6.9091    0.8283 C   0  0  0  0  0  0  0  0  0  0  0  0
   -1.6258   -7.4274   -0.4368 C   0  0  0  0  0  0  0  0  0  0  0  0
   -0.6982   -8.3360   -0.8715 C   0  0  0  0  0  0  0  0  0  0  0  0
    0.4740   -8.4530   -0.5267 C   0  0  0  0  0  0  0  0  0  0  0  0
    1.4800   -7.6978   -0.7542 C   0  0  0  0  0  0  0  0  0  0  0  0
    2.8002   -8.2177   -0.1768 C   0  0  0  0  0  0  0  0  0  0  0  0
  3  4  1  0
  4  8  2  0
  8  9  1  0
  5 10  1  0
  9 11  2  0
  4 12  1  0
 11 12  1  0
  8 13  1  0
  6 14  1  0
 14 15  1  0
 15 16  1  0
 16 17  1  0
 17 18  1  0
 18 19  2  0
  1  2  2  0
  2  5  1  0
  5  6  2  0
  6  7  1  0
  3  7  2  0
  1  3  1  0
M  END

$$$$
No_656-/export/home/yangzhenyu/potential_scad_32_flow//YTHDC2/2024-12-06-03-22-00/
     RDKit          3D

 15 15  0  0  1  0  0  0  0  0999 V2000
    1.1787   -8.0297    3.5154 C   0  0  0  0  0  0  0  0  0  0  0  0
    1.0491   -6.8434    2.9820 C   0  0  0  0  0  0  0  0  0  0  0  0
    1.9985   -8.9840    2.8958 C   0  0  2  0  0  0  0  0  0  0  0  0
    1.7297   -9.2108    1.6335 C   0  0  0  0  0  0  0  0  0  0  0  0
    1.7343   -8.0566    0.8408 C   0  0  2  0  0  0  0  0  0  0  0  0
    1.0269   -6.8892    1.4456 C   0  0  0  0  0  0  0  0  0  0  0  0
    2.0740   -7.9416   -0.3682 C   0  0  0  0  0  0  0  0  0  0  0  0
    2.2588   -9.0634   -1.1089 C   0  0  0  0  0  0  0  0  0  0  0  0
    3.4999   -9.2524   -1.6422 O   0  0  0  0  0  0  0  0  0  0  0  0
    2.3628  -10.1665    3.6635 C   0  0  0  0  0  0  0  0  0  0  0  0
    1.5480  -11.0791    4.1341 O   0  0  0  0  0  0  0  0  0  0  0  0
    3.6606  -10.3144    4.0637 N   0  0  0  0  0  0  0  0  0  0  0  0
    1.5927   -9.9511   -1.0902 O   0  0  0  0  0  0  0  0  0  0  0  0
    4.0415  -11.2768    4.9849 C   0  0  0  0  0  0  0  0  0  0  0  0
    5.4241  -11.1242    5.0332 O   0  0  0  0  0  0  0  0  0  0  0  0
  1  2  1  0
  1  3  1  0
  3  4  1  0
  4  5  1  0
  2  6  1  0
  5  6  1  0
  5  7  1  6
  7  8  1  0
  8  9  2  0
  3 10  1  1
 10 11  2  0
 10 12  1  0
  8 13  1  0
 12 14  1  0
 14 15  2  0
M  END

$$$$
No_657-/export/home/yangzhenyu/potential_scad_32_flow//YTHDC2/2024-12-06-03-22-00/
     RDKit          3D

 20 20  0  0  1  0  0  0  0  0999 V2000
    1.1787   -8.0297    3.5154 C   0  0  0  0  0  0  0  0  0  0  0  0
    1.0491   -6.8434    2.9820 C   0  0  0  0  0  0  0  0  0  0  0  0
    0.0950   -8.8404    3.2292 C   0  0  0  0  0  0  0  0  0  0  0  0
   -0.9173   -8.4596    2.5152 C   0  0  0  0  0  0  0  0  0  0  0  0
   -1.0331   -7.2162    2.0653 C   0  0  0  0  0  0  0  0  0  0  0  0
   -0.0105   -6.3168    2.3081 C   0  0  0  0  0  0  0  0  0  0  0  0
    0.1935  -10.3737    3.7416 C   0  0  1  0  0  0  0  0  0  0  0  0
    1.2407  -10.8901    4.0986 C   0  0  0  0  0  0  0  0  0  0  0  0
    1.7689  -11.7893    3.2364 C   0  0  0  0  0  0  0  0  0  0  0  0
    1.3730  -13.1491    3.3259 N   0  0  0  0  0  0  0  0  0  0  0  0
    1.7822  -14.1416    2.4238 C   0  0  0  0  0  0  0  0  0  0  0  0
    1.4439  -15.4663    2.6825 O   0  0  0  0  0  0  0  0  0  0  0  0
    2.7465  -13.9205    1.5578 O   0  0  0  0  0  0  0  0  0  0  0  0
   -0.0501   -5.0133    1.7958 P   0  0  0  0  0  0  0  0  0  0  0  0
   -1.0421   -4.2186    2.2951 O   0  0  0  0  0  0  0  0  0  0  0  0
    1.3520   -4.1483    2.1338 O   0  0  0  0  0  0  0  0  0  0  0  0
   -0.0633   -4.8841    0.2526 O   0  0  0  0  0  0  0  0  0  0  0  0
   -0.9451  -10.9791    3.9423 C   0  0  0  0  0  0  0  0  0  0  0  0
   -1.8745  -10.5669    4.9858 O   0  0  0  0  0  0  0  0  0  0  0  0
   -1.5031  -11.8029    3.1505 O   0  0  0  0  0  0  0  0  0  0  0  0
  3  7  1  0
  7  8  1  1
  8  9  1  0
  9 10  1  0
 10 11  1  0
 11 12  1  0
 11 13  2  0
  6 14  1  0
 14 15  1  0
 14 16  2  0
 14 17  1  0
  7 18  1  0
 18 19  1  0
 18 20  2  0
  1  2  2  0
  2  6  1  0
  5  6  2  0
  4  5  1  0
  3  4  2  0
  1  3  1  0
M  END

$$$$
No_658-/export/home/yangzhenyu/potential_scad_32_flow//YTHDC2/2024-12-06-03-22-00/
     RDKit          3D

 18 18  0  0  1  0  0  0  0  0999 V2000
    1.1787   -8.0297    3.5154 C   0  0  0  0  0  0  0  0  0  0  0  0
    1.1048   -9.2215    3.2892 C   0  0  0  0  0  0  0  0  0  0  0  0
    1.3627  -10.1721    4.3044 C   0  0  0  0  0  0  0  0  0  0  0  0
    1.7354  -11.4730    3.9023 C   0  0  0  0  0  0  0  0  0  0  0  0
    1.8080  -11.8127    2.7216 C   0  0  0  0  0  0  0  0  0  0  0  0
    1.5854  -11.0021    1.7249 C   0  0  0  0  0  0  0  0  0  0  0  0
    1.3573   -9.7389    1.9287 C   0  0  0  0  0  0  0  0  0  0  0  0
    1.2865   -8.8078    0.9161 C   0  0  0  0  0  0  0  0  0  0  0  0
    1.6845   -9.1638   -0.2896 C   0  0  0  0  0  0  0  0  0  0  0  0
    2.0771  -13.2284    2.3629 C   0  0  0  0  0  0  0  0  0  0  0  0
    1.1553  -14.0102    1.6102 C   0  0  1  0  0  0  0  0  0  0  0  0
    0.5268  -14.6839    2.2253 I   0  0  0  0  0  0  0  0  0  0  0  0
    1.9971   -8.5728   -1.1812 O   0  0  0  0  0  0  0  0  0  0  0  0
    0.1247   -7.1872    3.3791 O   0  0  0  0  0  0  0  0  0  0  0  0
    2.1983   -7.1808    3.9355 N   0  0  0  0  0  0  0  0  0  0  0  0
    0.4257  -13.0542    0.6696 C   0  0  0  0  0  0  0  0  0  0  0  0
   -0.5780  -13.7720    0.0092 O   0  0  0  0  0  0  0  0  0  0  0  0
    0.8501  -12.0435   -0.0211 O   0  0  0  0  0  0  0  0  0  0  0  0
  1  2  1  0
  7  8  1  0
  8  9  2  3
  5 10  1  0
 10 11  1  0
 11 12  1  1
  9 13  1  0
  1 14  2  0
  1 15  1  0
 11 16  1  0
 16 17  2  0
 16 18  1  0
  2  3  2  0
  3  4  1  0
  4  5  2  0
  5  6  1  0
  6  7  2  0
  2  7  1  0
M  END

$$$$
No_659-/export/home/yangzhenyu/potential_scad_32_flow//YTHDC2/2024-12-06-03-22-00/
     RDKit          3D

 20 20  0  0  1  0  0  0  0  0999 V2000
    1.1787   -8.0297    3.5154 O   0  0  0  0  0  0  0  0  0  0  0  0
    0.9969   -8.9689    3.0048 C   0  0  1  0  0  0  0  0  0  0  0  0
    0.9976   -8.9567    1.6341 C   0  0  0  0  0  0  0  0  0  0  0  0
    0.7663   -7.7728    1.0082 C   0  0  0  0  0  0  0  0  0  0  0  0
    1.1468   -6.5619    1.6541 C   0  0  0  0  0  0  0  0  0  0  0  0
    1.3592   -6.6155    3.0007 C   0  0  0  0  0  0  0  0  0  0  0  0
    1.2035  -10.1894    3.6215 C   0  0  0  0  0  0  0  0  0  0  0  0
    0.3377  -11.1521    3.8136 O   0  0  0  0  0  0  0  0  0  0  0  0
    2.3816  -10.6318    4.3052 N   0  0  0  0  0  0  0  0  0  0  0  0
   -0.0641   -7.6525   -0.0088 O   0  0  0  0  0  0  0  0  0  0  0  0
    1.6985   -5.6277    3.7331 O   0  0  0  0  0  0  0  0  0  0  0  0
    1.1723  -10.0641    0.8201 C   0  0  0  0  0  0  0  0  0  0  0  0
    0.1283  -10.9057    0.4798 O   0  0  0  0  0  0  0  0  0  0  0  0
    2.2149  -10.1790   -0.0586 O   0  0  0  0  0  0  0  0  0  0  0  0
    2.6506  -11.7637    4.9446 C   0  0  0  0  0  0  0  0  0  0  0  0
    2.8396  -12.6212    3.8878 C   0  0  0  0  0  0  0  0  0  0  0  0
    1.5202  -12.9292    3.1186 C   0  0  0  0  0  0  0  0  0  0  0  0
    1.8830  -13.6794    1.8388 C   0  0  0  0  0  0  0  0  0  0  0  0
    1.6242  -14.8664    1.8063 C   0  0  0  0  0  0  0  0  0  0  0  0
    0.8142  -15.3464    2.6631 C   0  0  0  0  0  0  0  0  0  0  0  0
  1  2  1  0
  2  3  1  0
  3  4  1  0
  4  5  1  0
  1  6  1  0
  5  6  1  0
  2  7  1  6
  7  8  2  0
  7  9  1  0
  4 10  2  0
  6 11  2  0
  3 12  1  0
 12 13  2  0
 12 14  1  0
  9 15  1  0
 15 16  1  0
 16 17  1  0
 17 18  1  0
 18 19  1  0
 19 20  1  0
M  END

$$$$
No_660-/export/home/yangzhenyu/potential_scad_32_flow//YTHDC2/2024-12-06-03-22-00/
     RDKit          3D

 19 19  0  0  0  0  0  0  0  0999 V2000
    1.1787   -8.0297    3.5154 C   0  0  0  0  0  0  0  0  0  0  0  0
    1.1048   -9.2215    3.2892 C   0  0  0  0  0  0  0  0  0  0  0  0
    1.3627  -10.1721    4.3044 C   0  0  0  0  0  0  0  0  0  0  0  0
    2.3720  -10.8948    4.2468 C   0  0  0  0  0  0  0  0  0  0  0  0
    1.0579   -7.0441    2.4219 C   0  0  0  0  0  0  0  0  0  0  0  0
    0.8578   -7.4970    1.1686 C   0  0  0  0  0  0  0  0  0  0  0  0
    0.7382   -8.7683    0.8754 C   0  0  0  0  0  0  0  0  0  0  0  0
    0.8882   -9.7347    1.9238 C   0  0  0  0  0  0  0  0  0  0  0  0
    0.9437  -11.0299    1.7005 C   0  0  0  0  0  0  0  0  0  0  0  0
   -0.0869  -11.8512    1.8957 O   0  0  0  0  0  0  0  0  0  0  0  0
    2.0237  -11.5609    1.0147 N   0  0  0  0  0  0  0  0  0  0  0  0
    1.1979   -5.5940    2.6942 O   0  0  0  0  0  0  0  0  0  0  0  0
    3.5431  -10.3787    5.0493 C   0  0  0  0  0  0  0  0  0  0  0  0
    3.1670  -10.0987    6.3568 N   0  0  0  0  0  0  0  0  0  0  0  0
    4.7199  -10.8583    4.9347 O   0  0  0  0  0  0  0  0  0  0  0  0
    0.5735   -9.2102   -0.3948 C   0  0  0  0  0  0  0  0  0  0  0  0
    1.3693   -9.0020   -1.4218 O   0  0  0  0  0  0  0  0  0  0  0  0
   -0.6678   -9.5869   -0.8084 N   0  0  0  0  0  0  0  0  0  0  0  0
   -1.0341   -9.8294   -2.2166 C   0  0  0  0  0  0  0  0  0  0  0  0
  2  3  1  0
  3  4  1  0
  8  9  1  0
  9 10  2  0
  9 11  1  0
  5 12  1  0
  4 13  1  0
 13 14  1  0
 13 15  2  0
  7 16  1  0
 16 17  2  0
 16 18  1  0
 18 19  1  0
  1  2  2  0
  2  8  1  0
  7  8  2  0
  6  7  1  0
  5  6  2  0
  1  5  1  0
M  END

$$$$
No_661-/export/home/yangzhenyu/potential_scad_32_flow//YTHDC2/2024-12-06-03-22-00/
     RDKit          3D

 20 19  0  0  1  0  0  0  0  0999 V2000
    1.1787   -8.0297    3.5154 C   0  0  0  0  0  0  0  0  0  0  0  0
    1.0491   -6.8434    2.9820 C   0  0  0  0  0  0  0  0  0  0  0  0
    1.9985   -8.9840    2.8958 C   0  0  2  0  0  0  0  0  0  0  0  0
    1.7297   -9.2108    1.6335 P   0  0  1  0  0  0  0  0  0  0  0  0
    1.9564   -7.8899    0.8095 O   0  0  0  0  0  0  0  0  0  0  0  0
    2.8159  -10.2091    0.9394 O   0  0  0  0  0  0  0  0  0  0  0  0
    0.4543   -9.6765    1.1206 O   0  0  0  0  0  0  0  0  0  0  0  0
    0.0868   -6.5623    2.0761 C   0  0  0  0  0  0  0  0  0  0  0  0
    0.2830   -5.4994    1.2029 O   0  0  0  0  0  0  0  0  0  0  0  0
   -0.9642   -7.1707    2.1387 O   0  0  0  0  0  0  0  0  0  0  0  0
    0.4513   -4.1907    1.8683 C   0  0  1  0  0  0  0  0  0  0  0  0
    1.7167   -3.7911    1.7052 C   0  0  0  0  0  0  0  0  0  0  0  0
   -0.4561   -3.4324    2.2260 C   0  0  0  0  0  0  0  0  0  0  0  0
   -1.6716   -3.7744    2.1228 O   0  0  0  0  0  0  0  0  0  0  0  0
   -0.1483   -2.3929    3.1236 O   0  0  0  0  0  0  0  0  0  0  0  0
    2.0374  -10.3106    3.6529 C   0  0  0  0  0  0  0  0  0  0  0  0
    3.2272  -10.6058    4.3221 O   0  0  0  0  0  0  0  0  0  0  0  0
    1.0571  -11.1880    3.7164 O   0  0  0  0  0  0  0  0  0  0  0  0
    0.0585  -11.1405    0.6556 C   0  0  0  0  0  0  0  0  0  0  0  0
   -1.2569  -11.3861    0.6098 C   0  0  0  0  0  0  0  0  0  0  0  0
  1  2  1  0
  3  1  1  1
  3  4  1  0
  4  5  1  6
  4  6  2  0
  4  7  1  0
  2  8  1  0
  8  9  1  0
  8 10  2  0
  9 11  1  0
 11 12  1  6
 11 13  1  0
 13 14  2  0
 13 15  1  0
  3 16  1  0
 16 17  1  0
 16 18  2  0
  7 19  1  0
 19 20  1  0
M  END

$$$$
No_662-/export/home/yangzhenyu/potential_scad_32_flow//YTHDC2/2024-12-06-03-22-00/
     RDKit          3D

 18 19  0  0  1  0  0  0  0  0999 V2000
    1.1787   -8.0297    3.5154 O   0  0  0  0  0  0  0  0  0  0  0  0
    0.9969   -8.9689    3.0048 C   0  0  0  0  0  0  0  0  0  0  0  0
    0.9976   -8.9567    1.6341 C   0  0  0  0  0  0  0  0  0  0  0  0
    0.7663   -7.7728    1.0082 C   0  0  0  0  0  0  0  0  0  0  0  0
    1.1468   -6.5619    1.6541 C   0  0  0  0  0  0  0  0  0  0  0  0
    1.3592   -6.6155    3.0007 C   0  0  1  0  0  0  0  0  0  0  0  0
    1.2035  -10.1894    3.6215 C   0  0  0  0  0  0  0  0  0  0  0  0
    1.3724  -11.3423    2.8771 C   0  0  0  0  0  0  0  0  0  0  0  0
    1.3261  -11.2581    1.4865 C   0  0  0  0  0  0  0  0  0  0  0  0
    1.1771  -10.0721    0.8483 C   0  0  0  0  0  0  0  0  0  0  0  0
    0.5377   -7.6363   -0.1925 O   0  0  0  0  0  0  0  0  0  0  0  0
    1.6053  -12.6410    3.4455 C   0  0  0  0  0  0  0  0  0  0  0  0
    1.3573  -13.8500    2.5091 O   0  0  0  0  0  0  0  0  0  0  0  0
    1.4491   -5.6133    3.8084 C   0  0  0  0  0  0  0  0  0  0  0  0
    1.2750  -12.9808    4.5744 N   0  0  0  0  0  0  0  0  0  0  0  0
    1.0560   -5.3832    1.0617 O   0  0  0  0  0  0  0  0  0  0  0  0
    1.8286   -4.3860    3.3723 P   0  0  0  0  0  0  0  0  0  0  0  0
    1.4233   -3.2814    3.9938 O   0  0  0  0  0  0  0  0  0  0  0  0
  1  2  1  0
  3  4  1  0
  4  5  1  0
  1  6  1  0
  5  6  1  0
  4 11  2  0
  8 12  1  0
 12 13  2  0
  6 14  1  1
 12 15  1  0
  5 16  2  0
 14 17  1  0
 17 18  1  0
  2  3  2  0
  3 10  1  0
  9 10  2  0
  8  9  1  0
  7  8  2  0
  2  7  1  0
M  END

$$$$
No_663-/export/home/yangzhenyu/potential_scad_32_flow//YTHDC2/2024-12-06-03-22-00/
     RDKit          3D

 19 20  0  0  1  0  0  0  0  0999 V2000
    1.1787   -8.0297    3.5154 O   0  0  0  0  0  0  0  0  0  0  0  0
    0.9969   -8.9689    3.0048 C   0  0  1  0  0  0  0  0  0  0  0  0
    0.9976   -8.9567    1.6341 C   0  0  2  0  0  0  0  0  0  0  0  0
    1.6062   -9.9071    0.9292 C   0  0  1  0  0  0  0  0  0  0  0  0
    2.1191  -10.9757    1.6503 C   0  0  0  0  0  0  0  0  0  0  0  0
    2.1177  -10.9891    3.0403 C   0  0  0  0  0  0  0  0  0  0  0  0
    1.5441   -9.8905    3.6897 C   0  0  0  0  0  0  0  0  0  0  0  0
    0.5010   -7.8165    1.0436 O   0  0  0  0  0  0  0  0  0  0  0  0
    1.6035  -10.1896    5.0261 O   0  0  0  0  0  0  0  0  0  0  0  0
    1.5183   -9.9051   -0.4301 O   0  0  0  0  0  0  0  0  0  0  0  0
   -0.8430   -7.8252    0.8449 C   0  0  0  0  0  0  0  0  0  0  0  0
   -1.4480   -8.7281    0.5550 C   0  0  0  0  0  0  0  0  0  0  0  0
   -2.0826   -9.4564    1.2581 C   0  0  0  0  0  0  0  0  0  0  0  0
   -2.7971  -10.7027    0.8755 C   0  0  0  0  0  0  0  0  0  0  0  0
   -2.7455  -10.8481   -0.4651 C   0  0  0  0  0  0  0  0  0  0  0  0
   -2.0811  -10.1358   -1.3652 C   0  0  0  0  0  0  0  0  0  0  0  0
   -1.3670   -9.0127   -0.9225 C   0  0  0  0  0  0  0  0  0  0  0  0
   -1.1856   -6.4618    0.8284 O   0  0  0  0  0  0  0  0  0  0  0  0
   -2.1001  -10.5380   -2.7269 O   0  0  0  0  0  0  0  0  0  0  0  0
  2  1  1  1
  2  3  1  0
  4  5  1  0
  2  7  1  0
  6  7  1  0
  3  8  1  1
  7  9  2  0
  4 10  1  6
  8 11  1  0
 11 12  1  0
 11 18  2  0
 16 19  1  0
  3  4  1  0
  5  6  1  0
 12 13  2  0
 13 14  1  0
 14 15  2  0
 15 16  1  0
 16 17  2  0
 12 17  1  0
M  END

$$$$
No_664-/export/home/yangzhenyu/potential_scad_32_flow//YTHDC2/2024-12-06-03-22-00/
     RDKit          3D

 19 19  0  0  0  0  0  0  0  0999 V2000
    1.1787   -8.0297    3.5154 C   0  0  0  0  0  0  0  0  0  0  0  0
    1.1048   -9.2215    3.2892 C   0  0  0  0  0  0  0  0  0  0  0  0
    1.3627  -10.1721    4.3044 C   0  0  0  0  0  0  0  0  0  0  0  0
    1.7354  -11.4730    3.9023 C   0  0  0  0  0  0  0  0  0  0  0  0
    1.8080  -11.8127    2.7216 C   0  0  0  0  0  0  0  0  0  0  0  0
    1.5854  -11.0021    1.7249 C   0  0  0  0  0  0  0  0  0  0  0  0
    1.3573   -9.7389    1.9287 C   0  0  0  0  0  0  0  0  0  0  0  0
    1.1102   -8.8712    0.9017 C   0  0  0  0  0  0  0  0  0  0  0  0
    1.5724   -9.1697   -0.3048 C   0  0  0  0  0  0  0  0  0  0  0  0
    1.2378   -8.2159   -1.4226 O   0  0  0  0  0  0  0  0  0  0  0  0
    2.0610  -13.2069    2.3284 C   0  0  0  0  0  0  0  0  0  0  0  0
    1.2085  -14.0560    1.7042 O   0  0  0  0  0  0  0  0  0  0  0  0
    2.9616  -13.9645    2.9394 O   0  0  0  0  0  0  0  0  0  0  0  0
    0.1219   -7.2176    3.4165 O   0  0  0  0  0  0  0  0  0  0  0  0
    2.2033   -7.2151    3.9231 O   0  0  0  0  0  0  0  0  0  0  0  0
    2.5545   -9.9551   -0.6506 O   0  0  0  0  0  0  0  0  0  0  0  0
    0.6195   -7.5535    1.0121 C   0  0  0  0  0  0  0  0  0  0  0  0
    0.9964   -6.4093    1.0970 C   0  0  0  0  0  0  0  0  0  0  0  0
    0.3648   -5.1873    1.0435 C   0  0  0  0  0  0  0  0  0  0  0  0
  1  2  1  0
  7  8  1  0
  8  9  2  3
  9 10  1  0
  5 11  1  0
 11 12  2  0
 11 13  1  0
  1 14  2  0
  1 15  1  0
  9 16  1  0
  8 17  1  0
 17 18  1  0
 18 19  2  0
  2  3  2  0
  3  4  1  0
  4  5  2  0
  5  6  1  0
  6  7  2  0
  2  7  1  0
M  END

$$$$
No_665-/export/home/yangzhenyu/potential_scad_32_flow//YTHDC2/2024-12-06-03-22-00/
     RDKit          3D

 18 18  0  0  0  0  0  0  0  0999 V2000
    1.1787   -8.0297    3.5154 C   0  0  0  0  0  0  0  0  0  0  0  0
    1.1048   -9.2215    3.2892 N   0  0  0  0  0  0  0  0  0  0  0  0
    1.0346   -9.7785    2.1176 C   0  0  0  0  0  0  0  0  0  0  0  0
    1.2789  -11.1513    2.1554 C   0  0  0  0  0  0  0  0  0  0  0  0
    0.8467  -11.9817    2.5723 C   0  0  0  0  0  0  0  0  0  0  0  0
    1.2958  -13.4791    2.6510 C   0  0  0  0  0  0  0  0  0  0  0  0
    2.3384  -13.8027    1.9990 C   0  0  0  0  0  0  0  0  0  0  0  0
    1.0861   -7.1990    2.2462 Cl  0  0  0  0  0  0  0  0  0  0  0  0
    2.8479  -12.8594    1.0699 C   0  0  0  0  0  0  0  0  0  0  0  0
    2.3949  -11.5670    1.0421 C   0  0  0  0  0  0  0  0  0  0  0  0
    0.7442   -9.1050    0.9636 C   0  0  0  0  0  0  0  0  0  0  0  0
   -0.6629   -9.2187    0.5459 C   0  0  0  0  0  0  0  0  0  0  0  0
   -0.9743   -8.7440   -0.8120 C   0  0  0  0  0  0  0  0  0  0  0  0
   -0.1185   -8.5007   -1.6741 O   0  0  0  0  0  0  0  0  0  0  0  0
   -2.1954   -8.6950   -1.1092 O   0  0  0  0  0  0  0  0  0  0  0  0
    2.7806  -15.0704    1.8239 Cl  0  0  0  0  0  0  0  0  0  0  0  0
   -1.4238  -10.0602    1.1034 O   0  0  0  0  0  0  0  0  0  0  0  0
    1.3990   -7.5990    4.6629 O   0  0  0  0  0  0  0  0  0  0  0  0
  1  2  1  0
  2  3  1  0
  3  4  1  0
  1  8  1  0
  3 11  1  0
 11 12  1  0
 12 13  1  0
 13 14  2  0
 13 15  1  0
  7 16  1  0
 12 17  2  0
  1 18  2  0
  4  5  2  0
  5  6  1  0
  6  7  2  0
  7  9  1  0
  9 10  2  0
  4 10  1  0
M  END

$$$$
No_666-/export/home/yangzhenyu/potential_scad_32_flow//YTHDC2/2024-12-06-03-22-00/
     RDKit          3D

 18 18  0  0  1  0  0  0  0  0999 V2000
    1.1787   -8.0297    3.5154 C   0  0  0  0  0  0  0  0  0  0  0  0
    1.0491   -6.8434    2.9820 C   0  0  1  0  0  0  0  0  0  0  0  0
    1.9985   -8.9840    2.8958 C   0  0  2  0  0  0  0  0  0  0  0  0
    1.7297   -9.2108    1.6335 C   0  0  0  0  0  0  0  0  0  0  0  0
    1.7343   -8.0566    0.8408 C   0  0  2  0  0  0  0  0  0  0  0  0
    1.0269   -6.8892    1.4456 C   0  0  0  0  0  0  0  0  0  0  0  0
    1.7596   -8.0979   -0.4723 C   0  0  0  0  0  0  0  0  0  0  0  0
    1.8128   -9.1679   -1.0978 O   0  0  0  0  0  0  0  0  0  0  0  0
    2.3759  -10.1811    3.6380 C   0  0  0  0  0  0  0  0  0  0  0  0
    1.4885  -11.0474    4.0500 O   0  0  0  0  0  0  0  0  0  0  0  0
    3.6242  -10.3980    4.0533 O   0  0  0  0  0  0  0  0  0  0  0  0
    2.1683   -7.2252   -1.2130 O   0  0  0  0  0  0  0  0  0  0  0  0
    0.3412   -5.8178    3.4066 C   0  0  0  0  0  0  0  0  0  0  0  0
   -0.9844   -5.8544    3.2660 O   0  0  0  0  0  0  0  0  0  0  0  0
    0.9164   -4.6531    3.7648 O   0  0  0  0  0  0  0  0  0  0  0  0
    0.7395   -5.8057    0.7997 O   0  0  0  0  0  0  0  0  0  0  0  0
    1.0292   -3.4704    3.2034 C   0  0  0  0  0  0  0  0  0  0  0  0
    2.0336   -2.8711    3.1575 C   0  0  0  0  0  0  0  0  0  0  0  0
  1  2  1  0
  1  3  1  0
  3  4  1  0
  4  5  1  0
  2  6  1  0
  5  6  1  0
  5  7  1  6
  7  8  1  0
  3  9  1  1
  9 10  2  0
  9 11  1  0
  7 12  2  0
  2 13  1  1
 13 14  2  0
 13 15  1  0
  6 16  2  0
 15 17  1  0
 17 18  1  0
M  END

$$$$
No_667-/export/home/yangzhenyu/potential_scad_32_flow//YTHDC2/2024-12-06-03-22-00/
     RDKit          3D

 18 18  0  0  1  0  0  0  0  0999 V2000
    1.1787   -8.0297    3.5154 N   0  0  0  0  0  0  0  0  0  0  0  0
    1.0818   -9.0751    3.2053 C   0  0  2  0  0  0  0  0  0  0  0  0
    0.7576   -9.3725    1.9159 C   0  0  0  0  0  0  0  0  0  0  0  0
    0.8823   -8.4917    1.0547 C   0  0  1  0  0  0  0  0  0  0  0  0
    1.4631   -7.3107    1.2451 C   0  0  0  0  0  0  0  0  0  0  0  0
    1.6470   -6.9326    2.5669 C   0  0  0  0  0  0  0  0  0  0  0  0
    0.8237  -10.1305    4.2407 C   0  0  1  0  0  0  0  0  0  0  0  0
   -0.4178  -10.6899    4.4426 N   0  0  0  0  0  0  0  0  0  0  0  0
    1.9007  -10.7512    4.7785 C   0  0  0  0  0  0  0  0  0  0  0  0
    0.8507   -8.9198   -0.4006 C   0  0  0  0  0  0  0  0  0  0  0  0
    1.7457   -8.8397   -1.2290 O   0  0  0  0  0  0  0  0  0  0  0  0
   -0.3066   -9.4837   -0.8033 O   0  0  0  0  0  0  0  0  0  0  0  0
    3.0537  -10.8054    4.2889 O   0  0  0  0  0  0  0  0  0  0  0  0
   -1.5372   -9.8547    4.4271 O   0  0  0  0  0  0  0  0  0  0  0  0
    1.7611  -11.3151    5.8761 O   0  0  0  0  0  0  0  0  0  0  0  0
    1.8073   -5.6436    3.0622 O   0  0  0  0  0  0  0  0  0  0  0  0
   -1.0233   -9.0921   -1.9600 C   0  0  0  0  0  0  0  0  0  0  0  0
   -1.6539   -8.0388   -1.9929 C   0  0  0  0  0  0  0  0  0  0  0  0
  1  2  1  0
  3  4  1  0
  1  6  1  0
  5  6  1  0
  2  7  1  0
  7  8  1  6
  7  9  1  0
  4 10  1  6
 10 11  2  0
 10 12  1  0
  9 13  2  0
  8 14  2  0
  9 15  1  0
  6 16  2  0
 12 17  1  0
 17 18  1  0
  2  3  1  6
  4  5  1  0
M  END

$$$$
No_668-/export/home/yangzhenyu/potential_scad_32_flow//YTHDC2/2024-12-06-03-22-00/
     RDKit          3D

 20 19  0  0  1  0  0  0  0  0999 V2000
    1.1787   -8.0297    3.5154 O   0  0  0  0  0  0  0  0  0  0  0  0
    0.9969   -8.9689    3.0048 P   0  0  2  0  0  0  0  0  0  0  0  0
    1.5313  -10.0495    3.7638 O   0  0  0  0  0  0  0  0  0  0  0  0
    1.7916   -9.0870    1.6032 O   0  0  0  0  0  0  0  0  0  0  0  0
   -0.4457   -9.2458    2.7441 O   0  0  0  0  0  0  0  0  0  0  0  0
    1.4693  -11.5261    3.6309 C   0  0  0  0  0  0  0  0  0  0  0  0
    1.5298  -11.9947    2.3615 C   0  0  0  0  0  0  0  0  0  0  0  0
    1.6958  -13.2027    2.0998 C   0  0  0  0  0  0  0  0  0  0  0  0
    1.6030  -14.1108    3.1691 O   0  0  0  0  0  0  0  0  0  0  0  0
    2.0224  -13.7668    1.0061 O   0  0  0  0  0  0  0  0  0  0  0  0
    1.3617   -8.4015    0.3750 C   0  0  0  0  0  0  0  0  0  0  0  0
    2.0751   -8.9564   -0.7256 C   0  0  0  0  0  0  0  0  0  0  0  0
    2.8529   -9.9049   -0.5461 O   0  0  0  0  0  0  0  0  0  0  0  0
    2.2483   -8.1758   -1.6724 O   0  0  0  0  0  0  0  0  0  0  0  0
    1.7384  -15.5307    2.8084 C   0  0  2  0  0  0  0  0  0  0  0  0
    0.7563  -16.4047    3.2037 C   0  0  0  0  0  0  0  0  0  0  0  0
   -0.2124  -15.9708    3.6246 O   0  0  0  0  0  0  0  0  0  0  0  0
    1.0657  -17.6646    3.1458 O   0  0  0  0  0  0  0  0  0  0  0  0
    2.9663  -15.8707    2.3809 C   0  0  0  0  0  0  0  0  0  0  0  0
    3.1329  -16.7005    1.5753 O   0  0  0  0  0  0  0  0  0  0  0  0
  2  1  1  1
  2  3  1  0
  2  4  1  0
  2  5  2  0
  3  6  1  0
  6  7  1  0
  7  8  1  0
  8  9  1  0
  8 10  2  0
  4 11  1  0
 11 12  1  0
 12 13  1  0
 12 14  2  0
 15  9  1  1
 15 16  1  0
 16 17  2  0
 16 18  1  0
 15 19  1  0
 19 20  2  0
M  END

$$$$
No_669-/export/home/yangzhenyu/potential_scad_32_flow//YTHDC2/2024-12-06-03-22-00/
     RDKit          3D

 19 19  0  0  1  0  0  0  0  0999 V2000
    1.1787   -8.0297    3.5154 C   0  0  0  0  0  0  0  0  0  0  0  0
    1.0491   -6.8434    2.9820 C   0  0  2  0  0  0  0  0  0  0  0  0
    1.9985   -8.9840    2.8958 C   0  0  0  0  0  0  0  0  0  0  0  0
    1.7297   -9.2108    1.6335 C   0  0  1  0  0  0  0  0  0  0  0  0
    1.7343   -8.0566    0.8408 C   0  0  2  0  0  0  0  0  0  0  0  0
    0.7286   -5.6388    3.4189 C   0  0  0  0  0  0  0  0  0  0  0  0
    1.1812   -6.9194    1.4209 C   0  0  0  0  0  0  0  0  0  0  0  0
    1.9173   -8.0173   -0.4440 C   0  0  0  0  0  0  0  0  0  0  0  0
    1.1075   -7.8937   -1.2847 O   0  0  0  0  0  0  0  0  0  0  0  0
    3.2163   -8.3070   -0.9355 O   0  0  0  0  0  0  0  0  0  0  0  0
    1.7146   -4.6608    3.7348 O   0  0  0  0  0  0  0  0  0  0  0  0
   -0.4357   -5.0689    2.9270 O   0  0  0  0  0  0  0  0  0  0  0  0
    1.7569  -10.4383    1.0893 C   0  0  0  0  0  0  0  0  0  0  0  0
    1.1419  -11.4576    1.5897 O   0  0  0  0  0  0  0  0  0  0  0  0
    1.7191  -12.6583    1.8327 C   0  0  0  0  0  0  0  0  0  0  0  0
    0.9891  -13.8010    2.0628 C   0  0  0  0  0  0  0  0  0  0  0  0
   -0.2753  -13.6571    2.0919 C   0  0  0  0  0  0  0  0  0  0  0  0
   -0.7724  -12.9069    2.9403 C   0  0  0  0  0  0  0  0  0  0  0  0
   -2.1931  -12.5413    2.8206 C   0  0  0  0  0  0  0  0  0  0  0  0
  1  2  1  0
  1  3  1  0
  3  4  1  0
  4  5  1  0
  2  6  1  6
  2  7  1  0
  5  7  1  0
  5  8  1  6
  8  9  2  0
  8 10  1  0
  6 11  1  0
  6 12  2  0
  4 13  1  6
 13 14  1  0
 14 15  1  0
 15 16  1  0
 16 17  1  0
 17 18  1  0
 18 19  2  0
M  END

$$$$
No_670-/export/home/yangzhenyu/potential_scad_32_flow//YTHDC2/2024-12-06-03-22-00/
     RDKit          3D

 19 19  0  0  1  0  0  0  0  0999 V2000
    1.1787   -8.0297    3.5154 C   0  0  0  0  0  0  0  0  0  0  0  0
    1.0491   -6.8434    2.9820 C   0  0  0  0  0  0  0  0  0  0  0  0
    1.9985   -8.9840    2.8958 C   0  0  0  0  0  0  0  0  0  0  0  0
    1.9135  -10.3404    3.6266 C   0  0  0  0  0  0  0  0  0  0  0  0
    1.3291  -11.3908    3.0222 C   0  0  2  0  0  0  0  0  0  0  0  0
    1.2749  -12.5326    3.7562 C   0  0  0  0  0  0  0  0  0  0  0  0
    1.2373   -6.5190    1.7857 C   0  0  0  0  0  0  0  0  0  0  0  0
    0.2323   -6.5712    1.0214 C   0  0  0  0  0  0  0  0  0  0  0  0
    0.7410  -13.6712    3.1533 C   0  0  1  0  0  0  0  0  0  0  0  0
    0.4605  -13.6516    1.8462 C   0  0  0  0  0  0  0  0  0  0  0  0
    0.6807  -12.6315    1.0798 C   0  0  0  0  0  0  0  0  0  0  0  0
    1.1604  -11.4628    1.6226 C   0  0  0  0  0  0  0  0  0  0  0  0
   -0.7787   -5.5507    1.0998 O   0  0  0  0  0  0  0  0  0  0  0  0
   -0.0625   -7.5737    0.2444 O   0  0  0  0  0  0  0  0  0  0  0  0
    1.2296  -10.3677    0.7864 O   0  0  0  0  0  0  0  0  0  0  0  0
    0.6145  -14.8398    3.8869 O   0  0  0  0  0  0  0  0  0  0  0  0
    2.6363  -10.3519    4.7741 O   0  0  0  0  0  0  0  0  0  0  0  0
    0.4997  -16.0129    3.3042 C   0  0  0  0  0  0  0  0  0  0  0  0
   -0.5920  -16.5947    3.4228 C   0  0  0  0  0  0  0  0  0  0  0  0
  1  2  1  0
  1  3  1  0
  3  4  1  0
  5  4  1  6
  5  6  1  0
  2  7  1  0
  7  8  1  0
  9 10  1  0
  5 12  1  0
 11 12  1  0
  8 13  2  0
  8 14  1  0
 12 15  2  0
  9 16  1  6
  4 17  2  0
 16 18  1  0
 18 19  1  0
  6  9  1  0
 10 11  1  0
M  END

$$$$
No_671-/export/home/yangzhenyu/potential_scad_32_flow//YTHDC2/2024-12-06-03-22-00/
     RDKit          3D

 19 19  0  0  0  0  0  0  0  0999 V2000
    1.1787   -8.0297    3.5154 C   0  0  0  0  0  0  0  0  0  0  0  0
    1.0491   -6.8434    2.9820 C   0  0  0  0  0  0  0  0  0  0  0  0
    0.0950   -8.8404    3.2292 C   0  0  0  0  0  0  0  0  0  0  0  0
   -0.9173   -8.4596    2.5152 C   0  0  0  0  0  0  0  0  0  0  0  0
   -1.0331   -7.2162    2.0653 C   0  0  0  0  0  0  0  0  0  0  0  0
   -0.0105   -6.3168    2.3081 C   0  0  0  0  0  0  0  0  0  0  0  0
    0.0485   -4.9783    1.8782 C   0  0  0  0  0  0  0  0  0  0  0  0
    0.9625   -4.1072    2.3252 O   0  0  0  0  0  0  0  0  0  0  0  0
   -0.5912   -4.4986    0.8553 O   0  0  0  0  0  0  0  0  0  0  0  0
    0.1804  -10.2883    3.6536 C   0  0  0  0  0  0  0  0  0  0  0  0
   -1.0381  -10.9767    3.7935 O   0  0  0  0  0  0  0  0  0  0  0  0
    1.2273  -10.8376    4.3341 N   0  0  0  0  0  0  0  0  0  0  0  0
    2.5051  -10.5246    4.0329 O   0  0  0  0  0  0  0  0  0  0  0  0
   -0.5400   -3.2034    0.5950 C   0  0  0  0  0  0  0  0  0  0  0  0
    0.0623   -2.9452   -0.6419 C   0  0  0  0  0  0  0  0  0  0  0  0
   -0.4924   -1.7804   -1.4560 C   0  0  0  0  0  0  0  0  0  0  0  0
   -1.4033   -2.1565   -2.3622 O   0  0  0  0  0  0  0  0  0  0  0  0
   -0.4397   -0.5826   -0.9746 O   0  0  0  0  0  0  0  0  0  0  0  0
   -1.9783   -1.1161   -3.0659 C   0  0  0  0  0  0  0  0  0  0  0  0
  6  7  1  0
  7  8  2  0
  7  9  1  0
  3 10  1  0
 10 11  2  0
 10 12  1  0
 12 13  2  0
  9 14  1  0
 14 15  1  0
 15 16  1  0
 16 17  1  0
 16 18  2  0
 17 19  1  0
  1  2  2  0
  2  6  1  0
  5  6  2  0
  4  5  1  0
  3  4  2  0
  1  3  1  0
M  END

$$$$
No_672-/export/home/yangzhenyu/potential_scad_32_flow//YTHDC2/2024-12-06-03-22-00/
     RDKit          3D

 19 19  0  0  0  0  0  0  0  0999 V2000
    1.1787   -8.0297    3.5154 C   0  0  0  0  0  0  0  0  0  0  0  0
    1.1048   -9.2215    3.2892 C   0  0  0  0  0  0  0  0  0  0  0  0
    1.2339   -9.7611    2.0189 C   0  0  0  0  0  0  0  0  0  0  0  0
    1.1954  -11.2312    1.8661 C   0  0  0  0  0  0  0  0  0  0  0  0
    1.2996  -11.5815    0.5387 O   0  0  0  0  0  0  0  0  0  0  0  0
    1.3149   -7.1045    2.3637 C   0  0  0  0  0  0  0  0  0  0  0  0
    1.3551   -7.6282    1.0756 C   0  0  0  0  0  0  0  0  0  0  0  0
    1.4374   -8.9627    0.8779 C   0  0  0  0  0  0  0  0  0  0  0  0
    0.9932  -11.9687    2.7975 O   0  0  0  0  0  0  0  0  0  0  0  0
    1.3228   -5.4586    2.6287 Cl  0  0  0  0  0  0  0  0  0  0  0  0
    1.5531   -9.4040   -0.3859 O   0  0  0  0  0  0  0  0  0  0  0  0
    1.0045  -10.1168    4.4429 Cl  0  0  0  0  0  0  0  0  0  0  0  0
    2.1336   -8.6272   -1.3755 C   0  0  0  0  0  0  0  0  0  0  0  0
    3.5613   -9.1926   -1.3598 C   0  0  0  0  0  0  0  0  0  0  0  0
    4.2396   -8.3497   -2.2289 O   0  0  0  0  0  0  0  0  0  0  0  0
    4.0287   -9.8216   -0.6802 O   0  0  0  0  0  0  0  0  0  0  0  0
    0.1054  -12.3385    0.1546 C   0  0  0  0  0  0  0  0  0  0  0  0
   -0.8487  -11.5686   -0.5928 C   0  0  0  0  0  0  0  0  0  0  0  0
   -2.0092  -11.8932   -0.5327 C   0  0  0  0  0  0  0  0  0  0  0  0
  3  4  1  0
  4  5  1  0
  4  9  2  0
  6 10  1  0
  8 11  1  0
  2 12  1  0
 11 13  1  0
 13 14  1  0
 14 15  2  0
 14 16  1  0
  5 17  1  0
 17 18  1  0
 18 19  2  0
  1  2  2  0
  2  3  1  0
  3  8  2  0
  7  8  1  0
  6  7  2  0
  1  6  1  0
M  END

$$$$
No_673-/export/home/yangzhenyu/potential_scad_32_flow//YTHDC2/2024-12-06-03-22-00/
     RDKit          3D

 17 17  0  0  1  0  0  0  0  0999 V2000
    1.1787   -8.0297    3.5154 C   0  0  0  0  0  0  0  0  0  0  0  0
    1.0491   -6.8434    2.9820 C   0  0  0  0  0  0  0  0  0  0  0  0
    0.9905   -9.0774    2.6527 C   0  0  0  0  0  0  0  0  0  0  0  0
    0.7897   -8.9519    1.3691 C   0  0  0  0  0  0  0  0  0  0  0  0
    0.7018   -7.7198    0.7892 C   0  0  0  0  0  0  0  0  0  0  0  0
    0.8918   -6.5957    1.6117 C   0  0  0  0  0  0  0  0  0  0  0  0
    1.0711  -10.4814    3.2282 C   0  0  1  0  0  0  0  0  0  0  0  0
    2.1432  -11.0138    3.5962 C   0  0  0  0  0  0  0  0  0  0  0  0
   -0.0912  -10.6996    4.1636 C   0  0  0  0  0  0  0  0  0  0  0  0
    0.8746   -5.2660    1.1123 Cl  0  0  0  0  0  0  0  0  0  0  0  0
    2.1034  -12.3905    3.9026 N   0  0  0  0  0  0  0  0  0  0  0  0
   -1.2473  -10.0100    3.7849 C   0  0  0  0  0  0  0  0  0  0  0  0
   -2.1364  -10.6203    2.8947 C   0  0  0  0  0  0  0  0  0  0  0  0
   -3.2266   -9.7505    2.4959 O   0  0  0  0  0  0  0  0  0  0  0  0
   -1.9964  -11.8111    2.4421 O   0  0  0  0  0  0  0  0  0  0  0  0
   -3.3042   -9.5080    1.2966 C   0  0  0  0  0  0  0  0  0  0  0  0
    1.5966  -12.9672    2.9000 N   0  0  0  0  0  0  0  0  0  0  0  0
  3  7  1  0
  7  8  1  0
  7  9  1  1
  6 10  1  0
  8 11  2  3
  9 12  1  0
 12 13  2  3
 13 14  1  0
 13 15  1  0
 14 16  1  0
 11 17  1  0
  1  2  2  0
  2  6  1  0
  5  6  2  0
  4  5  1  0
  3  4  2  0
  1  3  1  0
M  END

$$$$
No_674-/export/home/yangzhenyu/potential_scad_32_flow//YTHDC2/2024-12-06-03-22-00/
     RDKit          3D

 19 19  0  0  1  0  0  0  0  0999 V2000
    1.1787   -8.0297    3.5154 O   0  0  0  0  0  0  0  0  0  0  0  0
    0.9969   -8.9689    3.0048 P   0  0  1  0  0  0  0  0  0  0  0  0
    1.5785   -8.9423    1.7000 C   0  0  0  0  0  0  0  0  0  0  0  0
    1.4144  -10.2414    3.7567 O   0  0  0  0  0  0  0  0  0  0  0  0
    1.5976   -8.0291    0.7262 C   0  0  0  0  0  0  0  0  0  0  0  0
   -0.4911   -9.1505    2.8003 O   0  0  0  0  0  0  0  0  0  0  0  0
    2.0074   -8.2985   -0.5858 C   0  0  0  0  0  0  0  0  0  0  0  0
    1.1728   -8.9034   -1.4078 O   0  0  0  0  0  0  0  0  0  0  0  0
    3.2521   -8.1946   -0.9023 O   0  0  0  0  0  0  0  0  0  0  0  0
    2.1193  -11.6235    3.3663 C   0  0  0  0  0  0  0  0  0  0  0  0
    1.1074  -12.5003    2.9427 C   0  0  0  0  0  0  0  0  0  0  0  0
    0.2941  -12.4405    2.2258 C   0  0  0  0  0  0  0  0  0  0  0  0
   -0.4174  -13.5701    1.8171 C   0  0  0  0  0  0  0  0  0  0  0  0
   -0.1828  -14.7352    2.3136 C   0  0  0  0  0  0  0  0  0  0  0  0
    0.8865  -14.9432    3.2685 C   0  0  0  0  0  0  0  0  0  0  0  0
    1.6617  -13.8031    3.5714 C   0  0  0  0  0  0  0  0  0  0  0  0
    1.3007  -16.2013    3.7283 O   0  0  0  0  0  0  0  0  0  0  0  0
    0.4952  -17.2078    3.7351 C   0  0  0  0  0  0  0  0  0  0  0  0
   -0.3498  -17.2898    4.7590 C   0  0  0  0  0  0  0  0  0  0  0  0
  2  1  1  1
  2  3  1  0
  2  4  1  0
  3  5  1  0
  2  6  2  0
  5  7  1  0
  7  8  1  0
  7  9  2  0
  4 10  1  0
 10 11  1  0
 15 17  1  0
 17 18  1  0
 18 19  1  0
 11 12  2  0
 12 13  1  0
 13 14  2  0
 14 15  1  0
 15 16  2  0
 11 16  1  0
M  END

$$$$
No_675-/export/home/yangzhenyu/potential_scad_32_flow//YTHDC2/2024-12-06-03-22-00/
     RDKit          3D

 20 20  0  0  1  0  0  0  0  0999 V2000
    1.1787   -8.0297    3.5154 C   0  0  0  0  0  0  0  0  0  0  0  0
    1.1048   -9.2215    3.2892 C   0  0  0  0  0  0  0  0  0  0  0  0
    1.3627  -10.1721    4.3044 C   0  0  0  0  0  0  0  0  0  0  0  0
    1.7354  -11.4730    3.9023 C   0  0  0  0  0  0  0  0  0  0  0  0
    1.8080  -11.8127    2.7216 C   0  0  0  0  0  0  0  0  0  0  0  0
    1.5854  -11.0021    1.7249 C   0  0  0  0  0  0  0  0  0  0  0  0
    1.3573   -9.7389    1.9287 C   0  0  0  0  0  0  0  0  0  0  0  0
    1.1102   -8.8712    0.9017 C   0  0  0  0  0  0  0  0  0  0  0  0
    1.5724   -9.1697   -0.3048 C   0  0  0  0  0  0  0  0  0  0  0  0
    1.2378   -8.2159   -1.4226 O   0  0  0  0  0  0  0  0  0  0  0  0
    2.0610  -13.2069    2.3284 C   0  0  0  0  0  0  0  0  0  0  0  0
    2.4547  -13.6083    1.1114 P   0  0  2  0  0  0  0  0  0  0  0  0
    2.9106  -12.7441    0.3392 O   0  0  0  0  0  0  0  0  0  0  0  0
    1.1307  -14.1413    0.4553 O   0  0  0  0  0  0  0  0  0  0  0  0
    3.1414  -14.9821    1.1414 O   0  0  0  0  0  0  0  0  0  0  0  0
    0.8521   -7.0714    2.9461 O   0  0  0  0  0  0  0  0  0  0  0  0
    2.5620  -10.0030   -0.6796 O   0  0  0  0  0  0  0  0  0  0  0  0
    1.7992   -7.5927    4.6627 O   0  0  0  0  0  0  0  0  0  0  0  0
    1.8878  -14.1375    3.3640 O   0  0  0  0  0  0  0  0  0  0  0  0
    0.0580  -14.7935    0.5816 C   0  0  0  0  0  0  0  0  0  0  0  0
  1  2  1  0
  7  8  1  0
  8  9  2  3
  9 10  1  0
  5 11  1  0
 11 12  1  0
 12 13  1  6
 12 14  1  0
 12 15  2  0
  1 16  2  0
  9 17  1  0
  1 18  1  0
 11 19  2  0
 14 20  1  0
  2  3  2  0
  3  4  1  0
  4  5  2  0
  5  6  1  0
  6  7  2  0
  2  7  1  0
M  END

$$$$
No_676-/export/home/yangzhenyu/potential_scad_32_flow//YTHDC2/2024-12-06-03-22-00/
     RDKit          3D

 20 20  0  0  0  0  0  0  0  0999 V2000
    1.1787   -8.0297    3.5154 Cl  0  0  0  0  0  0  0  0  0  0  0  0
    0.6122   -7.9650    2.5747 C   0  0  0  0  0  0  0  0  0  0  0  0
    0.3325   -6.8044    1.9102 C   0  0  0  0  0  0  0  0  0  0  0  0
   -0.4697   -6.7420    0.7799 C   0  0  0  0  0  0  0  0  0  0  0  0
   -0.9584   -7.9580    0.2346 C   0  0  0  0  0  0  0  0  0  0  0  0
   -0.6550   -9.1037    0.8507 C   0  0  0  0  0  0  0  0  0  0  0  0
    0.1762   -9.1434    1.9975 C   0  0  0  0  0  0  0  0  0  0  0  0
    0.0411  -10.3119    2.6709 C   0  0  0  0  0  0  0  0  0  0  0  0
   -0.9152  -10.7718    3.4365 C   0  0  0  0  0  0  0  0  0  0  0  0
    1.2463  -11.2805    2.5924 C   0  0  0  0  0  0  0  0  0  0  0  0
    1.2815  -12.4399    3.3310 C   0  0  0  0  0  0  0  0  0  0  0  0
    1.1030  -13.5874    2.6264 O   0  0  0  0  0  0  0  0  0  0  0  0
    1.1249  -13.6290    1.3994 C   0  0  0  0  0  0  0  0  0  0  0  0
    0.7472   -5.5232    2.3825 N   0  0  0  0  0  0  0  0  0  0  0  0
    0.6537   -4.3600    1.9786 C   0  0  0  0  0  0  0  0  0  0  0  0
    0.4541   -4.2897    0.5408 O   0  0  0  0  0  0  0  0  0  0  0  0
    0.5924   -3.1017    2.6225 C   0  0  0  0  0  0  0  0  0  0  0  0
    2.3616  -11.0160    2.0290 O   0  0  0  0  0  0  0  0  0  0  0  0
    1.9313  -13.9423    0.8693 C   0  0  0  0  0  0  0  0  0  0  0  0
    3.2089  -14.2582    1.7336 O   0  0  0  0  0  0  0  0  0  0  0  0
  1  2  1  0
  7  8  1  0
  8  9  1  0
  8 10  1  0
 10 11  1  0
 11 12  1  0
 12 13  1  0
  3 14  1  0
 14 15  2  3
 15 16  1  0
 15 17  1  0
 10 18  2  0
 13 19  1  0
 19 20  1  0
  2  3  2  0
  3  4  1  0
  4  5  2  0
  5  6  1  0
  6  7  2  0
  2  7  1  0
M  END

$$$$
No_677-/export/home/yangzhenyu/potential_scad_32_flow//YTHDC2/2024-12-06-03-22-00/
     RDKit          3D

 19 19  0  0  1  0  0  0  0  0999 V2000
    1.1787   -8.0297    3.5154 C   0  0  0  0  0  0  0  0  0  0  0  0
    1.0491   -6.8434    2.9820 C   0  0  0  0  0  0  0  0  0  0  0  0
    1.9985   -8.9840    2.8958 C   0  0  0  0  0  0  0  0  0  0  0  0
    1.9135  -10.3404    3.6266 C   0  0  2  0  0  0  0  0  0  0  0  0
    2.2847  -10.5440    4.7936 C   0  0  0  0  0  0  0  0  0  0  0  0
    0.3304   -6.7696    1.8077 C   0  0  0  0  0  0  0  0  0  0  0  0
   -0.0362   -5.5612    1.4430 C   0  0  0  0  0  0  0  0  0  0  0  0
    0.4987   -4.3690    2.0777 C   0  0  0  0  0  0  0  0  0  0  0  0
    1.2612   -4.4928    3.2485 C   0  0  0  0  0  0  0  0  0  0  0  0
    1.5767   -5.7598    3.6944 C   0  0  0  0  0  0  0  0  0  0  0  0
    1.5887  -11.4132    2.7971 C   0  0  0  0  0  0  0  0  0  0  0  0
    1.6258  -11.3751    1.4511 C   0  0  0  0  0  0  0  0  0  0  0  0
    1.1730  -12.4153    0.7736 O   0  0  0  0  0  0  0  0  0  0  0  0
    1.9935  -10.4813    0.6243 O   0  0  0  0  0  0  0  0  0  0  0  0
    3.3885  -11.5440    5.1362 O   0  0  0  0  0  0  0  0  0  0  0  0
    0.1595   -3.0650    1.5416 O   0  0  0  0  0  0  0  0  0  0  0  0
    0.9097   -2.0057    1.7032 C   0  0  0  0  0  0  0  0  0  0  0  0
    2.0614   -1.8502    1.0764 C   0  0  0  0  0  0  0  0  0  0  0  0
    0.5538   -1.0905    2.6853 C   0  0  0  0  0  0  0  0  0  0  0  0
  1  2  1  0
  1  3  1  0
  4  3  1  6
  4  5  1  0
  4 11  1  0
 11 12  1  0
 12 13  1  0
 12 14  2  0
  5 15  2  0
  8 16  1  0
 16 17  1  0
 17 18  1  0
 17 19  1  0
  2  6  2  0
  6  7  1  0
  7  8  2  0
  8  9  1  0
  9 10  2  0
  2 10  1  0
M  END

$$$$
No_678-/export/home/yangzhenyu/potential_scad_32_flow//YTHDC2/2024-12-06-03-22-00/
     RDKit          3D

 18 18  0  0  1  0  0  0  0  0999 V2000
    1.1787   -8.0297    3.5154 C   0  0  0  0  0  0  0  0  0  0  0  0
    1.1048   -9.2215    3.2892 C   0  0  0  0  0  0  0  0  0  0  0  0
    1.2339   -9.7611    2.0189 C   0  0  0  0  0  0  0  0  0  0  0  0
    1.3583   -9.0036    0.9764 C   0  0  0  0  0  0  0  0  0  0  0  0
    1.5996   -7.6362    1.1311 C   0  0  0  0  0  0  0  0  0  0  0  0
    1.4830   -7.0928    2.3626 C   0  0  0  0  0  0  0  0  0  0  0  0
    1.1171  -11.3311    1.8661 C   0  0  1  0  0  0  0  0  0  0  0  0
    0.5022  -11.6388    0.6531 C   0  0  0  0  0  0  0  0  0  0  0  0
    0.5683  -13.0838    0.5424 O   0  0  0  0  0  0  0  0  0  0  0  0
   -0.3122  -11.0155    0.0092 O   0  0  0  0  0  0  0  0  0  0  0  0
    1.5730   -5.6538    2.7087 C   0  0  0  0  0  0  0  0  0  0  0  0
    1.7835  -12.0398    2.6449 C   0  0  0  0  0  0  0  0  0  0  0  0
    1.2030  -13.2968    2.9863 C   0  0  0  0  0  0  0  0  0  0  0  0
    0.0059  -13.3661    3.7016 O   0  0  0  0  0  0  0  0  0  0  0  0
    1.8657  -14.4723    2.9880 O   0  0  0  0  0  0  0  0  0  0  0  0
    1.6767   -5.1270    3.8026 O   0  0  0  0  0  0  0  0  0  0  0  0
    1.3785   -4.8476    1.6395 O   0  0  0  0  0  0  0  0  0  0  0  0
    1.5984   -9.3919   -0.3600 C   0  0  0  0  0  0  0  0  0  0  0  0
  3  7  1  0
  7  8  1  0
  8  9  2  0
  8 10  1  0
  6 11  1  0
  7 12  1  6
 12 13  1  0
 13 14  1  0
 13 15  2  0
 11 16  1  0
 11 17  2  0
  4 18  1  0
  1  2  2  0
  2  3  1  0
  3  4  2  0
  4  5  1  0
  5  6  2  0
  1  6  1  0
M  END

$$$$
No_679-/export/home/yangzhenyu/potential_scad_32_flow//YTHDC2/2024-12-06-03-22-00/
     RDKit          3D

 19 19  0  0  0  0  0  0  0  0999 V2000
    1.1787   -8.0297    3.5154 C   0  0  0  0  0  0  0  0  0  0  0  0
    1.1048   -9.2215    3.2892 O   0  0  0  0  0  0  0  0  0  0  0  0
    1.3935  -10.1059    4.2463 C   0  0  0  0  0  0  0  0  0  0  0  0
    2.6237  -10.7591    4.0332 C   0  0  0  0  0  0  0  0  0  0  0  0
    1.1085   -7.1185    2.4218 C   0  0  0  0  0  0  0  0  0  0  0  0
    0.9482   -5.7890    2.5847 O   0  0  0  0  0  0  0  0  0  0  0  0
    1.3662   -7.5351    1.2414 O   0  0  0  0  0  0  0  0  0  0  0  0
    3.4174  -10.6246    5.1318 O   0  0  0  0  0  0  0  0  0  0  0  0
    2.4857  -12.0142    3.6386 C   0  0  0  0  0  0  0  0  0  0  0  0
    1.2477  -12.3778    3.3473 C   0  0  0  0  0  0  0  0  0  0  0  0
    0.0630  -11.7102    3.4820 C   0  0  0  0  0  0  0  0  0  0  0  0
    0.2166  -10.4920    3.8525 C   0  0  0  0  0  0  0  0  0  0  0  0
    1.0996  -13.9018    3.0213 C   0  0  0  0  0  0  0  0  0  0  0  0
    2.0868  -14.7191    2.6677 O   0  0  0  0  0  0  0  0  0  0  0  0
   -0.1009  -14.5185    2.8081 P   0  0  0  0  0  0  0  0  0  0  0  0
   -0.0234  -15.4198    1.7882 O   0  0  0  0  0  0  0  0  0  0  0  0
   -0.4585  -15.3416    4.1588 O   0  0  0  0  0  0  0  0  0  0  0  0
   -1.4152  -13.7008    2.7857 O   0  0  0  0  0  0  0  0  0  0  0  0
   -0.4996  -10.5054    5.4230 O   0  0  0  0  0  0  0  0  0  0  0  0
  1  2  1  0
  2  3  1  0
  1  5  1  0
  5  6  1  0
  5  7  2  0
  4  8  1  0
 10 13  1  0
 13 14  2  0
 13 15  1  0
 15 16  2  0
 15 17  1  0
 15 18  1  0
 12 19  1  0
  3  4  2  0
  4  9  1  0
  9 10  2  0
 10 11  1  0
 11 12  2  0
  3 12  1  0
M  END

$$$$
No_680-/export/home/yangzhenyu/potential_scad_32_flow//YTHDC2/2024-12-06-03-22-00/
     RDKit          3D

 19 20  0  0  1  0  0  0  0  0999 V2000
    1.1787   -8.0297    3.5154 C   0  0  0  0  0  0  0  0  0  0  0  0
    1.0491   -6.8434    2.9820 C   0  0  0  0  0  0  0  0  0  0  0  0
    0.0950   -8.8404    3.2292 C   0  0  0  0  0  0  0  0  0  0  0  0
   -0.9173   -8.4596    2.5152 C   0  0  0  0  0  0  0  0  0  0  0  0
   -1.0331   -7.2162    2.0653 C   0  0  0  0  0  0  0  0  0  0  0  0
   -0.0105   -6.3168    2.3081 C   0  0  0  0  0  0  0  0  0  0  0  0
    0.1150   -4.9910    1.8495 C   0  0  0  0  0  0  0  0  0  0  0  0
   -0.5774   -4.1593    2.0596 O   0  0  0  0  0  0  0  0  0  0  0  0
    1.1226   -4.6805    0.9513 O   0  0  0  0  0  0  0  0  0  0  0  0
    0.1816  -10.2865    3.6380 C   0  0  2  0  0  0  0  0  0  0  0  0
   -1.0297  -10.9845    3.7634 C   0  0  0  0  0  0  0  0  0  0  0  0
    1.3569  -10.7940    4.2948 C   0  0  1  0  0  0  0  0  0  0  0  0
    1.4972  -12.1316    4.4482 C   0  0  0  0  0  0  0  0  0  0  0  0
   -0.9132  -12.3447    4.0247 C   0  0  0  0  0  0  0  0  0  0  0  0
    0.4019  -12.9354    4.2475 C   0  0  0  0  0  0  0  0  0  0  0  0
    0.4487  -14.2486    4.4832 O   0  0  0  0  0  0  0  0  0  0  0  0
   -1.9742  -13.1512    3.9629 O   0  0  0  0  0  0  0  0  0  0  0  0
    2.5848  -10.0529    4.3177 O   0  0  0  0  0  0  0  0  0  0  0  0
   -2.1917   -6.8009    1.3198 C   0  0  0  0  0  0  0  0  0  0  0  0
  6  7  1  0
  7  8  2  0
  7  9  1  0
 10  3  1  1
 10 12  1  0
 11 14  1  0
 13 15  1  0
 14 15  1  0
 15 16  2  0
 14 17  2  0
 12 18  1  6
  5 19  1  0
 12 13  1  0
 10 11  1  0
  1  2  2  0
  2  6  1  0
  5  6  2  0
  4  5  1  0
  3  4  2  0
  1  3  1  0
M  END

$$$$
No_681-/export/home/yangzhenyu/potential_scad_32_flow//YTHDC2/2024-12-06-03-22-00/
     RDKit          3D

 20 21  0  0  0  0  0  0  0  0999 V2000
    1.1787   -8.0297    3.5154 C   0  0  0  0  0  0  0  0  0  0  0  0
    1.1048   -9.2215    3.2892 C   0  0  0  0  0  0  0  0  0  0  0  0
    1.3627  -10.1721    4.3044 C   0  0  0  0  0  0  0  0  0  0  0  0
    2.3720  -10.8948    4.2468 C   0  0  0  0  0  0  0  0  0  0  0  0
    0.8234   -7.0464    2.5717 C   0  0  0  0  0  0  0  0  0  0  0  0
    0.4328   -7.4736    1.3042 C   0  0  0  0  0  0  0  0  0  0  0  0
    0.3532   -8.7488    0.9919 C   0  0  0  0  0  0  0  0  0  0  0  0
    0.7039   -9.7094    1.9672 C   0  0  0  0  0  0  0  0  0  0  0  0
    1.2460  -10.6441    1.6197 C   0  0  0  0  0  0  0  0  0  0  0  0
    3.1803  -10.9713    3.6550 N   0  0  0  0  0  0  0  0  0  0  0  0
    2.6512  -11.3583    2.1536 C   0  0  0  0  0  0  0  0  0  0  0  0
    0.8324   -5.5678    2.8013 Br  0  0  0  0  0  0  0  0  0  0  0  0
    0.1046   -9.2451   -0.2683 O   0  0  0  0  0  0  0  0  0  0  0  0
    0.8846  -11.6932    0.7742 O   0  0  0  0  0  0  0  0  0  0  0  0
   -0.5398   -8.4968   -1.3050 C   0  0  0  0  0  0  0  0  0  0  0  0
   -0.2151   -8.5004   -2.4155 C   0  0  0  0  0  0  0  0  0  0  0  0
   -0.9997   -7.8473   -3.3422 O   0  0  0  0  0  0  0  0  0  0  0  0
   -1.7785   -8.0986   -0.8582 O   0  0  0  0  0  0  0  0  0  0  0  0
    3.0226  -10.9399    5.7314 N   0  0  0  0  0  0  0  0  0  0  0  0
   -1.5127   -8.3485   -4.4497 C   0  0  0  0  0  0  0  0  0  0  0  0
  2  3  1  0
  3  4  1  0
  8  9  1  0
  4 10  2  0
  9 11  1  0
 10 11  1  0
  5 12  1  0
  7 13  1  0
  9 14  2  0
 13 15  1  0
 15 16  1  0
 16 17  1  0
 15 18  2  0
  4 19  1  0
 17 20  1  0
  1  2  2  0
  2  8  1  0
  7  8  2  0
  6  7  1  0
  5  6  2  0
  1  5  1  0
M  END

$$$$
No_682-/export/home/yangzhenyu/potential_scad_32_flow//YTHDC2/2024-12-06-03-22-00/
     RDKit          3D

 19 20  0  0  0  0  0  0  0  0999 V2000
    1.1787   -8.0297    3.5154 C   0  0  0  0  0  0  0  0  0  0  0  0
    1.0491   -6.8434    2.9820 C   0  0  0  0  0  0  0  0  0  0  0  0
    0.0950   -8.8404    3.2292 C   0  0  0  0  0  0  0  0  0  0  0  0
   -0.9173   -8.4596    2.5152 C   0  0  0  0  0  0  0  0  0  0  0  0
   -1.0331   -7.2162    2.0653 C   0  0  0  0  0  0  0  0  0  0  0  0
   -0.0105   -6.3168    2.3081 C   0  0  0  0  0  0  0  0  0  0  0  0
    0.1465  -10.2446    3.6981 C   0  0  0  0  0  0  0  0  0  0  0  0
    1.2433  -10.8239    4.0166 C   0  0  0  0  0  0  0  0  0  0  0  0
    1.0790  -12.2885    4.3779 N   0  0  0  0  0  0  0  0  0  0  0  0
    0.0124  -12.7573    3.8993 C   0  0  0  0  0  0  0  0  0  0  0  0
   -0.6559  -11.3969    3.4669 N   0  0  0  0  0  0  0  0  0  0  0  0
   -0.0469   -4.8285    1.7881 C   0  0  0  0  0  0  0  0  0  0  0  0
   -0.8144   -4.0901    2.3648 Cl  0  0  0  0  0  0  0  0  0  0  0  0
    2.5103  -10.3043    4.5240 N   0  0  0  0  0  0  0  0  0  0  0  0
    0.9676   -4.5878    0.8682 O   0  0  0  0  0  0  0  0  0  0  0  0
   -0.5530  -13.8405    3.7989 N   0  0  0  0  0  0  0  0  0  0  0  0
   -1.3983  -14.1844    2.8198 C   0  0  0  0  0  0  0  0  0  0  0  0
   -1.4992  -15.4798    2.5180 C   0  0  0  0  0  0  0  0  0  0  0  0
   -2.2728  -15.8132    1.5667 C   0  0  0  0  0  0  0  0  0  0  0  0
  3  7  1  0
  7  8  2  0
  8  9  1  0
  9 10  2  0
  7 11  1  0
 10 11  1  0
  6 12  1  0
 12 13  1  0
  8 14  1  0
 12 15  2  0
 10 16  1  0
 16 17  1  0
 17 18  1  0
 18 19  2  0
  1  2  2  0
  2  6  1  0
  5  6  2  0
  4  5  1  0
  3  4  2  0
  1  3  1  0
M  END

$$$$
No_683-/export/home/yangzhenyu/potential_scad_32_flow//YTHDC2/2024-12-06-03-22-00/
     RDKit          3D

 20 20  0  0  1  0  0  0  0  0999 V2000
    1.1787   -8.0297    3.5154 C   0  0  0  0  0  0  0  0  0  0  0  0
    1.0491   -6.8434    2.9820 C   0  0  0  0  0  0  0  0  0  0  0  0
    0.9905   -9.0774    2.6527 C   0  0  0  0  0  0  0  0  0  0  0  0
    0.7897   -8.9519    1.3691 C   0  0  0  0  0  0  0  0  0  0  0  0
    0.7018   -7.7198    0.7892 C   0  0  0  0  0  0  0  0  0  0  0  0
    0.8918   -6.5957    1.6117 C   0  0  0  0  0  0  0  0  0  0  0  0
    1.0998  -10.4710    3.2437 C   0  0  1  0  0  0  0  0  0  0  0  0
    2.1917  -10.8879    3.7399 C   0  0  0  0  0  0  0  0  0  0  0  0
    0.8983   -5.2566    1.2088 C   0  0  0  0  0  0  0  0  0  0  0  0
   -0.0163  -11.2298    3.3739 C   0  0  1  0  0  0  0  0  0  0  0  0
   -1.1391  -10.5481    3.9500 O   0  0  0  0  0  0  0  0  0  0  0  0
   -0.5497  -11.7915    2.0916 C   0  0  1  0  0  0  0  0  0  0  0  0
   -1.5886  -11.5858    1.5971 N   0  0  0  0  0  0  0  0  0  0  0  0
   -2.5366  -12.3090    1.5253 C   0  0  0  0  0  0  0  0  0  0  0  0
   -2.2971  -13.6913    1.8389 N   0  0  0  0  0  0  0  0  0  0  0  0
    0.7421  -12.4856    1.6343 C   0  0  0  0  0  0  0  0  0  0  0  0
    1.1581  -13.6316    2.0702 C   0  0  0  0  0  0  0  0  0  0  0  0
    2.0717  -14.4694    1.4397 C   0  0  0  0  0  0  0  0  0  0  0  0
    2.4897  -15.5821    2.0704 N   0  0  0  0  0  0  0  0  0  0  0  0
    2.1402  -15.8016    2.9922 H   0  0  0  0  0  0  0  0  0  0  0  0
  3  7  1  0
  7  8  1  1
  6  9  1  0
  7 10  1  0
 10 11  1  6
 10 12  1  0
 12 13  1  0
 13 14  2  3
 14 15  1  0
 12 16  1  6
 16 17  1  0
 17 18  1  0
 18 19  2  0
  1  2  2  0
  2  6  1  0
  5  6  2  0
  4  5  1  0
  3  4  2  0
  1  3  1  0
 19 20  1  0
M  END

$$$$
No_684-/export/home/yangzhenyu/potential_scad_32_flow//YTHDC2/2024-12-06-03-22-00/
     RDKit          3D

 19 19  0  0  1  0  0  0  0  0999 V2000
    1.1787   -8.0297    3.5154 C   0  0  0  0  0  0  0  0  0  0  0  0
    1.0491   -6.8434    2.9820 C   0  0  0  0  0  0  0  0  0  0  0  0
    1.9985   -8.9840    2.8958 C   0  0  2  0  0  0  0  0  0  0  0  0
    1.7297   -9.2108    1.6335 C   0  0  0  0  0  0  0  0  0  0  0  0
    1.7343   -8.0566    0.8408 C   0  0  2  0  0  0  0  0  0  0  0  0
    1.0269   -6.8892    1.4456 C   0  0  0  0  0  0  0  0  0  0  0  0
    2.0740   -7.9416   -0.3682 C   0  0  0  0  0  0  0  0  0  0  0  0
    3.0714   -8.7358   -0.8759 O   0  0  0  0  0  0  0  0  0  0  0  0
    1.8118   -7.2472   -1.2350 O   0  0  0  0  0  0  0  0  0  0  0  0
    2.3823  -10.1695    3.6637 C   0  0  0  0  0  0  0  0  0  0  0  0
    3.2975  -10.5051    4.0614 Cl  0  0  0  0  0  0  0  0  0  0  0  0
    1.2576  -11.1689    3.8080 O   0  0  0  0  0  0  0  0  0  0  0  0
    0.9255   -5.6320    3.5004 C   0  0  0  0  0  0  0  0  0  0  0  0
    0.0091   -4.7793    3.2531 O   0  0  0  0  0  0  0  0  0  0  0  0
    1.8892   -5.0936    4.2995 O   0  0  0  0  0  0  0  0  0  0  0  0
    1.8898  -10.3604    1.0540 O   0  0  0  0  0  0  0  0  0  0  0  0
    0.4740   -5.9555    0.7933 O   0  0  0  0  0  0  0  0  0  0  0  0
    0.3670   -8.1337    4.5135 O   0  0  0  0  0  0  0  0  0  0  0  0
    2.7358   -9.8699   -1.5772 C   0  0  0  0  0  0  0  0  0  0  0  0
  1  2  1  0
  1  3  1  0
  3  4  1  0
  4  5  1  0
  2  6  1  0
  5  6  1  0
  5  7  1  6
  7  8  1  0
  7  9  2  0
  3 10  1  1
 10 11  1  0
 10 12  2  0
  2 13  1  0
 13 14  2  0
 13 15  1  0
  4 16  2  0
  6 17  2  0
  1 18  2  0
  8 19  1  0
M  END

$$$$
No_685-/export/home/yangzhenyu/potential_scad_32_flow//YTHDC2/2024-12-06-03-22-00/
     RDKit          3D

 20 21  0  0  1  0  0  0  0  0999 V2000
    1.1787   -8.0297    3.5154 Cl  0  0  0  0  0  0  0  0  0  0  0  0
    0.7279   -9.0023    2.8722 C   0  0  1  0  0  0  0  0  0  0  0  0
    1.3852  -10.2194    3.0621 C   0  0  0  0  0  0  0  0  0  0  0  0
    1.9070  -10.5856    4.2215 C   0  0  0  0  0  0  0  0  0  0  0  0
    2.3356  -11.9512    4.4039 N   0  0  0  0  0  0  0  0  0  0  0  0
    1.5107  -11.2105    2.0586 C   0  0  0  0  0  0  0  0  0  0  0  0
    2.0762  -12.4000    2.1174 C   0  0  0  0  0  0  0  0  0  0  0  0
    2.3863  -12.8292    3.3944 C   0  0  0  0  0  0  0  0  0  0  0  0
   -0.3582   -8.9598    2.0893 C   0  0  1  0  0  0  0  0  0  0  0  0
   -1.5321   -9.4027    2.4642 O   0  0  0  0  0  0  0  0  0  0  0  0
   -0.2976   -8.2656    0.9395 C   0  0  0  0  0  0  0  0  0  0  0  0
   -1.4390   -7.8698    0.2923 C   0  0  0  0  0  0  0  0  0  0  0  0
   -2.6153   -8.2803    0.8182 C   0  0  0  0  0  0  0  0  0  0  0  0
   -2.6378   -9.0404    2.0259 C   0  0  0  0  0  0  0  0  0  0  0  0
    0.9053   -7.8385    0.4040 P   0  0  2  0  0  0  0  0  0  0  0  0
    1.3648   -6.4730    0.5892 O   0  0  0  0  0  0  0  0  0  0  0  0
    1.4867   -8.0914   -0.7799 O   0  0  0  0  0  0  0  0  0  0  0  0
    2.7542  -14.0294    3.5783 O   0  0  0  0  0  0  0  0  0  0  0  0
   -3.8157   -9.5806    2.6667 C   0  0  0  0  0  0  0  0  0  0  0  0
   -4.3339   -8.8396    3.5864 C   0  0  0  0  0  0  0  0  0  0  0  0
  2  1  1  1
  2  3  1  0
  3  4  1  0
  3  6  1  0
  5  8  1  0
  7  8  1  0
  2  9  1  0
  9 10  1  1
  9 11  1  0
 11 12  2  0
 12 13  1  0
 10 14  1  0
 13 14  2  0
 11 15  1  0
 15 16  1  6
 15 17  2  0
  8 18  2  0
 14 19  1  0
 19 20  1  0
  4  5  1  0
  6  7  1  0
M  END

$$$$
No_686-/export/home/yangzhenyu/potential_scad_32_flow//YTHDC2/2024-12-06-03-22-00/
     RDKit          3D

 16 18  0  0  0  0  0  0  0  0999 V2000
    1.1787   -8.0297    3.5154 C   0  0  0  0  0  0  0  0  0  0  0  0
    1.1048   -9.2215    3.2892 C   0  0  0  0  0  0  0  0  0  0  0  0
    1.3627  -10.1721    4.3044 C   0  0  0  0  0  0  0  0  0  0  0  0
    1.7354  -11.4730    3.9024 C   0  0  0  0  0  0  0  0  0  0  0  0
    1.8080  -11.8127    2.7216 C   0  0  0  0  0  0  0  0  0  0  0  0
    1.5854  -11.0021    1.7249 C   0  0  0  0  0  0  0  0  0  0  0  0
    1.3573   -9.7389    1.9287 C   0  0  0  0  0  0  0  0  0  0  0  0
    1.1102   -8.8712    0.9017 C   0  0  0  0  0  0  0  0  0  0  0  0
    1.5724   -9.1697   -0.3048 O   0  0  0  0  0  0  0  0  0  0  0  0
    0.8071   -7.5472    0.9953 N   0  0  0  0  0  0  0  0  0  0  0  0
    0.9956   -7.2594    4.3012 C   0  0  0  0  0  0  0  0  0  0  0  0
    0.9099   -7.2549    2.1278 C   0  0  0  0  0  0  0  0  0  0  0  0
    0.6294   -5.7407    2.4733 N   0  0  0  0  0  0  0  0  0  0  0  0
    0.8892   -5.8625    3.8445 C   0  0  0  0  0  0  0  0  0  0  0  0
    2.0911  -13.2256    2.3734 O   0  0  0  0  0  0  0  0  0  0  0  0
    1.7532  -14.2694    3.0467 C   0  0  0  0  0  0  0  0  0  0  0  0
  1  2  1  0
  7  8  1  0
  8  9  2  0
  8 10  1  0
  1 11  2  0
  1 12  1  0
 10 12  1  0
 12 13  2  0
 11 14  1  0
 13 14  1  0
  5 15  1  0
 15 16  1  0
  2  3  2  0
  3  4  1  0
  4  5  2  0
  5  6  1  0
  6  7  2  0
  2  7  1  0
M  END

$$$$
No_687-/export/home/yangzhenyu/potential_scad_32_flow//YTHDC2/2024-12-06-03-22-00/
     RDKit          3D

 20 20  0  0  1  0  0  0  0  0999 V2000
    1.1787   -8.0297    3.5154 C   0  0  0  0  0  0  0  0  0  0  0  0
    1.1048   -9.2215    3.2892 C   0  0  0  0  0  0  0  0  0  0  0  0
    1.2339   -9.7611    2.0189 C   0  0  0  0  0  0  0  0  0  0  0  0
    1.1954  -11.2312    1.8661 C   0  0  2  0  0  0  0  0  0  0  0  0
    1.2996  -11.5815    0.5387 C   0  0  0  0  0  0  0  0  0  0  0  0
    1.3263   -7.1208    2.3229 C   0  0  0  0  0  0  0  0  0  0  0  0
    1.3693   -7.6408    1.0625 C   0  0  0  0  0  0  0  0  0  0  0  0
    1.4358   -8.9950    0.8622 C   0  0  0  0  0  0  0  0  0  0  0  0
    0.9078  -11.9576    2.8785 C   0  0  0  0  0  0  0  0  0  0  0  0
    1.6858  -12.5424    3.4975 C   0  0  0  0  0  0  0  0  0  0  0  0
    1.3663   -5.6348    2.5637 Cl  0  0  0  0  0  0  0  0  0  0  0  0
    0.5620  -12.4375    0.2284 O   0  0  0  0  0  0  0  0  0  0  0  0
    1.6040  -13.9928    3.2401 O   0  0  0  0  0  0  0  0  0  0  0  0
    2.2020  -14.9279    2.5332 C   0  0  0  0  0  0  0  0  0  0  0  0
    1.9472  -11.0516   -0.2889 O   0  0  0  0  0  0  0  0  0  0  0  0
    1.9037  -16.2106    2.5076 O   0  0  0  0  0  0  0  0  0  0  0  0
    3.2032  -14.4309    1.6661 O   0  0  0  0  0  0  0  0  0  0  0  0
   -0.3542  -12.0645    3.3554 O   0  0  0  0  0  0  0  0  0  0  0  0
    1.6203   -6.9356    0.0114 O   0  0  0  0  0  0  0  0  0  0  0  0
    1.0258  -10.0169    4.4630 O   0  0  0  0  0  0  0  0  0  0  0  0
  3  4  1  0
  4  5  1  6
  4  9  1  0
  9 10  1  0
  6 11  1  0
  5 12  1  0
 10 13  1  0
 13 14  1  0
  5 15  2  0
 14 16  2  0
 14 17  1  0
  9 18  2  0
  7 19  1  0
  2 20  1  0
  1  2  2  0
  2  3  1  0
  3  8  2  0
  7  8  1  0
  6  7  2  0
  1  6  1  0
M  END

$$$$
No_688-/export/home/yangzhenyu/potential_scad_32_flow//YTHDC2/2024-12-06-03-22-00/
     RDKit          3D

 17 17  0  0  1  0  0  0  0  0999 V2000
    1.1787   -8.0297    3.5154 O   0  0  0  0  0  0  0  0  0  0  0  0
    0.9969   -8.9689    3.0048 C   0  0  0  0  0  0  0  0  0  0  0  0
    1.3055  -10.1056    3.6616 C   0  0  0  0  0  0  0  0  0  0  0  0
    2.1315  -10.4529    4.2438 C   0  0  0  0  0  0  0  0  0  0  0  0
    0.4484   -8.8156    1.7225 C   0  0  2  0  0  0  0  0  0  0  0  0
   -0.0257   -7.6054    1.5545 C   0  0  0  0  0  0  0  0  0  0  0  0
    0.8213   -6.5530    1.3964 C   0  0  0  0  0  0  0  0  0  0  0  0
    0.4484   -5.2097    1.5423 O   0  0  0  0  0  0  0  0  0  0  0  0
    2.1845   -6.7968    1.3789 O   0  0  0  0  0  0  0  0  0  0  0  0
    2.5433  -11.8186    4.7951 C   0  0  0  0  0  0  0  0  0  0  0  0
    0.4789  -11.3468    3.1541 C   0  0  0  0  0  0  0  0  0  0  0  0
    0.8020  -12.6101    3.4144 C   0  0  0  0  0  0  0  0  0  0  0  0
    1.8579  -12.8536    4.2853 C   0  0  0  0  0  0  0  0  0  0  0  0
    0.0265  -13.7092    2.9880 C   0  0  0  0  0  0  0  0  0  0  0  0
    0.4484  -15.0101    3.2147 O   0  0  0  0  0  0  0  0  0  0  0  0
   -0.8802  -13.6116    2.1267 O   0  0  0  0  0  0  0  0  0  0  0  0
   -0.2960   -9.8666    1.1434 C   0  0  0  0  0  0  0  0  0  0  0  0
  1  2  1  0
  2  3  1  0
  2  5  1  0
  5  6  1  0
  6  7  1  0
  7  8  1  0
  7  9  2  0
 12 14  1  0
 14 15  1  0
 14 16  2  0
  5 17  1  1
  3  4  2  0
  4 10  1  0
 10 13  2  0
 12 13  1  0
 11 12  2  0
  3 11  1  0
M  END

$$$$
No_689-/export/home/yangzhenyu/potential_scad_32_flow//YTHDC2/2024-12-06-03-22-00/
     RDKit          3D

 19 19  0  0  1  0  0  0  0  0999 V2000
    1.1787   -8.0297    3.5154 O   0  0  0  0  0  0  0  0  0  0  0  0
    0.6747   -7.4019    2.7838 C   0  0  0  0  0  0  0  0  0  0  0  0
    0.7594   -8.0032    1.4295 C   0  0  0  0  0  0  0  0  0  0  0  0
    0.3459   -9.1500    1.3581 C   0  0  0  0  0  0  0  0  0  0  0  0
   -0.4155   -9.6726    2.0241 F   0  0  0  0  0  0  0  0  0  0  0  0
    0.9292   -9.8371    0.2540 C   0  0  0  0  0  0  0  0  0  0  0  0
    1.9779   -9.8580   -0.0553 O   0  0  0  0  0  0  0  0  0  0  0  0
   -0.0139  -10.5912   -0.5702 O   0  0  0  0  0  0  0  0  0  0  0  0
    0.3898   -6.2291    3.0849 O   0  0  0  0  0  0  0  0  0  0  0  0
    0.3924   -6.8570    0.6041 O   0  0  0  0  0  0  0  0  0  0  0  0
   -0.9517   -9.8041   -1.3987 C   0  0  0  0  0  0  0  0  0  0  0  0
   -1.6564  -10.5166   -2.1289 C   0  0  1  0  0  0  0  0  0  0  0  0
   -1.9718  -11.6601   -1.8312 C   0  0  0  0  0  0  0  0  0  0  0  0
   -2.8247  -12.2577   -2.5318 C   0  0  1  0  0  0  0  0  0  0  0  0
   -3.3884  -11.8269   -3.6979 C   0  0  0  0  0  0  0  0  0  0  0  0
   -3.0577  -10.5491   -4.0523 C   0  0  0  0  0  0  0  0  0  0  0  0
   -2.1500   -9.8162   -3.2511 C   0  0  0  0  0  0  0  0  0  0  0  0
   -1.6531   -8.6086   -3.6726 O   0  0  0  0  0  0  0  0  0  0  0  0
   -3.3522  -13.6641   -2.2326 O   0  0  0  0  0  0  0  0  0  0  0  0
  1  2  1  0
  2  3  1  0
  3  4  1  0
  4  5  1  0
  4  6  1  0
  6  7  2  0
  6  8  1  0
  2  9  2  0
  3 10  2  0
  8 11  1  0
 12 11  1  1
 12 13  1  0
 14 15  1  0
 12 17  1  0
 16 17  1  0
 17 18  2  0
 14 19  1  6
 13 14  1  0
 15 16  1  0
M  END

$$$$
No_690-/export/home/yangzhenyu/potential_scad_32_flow//YTHDC2/2024-12-06-03-22-00/
     RDKit          3D

 20 21  0  0  1  0  0  0  0  0999 V2000
    1.1787   -8.0297    3.5154 C   0  0  0  0  0  0  0  0  0  0  0  0
    1.1048   -9.2215    3.2892 C   0  0  0  0  0  0  0  0  0  0  0  0
    1.2339   -9.7611    2.0189 C   0  0  0  0  0  0  0  0  0  0  0  0
    1.3583   -9.0036    0.9764 C   0  0  0  0  0  0  0  0  0  0  0  0
    1.5996   -7.6362    1.1311 C   0  0  0  0  0  0  0  0  0  0  0  0
    1.4830   -7.0928    2.3626 C   0  0  0  0  0  0  0  0  0  0  0  0
    1.1008  -11.2372    1.8542 C   0  0  0  0  0  0  0  0  0  0  0  0
    0.4812  -11.6084    0.6459 O   0  0  0  0  0  0  0  0  0  0  0  0
    2.0292  -12.0272    2.3781 N   0  0  0  0  0  0  0  0  0  0  0  0
    1.9096  -13.4150    2.1965 C   0  0  1  0  0  0  0  0  0  0  0  0
    1.0730  -14.0939    3.2414 C   0  0  0  0  0  0  0  0  0  0  0  0
    1.0287  -15.4946    3.0658 C   0  0  0  0  0  0  0  0  0  0  0  0
    1.5310  -16.1988    2.0527 C   0  0  0  0  0  0  0  0  0  0  0  0
    2.2718  -15.4453    1.0869 C   0  0  0  0  0  0  0  0  0  0  0  0
    2.3731  -14.0714    1.2181 C   0  0  0  0  0  0  0  0  0  0  0  0
    1.5677   -5.4543    2.7083 Cl  0  0  0  0  0  0  0  0  0  0  0  0
    3.1061  -13.3720    0.3748 O   0  0  0  0  0  0  0  0  0  0  0  0
    1.5849   -9.4138   -0.3524 C   0  0  0  0  0  0  0  0  0  0  0  0
    0.3839   -9.5214   -1.0872 P   0  0  0  0  0  0  0  0  0  0  0  0
   -0.6090  -10.5250   -0.9768 O   0  0  0  0  0  0  0  0  0  0  0  0
  3  7  1  0
  7  8  2  0
  7  9  1  0
 10  9  1  6
 10 11  1  0
 12 13  1  0
 10 15  1  0
 14 15  1  0
  6 16  1  0
 15 17  2  0
  4 18  1  0
 18 19  1  0
 19 20  1  0
 11 12  1  0
 13 14  1  0
  1  2  2  0
  2  3  1  0
  3  4  2  0
  4  5  1  0
  5  6  2  0
  1  6  1  0
M  END

$$$$
No_691-/export/home/yangzhenyu/potential_scad_32_flow//YTHDC2/2024-12-06-03-22-00/
     RDKit          3D

 19 19  0  0  1  0  0  0  0  0999 V2000
    1.1787   -8.0297    3.5154 N   0  0  0  0  0  0  0  0  0  0  0  0
    1.0818   -9.0751    3.2053 C   0  0  0  0  0  0  0  0  0  0  0  0
    0.7576   -9.3725    1.9159 C   0  0  1  0  0  0  0  0  0  0  0  0
    0.8823   -8.4917    1.0547 C   0  0  2  0  0  0  0  0  0  0  0  0
    0.9679   -8.9061   -0.3794 N   0  0  0  0  0  0  0  0  0  0  0  0
    1.6039   -7.3164    1.4188 C   0  0  0  0  0  0  0  0  0  0  0  0
    1.6789   -7.0064    2.6637 C   0  0  0  0  0  0  0  0  0  0  0  0
    1.7902   -5.6817    3.0880 O   0  0  0  0  0  0  0  0  0  0  0  0
    0.4273  -10.7286    1.5908 C   0  0  0  0  0  0  0  0  0  0  0  0
   -0.5164  -11.0145    0.8780 S   0  0  0  0  0  0  0  0  0  0  0  0
    1.5135  -11.8063    1.9872 C   0  0  0  0  0  0  0  0  0  0  0  0
    1.9077  -12.1137    2.9576 C   0  0  0  0  0  0  0  0  0  0  0  0
    1.1028  -11.5410    4.1934 C   0  0  0  0  0  0  0  0  0  0  0  0
    2.1244  -12.4847    0.7947 Cl  0  0  0  0  0  0  0  0  0  0  0  0
    2.0002   -8.9686   -1.1190 C   0  0  0  0  0  0  0  0  0  0  0  0
    2.6277   -7.9946   -1.6346 C   0  0  0  0  0  0  0  0  0  0  0  0
    4.1426   -8.3015   -1.8726 C   0  0  0  0  0  0  0  0  0  0  0  0
    1.7168  -11.2626    5.3180 O   0  0  0  0  0  0  0  0  0  0  0  0
   -0.0366  -12.1916    4.5011 O   0  0  0  0  0  0  0  0  0  0  0  0
  1  2  1  0
  3  4  1  0
  4  5  1  6
  4  6  1  0
  1  7  1  0
  6  7  1  0
  7  8  2  0
  3  9  1  6
  9 10  2  0
  9 11  1  0
 11 12  2  3
 12 13  1  0
 11 14  1  0
  5 15  1  0
 15 16  1  0
 16 17  2  0
 13 18  2  0
 13 19  1  0
  2  3  1  0
M  END

$$$$
No_692-/export/home/yangzhenyu/potential_scad_32_flow//YTHDC2/2024-12-06-03-22-00/
     RDKit          3D

 19 19  0  0  0  0  0  0  0  0999 V2000
    1.1787   -8.0297    3.5154 C   0  0  0  0  0  0  0  0  0  0  0  0
    1.1048   -9.2215    3.2892 C   0  0  0  0  0  0  0  0  0  0  0  0
    1.3627  -10.1721    4.3044 C   0  0  0  0  0  0  0  0  0  0  0  0
    1.7354  -11.4730    3.9023 C   0  0  0  0  0  0  0  0  0  0  0  0
    1.8080  -11.8127    2.7216 C   0  0  0  0  0  0  0  0  0  0  0  0
    1.5854  -11.0021    1.7249 C   0  0  0  0  0  0  0  0  0  0  0  0
    1.3573   -9.7389    1.9287 C   0  0  0  0  0  0  0  0  0  0  0  0
    1.2865   -8.8078    0.9161 C   0  0  0  0  0  0  0  0  0  0  0  0
    0.9210   -7.5140    1.1674 O   0  0  0  0  0  0  0  0  0  0  0  0
    1.4288   -9.1781   -0.4279 O   0  0  0  0  0  0  0  0  0  0  0  0
    2.0879  -13.2053    2.3135 C   0  0  0  0  0  0  0  0  0  0  0  0
    1.8920  -14.2496    3.1300 O   0  0  0  0  0  0  0  0  0  0  0  0
    2.0600  -13.5547    0.9871 O   0  0  0  0  0  0  0  0  0  0  0  0
    0.1272   -7.2154    3.6763 O   0  0  0  0  0  0  0  0  0  0  0  0
    2.1832   -7.0932    3.2143 O   0  0  0  0  0  0  0  0  0  0  0  0
    1.5617  -15.4818    2.6847 C   0  0  0  0  0  0  0  0  0  0  0  0
    2.3737  -16.3812    2.5634 C   0  0  0  0  0  0  0  0  0  0  0  0
    2.1494  -17.7015    2.1176 O   0  0  0  0  0  0  0  0  0  0  0  0
    3.7555  -16.1955    2.4224 O   0  0  0  0  0  0  0  0  0  0  0  0
  1  2  1  0
  7  8  1  0
  8  9  2  0
  8 10  1  0
  5 11  1  0
 11 12  1  0
 11 13  2  0
  1 14  1  0
  1 15  2  0
 12 16  1  0
 16 17  1  0
 17 18  2  0
 17 19  1  0
  2  3  2  0
  3  4  1  0
  4  5  2  0
  5  6  1  0
  6  7  2  0
  2  7  1  0
M  END

$$$$
No_693-/export/home/yangzhenyu/potential_scad_32_flow//YTHDC2/2024-12-06-03-22-00/
     RDKit          3D

 19 19  0  0  1  0  0  0  0  0999 V2000
    1.1787   -8.0297    3.5154 C   0  0  0  0  0  0  0  0  0  0  0  0
    1.0491   -6.8434    2.9820 C   0  0  0  0  0  0  0  0  0  0  0  0
    0.9905   -9.0774    2.6527 C   0  0  0  0  0  0  0  0  0  0  0  0
    0.7897   -8.9519    1.3691 C   0  0  0  0  0  0  0  0  0  0  0  0
    0.7018   -7.7198    0.7892 C   0  0  0  0  0  0  0  0  0  0  0  0
    0.8918   -6.5957    1.6117 C   0  0  0  0  0  0  0  0  0  0  0  0
    1.0774  -10.6059    3.3145 C   0  0  1  0  0  0  0  0  0  0  0  0
   -0.1032  -11.1934    3.4585 O   0  0  0  0  0  0  0  0  0  0  0  0
    2.0082  -11.4909    2.7172 C   0  0  0  0  0  0  0  0  0  0  0  0
    1.9354  -12.7225    3.3020 C   0  0  0  0  0  0  0  0  0  0  0  0
    1.0047  -13.6194    2.4882 C   0  0  1  0  0  0  0  0  0  0  0  0
    0.5244  -13.1325    1.4032 C   0  0  0  0  0  0  0  0  0  0  0  0
    1.3035  -13.0614    0.3392 C   0  0  0  0  0  0  0  0  0  0  0  0
    1.1515  -15.0373    2.5435 C   0  0  0  0  0  0  0  0  0  0  0  0
    0.5357  -15.8511    1.8467 C   0  0  0  0  0  0  0  0  0  0  0  0
   -0.7640  -15.9602    1.9860 Cl  0  0  0  0  0  0  0  0  0  0  0  0
    0.8290   -5.2990    1.0856 O   0  0  0  0  0  0  0  0  0  0  0  0
   -0.2813   -4.5137    1.2137 C   0  0  0  0  0  0  0  0  0  0  0  0
    2.3842  -13.7949    0.3144 O   0  0  0  0  0  0  0  0  0  0  0  0
  3  7  1  0
  7  8  1  6
  7  9  1  0
  9 10  1  0
 11 10  1  6
 11 12  1  0
 12 13  1  0
 11 14  1  0
 14 15  1  0
 15 16  1  0
  6 17  1  0
 17 18  1  0
 13 19  1  0
  1  2  2  0
  2  6  1  0
  5  6  2  0
  4  5  1  0
  3  4  2  0
  1  3  1  0
M  END

$$$$
No_694-/export/home/yangzhenyu/potential_scad_32_flow//YTHDC2/2024-12-06-03-22-00/
     RDKit          3D

 18 18  0  0  1  0  0  0  0  0999 V2000
    1.1787   -8.0297    3.5154 C   0  0  0  0  0  0  0  0  0  0  0  0
    1.0491   -6.8434    2.9820 C   0  0  0  0  0  0  0  0  0  0  0  0
    0.0950   -8.8404    3.2292 C   0  0  0  0  0  0  0  0  0  0  0  0
   -0.9173   -8.4596    2.5152 C   0  0  0  0  0  0  0  0  0  0  0  0
   -1.0331   -7.2162    2.0653 C   0  0  0  0  0  0  0  0  0  0  0  0
   -0.0105   -6.3168    2.3081 C   0  0  0  0  0  0  0  0  0  0  0  0
    0.1150   -4.9910    1.8495 C   0  0  0  0  0  0  0  0  0  0  0  0
    0.9121   -4.1017    2.4010 O   0  0  0  0  0  0  0  0  0  0  0  0
   -0.4792   -4.5325    0.7806 O   0  0  0  0  0  0  0  0  0  0  0  0
    0.2126  -10.4750    3.7388 Cl  0  0  0  0  0  0  0  0  0  0  0  0
   -2.2555   -6.7870    1.5069 C   0  0  0  0  0  0  0  0  0  0  0  0
   -2.1769   -7.0318   -0.0114 C   0  0  0  0  0  0  0  0  0  0  0  0
   -1.6200   -8.0774   -0.5361 C   0  0  2  0  0  0  0  0  0  0  0  0
   -0.5474   -8.0829   -1.2930 C   0  0  1  0  0  0  0  0  0  0  0  0
    0.4694   -8.9116   -1.1889 O   0  0  0  0  0  0  0  0  0  0  0  0
   -0.4692   -7.5235   -2.4261 Cl  0  0  0  0  0  0  0  0  0  0  0  0
   -2.4094   -9.2754   -0.2615 C   0  0  0  0  0  0  0  0  0  0  0  0
   -1.8557  -10.4407    0.1041 O   0  0  0  0  0  0  0  0  0  0  0  0
  6  7  1  0
  7  8  2  0
  7  9  1  0
  3 10  1  0
  5 11  1  0
 11 12  1  0
 13 12  1  6
 13 14  1  0
 14 15  1  6
 14 16  1  0
 13 17  1  0
 17 18  2  0
  1  2  2  0
  2  6  1  0
  5  6  2  0
  4  5  1  0
  3  4  2  0
  1  3  1  0
M  END

$$$$
No_695-/export/home/yangzhenyu/potential_scad_32_flow//YTHDC2/2024-12-06-03-22-00/
     RDKit          3D

 19 20  0  0  1  0  0  0  0  0999 V2000
    1.1787   -8.0297    3.5154 O   0  0  0  0  0  0  0  0  0  0  0  0
    0.6747   -7.4019    2.7838 C   0  0  0  0  0  0  0  0  0  0  0  0
    0.7594   -8.0032    1.4295 C   0  0  1  0  0  0  0  0  0  0  0  0
    0.3459   -9.1500    1.3581 C   0  0  0  0  0  0  0  0  0  0  0  0
    1.1876  -10.0065    2.0240 C   0  0  1  0  0  0  0  0  0  0  0  0
    1.2267   -9.5257    3.5507 C   0  0  1  0  0  0  0  0  0  0  0  0
    1.6039  -10.3725    4.5012 C   0  0  0  0  0  0  0  0  0  0  0  0
    2.1546  -11.6410    3.9991 C   0  0  0  0  0  0  0  0  0  0  0  0
    1.9186  -12.0910    2.7762 C   0  0  2  0  0  0  0  0  0  0  0  0
    2.3197  -13.4082    2.3598 C   0  0  0  0  0  0  0  0  0  0  0  0
    1.5440  -11.2582    1.7903 C   0  0  0  0  0  0  0  0  0  0  0  0
    1.5864  -11.5885    0.5768 O   0  0  0  0  0  0  0  0  0  0  0  0
    0.7300   -6.9996    0.5034 C   0  0  0  0  0  0  0  0  0  0  0  0
   -0.3748   -6.4406    0.2202 C   0  0  0  0  0  0  0  0  0  0  0  0
   -1.4522   -7.0472   -0.4665 C   0  0  0  0  0  0  0  0  0  0  0  0
   -1.2249   -7.5802   -1.7271 C   0  0  0  0  0  0  0  0  0  0  0  0
   -1.9880   -8.4433   -2.0991 O   0  0  0  0  0  0  0  0  0  0  0  0
   -0.3900   -7.1635   -2.5990 O   0  0  0  0  0  0  0  0  0  0  0  0
    1.9525  -14.4816    3.1775 O   0  0  0  0  0  0  0  0  0  0  0  0
  1  2  1  0
  2  3  1  0
  3  4  1  0
  5  4  1  1
  1  6  1  0
  5  6  1  0
  6  7  1  6
  8  9  1  0
  9 10  1  6
  5 11  1  0
  9 11  1  0
 11 12  2  0
  3 13  1  6
 13 14  1  0
 14 15  1  0
 15 16  1  0
 16 17  2  0
 16 18  1  0
 10 19  1  0
  7  8  1  0
M  END

$$$$
No_696-/export/home/yangzhenyu/potential_scad_32_flow//YTHDC2/2024-12-06-03-22-00/
     RDKit          3D

 18 18  0  0  1  0  0  0  0  0999 V2000
    1.1787   -8.0297    3.5154 O   0  0  0  0  0  0  0  0  0  0  0  0
    0.6747   -7.4019    2.7838 C   0  0  1  0  0  0  0  0  0  0  0  0
    0.5570   -6.0797    2.8560 C   0  0  0  0  0  0  0  0  0  0  0  0
    1.6734   -5.4651    3.4094 C   0  0  0  0  0  0  0  0  0  0  0  0
    1.3890   -9.4346    3.3337 C   0  0  0  0  0  0  0  0  0  0  0  0
    1.2051  -10.0658    2.2186 C   0  0  0  0  0  0  0  0  0  0  0  0
    0.6500   -9.2608    1.2027 C   0  0  0  0  0  0  0  0  0  0  0  0
    0.4651   -7.8699    1.4345 C   0  0  0  0  0  0  0  0  0  0  0  0
   -0.1659   -7.3053    0.5058 O   0  0  0  0  0  0  0  0  0  0  0  0
    1.5251  -11.3937    2.0692 C   0  0  0  0  0  0  0  0  0  0  0  0
    1.8157  -11.8485    0.7244 O   0  0  0  0  0  0  0  0  0  0  0  0
    1.7833  -12.1971    3.0724 N   0  0  0  0  0  0  0  0  0  0  0  0
    1.9360  -13.5853    3.0003 C   0  0  0  0  0  0  0  0  0  0  0  0
    1.0490  -14.1320    2.0584 C   0  0  0  0  0  0  0  0  0  0  0  0
    1.6971  -14.9854    1.2293 C   0  0  0  0  0  0  0  0  0  0  0  0
    3.0137  -15.2087    1.2295 O   0  0  0  0  0  0  0  0  0  0  0  0
    1.3106  -15.0986    0.0041 O   0  0  0  0  0  0  0  0  0  0  0  0
    2.3564   -5.8689    4.2065 O   0  0  0  0  0  0  0  0  0  0  0  0
  1  2  1  0
  2  3  1  6
  3  4  1  0
  1  5  1  0
  5  6  2  0
  6  7  1  0
  2  8  1  0
  7  8  1  0
  8  9  2  0
  6 10  1  0
 10 11  2  0
 10 12  1  0
 12 13  1  0
 13 14  1  0
 14 15  1  0
 15 16  2  0
 15 17  1  0
  4 18  2  0
M  END

$$$$
No_697-/export/home/yangzhenyu/potential_scad_32_flow//YTHDC2/2024-12-06-03-22-00/
     RDKit          3D

 18 18  0  0  0  0  0  0  0  0999 V2000
    1.1787   -8.0297    3.5154 C   0  0  0  0  0  0  0  0  0  0  0  0
    1.1048   -9.2215    3.2892 C   0  0  0  0  0  0  0  0  0  0  0  0
    1.2339   -9.7611    2.0189 C   0  0  0  0  0  0  0  0  0  0  0  0
    1.3583   -9.0036    0.9764 C   0  0  0  0  0  0  0  0  0  0  0  0
    1.5996   -7.6362    1.1311 C   0  0  0  0  0  0  0  0  0  0  0  0
    1.4830   -7.0928    2.3626 C   0  0  0  0  0  0  0  0  0  0  0  0
    1.1008  -11.2372    1.8542 C   0  0  0  0  0  0  0  0  0  0  0  0
    1.9749  -12.0938    2.2342 F   0  0  0  0  0  0  0  0  0  0  0  0
    1.0546  -11.4573    0.3744 F   0  0  0  0  0  0  0  0  0  0  0  0
   -0.0739  -11.6875    2.2000 F   0  0  0  0  0  0  0  0  0  0  0  0
    1.5403   -5.6656    2.6996 Cl  0  0  0  0  0  0  0  0  0  0  0  0
    1.5777   -9.4478   -0.3259 F   0  0  0  0  0  0  0  0  0  0  0  0
    0.8288  -10.2832    4.5930 O   0  0  0  0  0  0  0  0  0  0  0  0
   -0.3557  -10.8231    4.5828 C   0  0  0  0  0  0  0  0  0  0  0  0
    1.8701   -6.8814    0.0308 O   0  0  0  0  0  0  0  0  0  0  0  0
   -1.4441   -9.8088    4.6815 C   0  0  0  0  0  0  0  0  0  0  0  0
   -2.7324  -10.3115    4.5370 C   0  0  0  0  0  0  0  0  0  0  0  0
   -3.7643   -9.4480    4.9417 C   0  0  0  0  0  0  0  0  0  0  0  0
  3  7  1  0
  7  8  1  0
  7  9  1  0
  7 10  1  0
  6 11  1  0
  4 12  1  0
  2 13  1  0
 13 14  1  0
  5 15  1  0
 14 16  1  0
 16 17  1  0
 17 18  2  0
  1  2  2  0
  2  3  1  0
  3  4  2  0
  4  5  1  0
  5  6  2  0
  1  6  1  0
M  END

$$$$
No_698-/export/home/yangzhenyu/potential_scad_32_flow//YTHDC2/2024-12-06-03-22-00/
     RDKit          3D

 19 19  0  0  1  0  0  0  0  0999 V2000
    1.1787   -8.0297    3.5154 O   0  0  0  0  0  0  0  0  0  0  0  0
    0.6747   -7.4019    2.7838 C   0  0  0  0  0  0  0  0  0  0  0  0
    0.7594   -8.0032    1.4295 C   0  0  0  0  0  0  0  0  0  0  0  0
    1.4743   -7.4398    0.6034 C   0  0  0  0  0  0  0  0  0  0  0  0
    1.8433   -8.4151   -0.4648 C   0  0  0  0  0  0  0  0  0  0  0  0
    1.3204   -9.5205   -0.5909 C   0  0  0  0  0  0  0  0  0  0  0  0
    0.4880  -10.0838    0.3555 C   0  0  0  0  0  0  0  0  0  0  0  0
    0.2363   -9.3226    1.4465 C   0  0  0  0  0  0  0  0  0  0  0  0
   -0.5984   -9.6542    2.4538 C   0  0  0  0  0  0  0  0  0  0  0  0
   -1.8465   -9.1558    2.6200 O   0  0  0  0  0  0  0  0  0  0  0  0
   -0.1400  -10.3970    3.4933 O   0  0  0  0  0  0  0  0  0  0  0  0
    0.3567   -6.1377    2.9754 O   0  0  0  0  0  0  0  0  0  0  0  0
   -0.7634  -10.7400    4.5232 C   0  0  0  0  0  0  0  0  0  0  0  0
    2.6221   -7.9218   -1.5760 O   0  0  0  0  0  0  0  0  0  0  0  0
   -1.0567   -9.7122    5.2275 C   0  0  1  0  0  0  0  0  0  0  0  0
   -0.5299   -8.5196    5.3907 C   0  0  0  0  0  0  0  0  0  0  0  0
   -2.5625   -9.6826    5.7783 C   0  0  0  0  0  0  0  0  0  0  0  0
   -3.1653   -8.5163    6.2596 C   0  0  0  0  0  0  0  0  0  0  0  0
   -2.3796   -7.3035    6.1796 C   0  0  0  0  0  0  0  0  0  0  0  0
  1  2  1  0
  2  3  1  0
  8  9  1  0
  9 10  2  0
  9 11  1  0
  2 12  2  0
 11 13  1  0
  5 14  1  0
 13 15  1  0
 15 16  1  6
 15 17  1  0
 17 18  2  3
 18 19  1  0
  3  4  2  0
  4  5  1  0
  5  6  2  0
  6  7  1  0
  7  8  2  0
  3  8  1  0
M  END

$$$$
No_699-/export/home/yangzhenyu/potential_scad_32_flow//YTHDC2/2024-12-06-03-22-00/
     RDKit          3D

 19 19  0  0  1  0  0  0  0  0999 V2000
    1.1787   -8.0297    3.5154 C   0  0  0  0  0  0  0  0  0  0  0  0
    1.0491   -6.8434    2.9820 C   0  0  1  0  0  0  0  0  0  0  0  0
    0.9905   -9.0774    2.6527 C   0  0  1  0  0  0  0  0  0  0  0  0
    0.7897   -8.9519    1.3691 C   0  0  0  0  0  0  0  0  0  0  0  0
    0.7018   -7.7198    0.7892 C   0  0  0  0  0  0  0  0  0  0  0  0
    1.4312   -5.5794    3.7443 C   0  0  0  0  0  0  0  0  0  0  0  0
    0.9426   -6.6664    1.5322 C   0  0  0  0  0  0  0  0  0  0  0  0
    0.9192   -5.4040    1.0793 O   0  0  0  0  0  0  0  0  0  0  0  0
    1.1057  -10.5084    3.1751 C   0  0  2  0  0  0  0  0  0  0  0  0
    1.2822  -11.5415    2.4753 C   0  0  0  0  0  0  0  0  0  0  0  0
    1.2829  -12.8282    3.1976 C   0  0  0  0  0  0  0  0  0  0  0  0
    0.8776  -13.9732    2.3196 I   0  0  0  0  0  0  0  0  0  0  0  0
    0.6897  -10.6324    4.4878 C   0  0  0  0  0  0  0  0  0  0  0  0
    1.9235  -11.5697    1.2743 O   0  0  0  0  0  0  0  0  0  0  0  0
    1.3556  -10.9808    5.3462 O   0  0  0  0  0  0  0  0  0  0  0  0
   -0.6791  -10.2959    4.8500 F   0  0  0  0  0  0  0  0  0  0  0  0
    0.5183   -4.6438    3.8098 N   0  0  0  0  0  0  0  0  0  0  0  0
    0.9845   -3.3059    3.8017 C   0  0  0  0  0  0  0  0  0  0  0  0
    0.2066   -2.2555    4.2512 C   0  0  0  0  0  0  0  0  0  0  0  0
  1  2  1  0
  3  4  1  6
  2  6  1  6
  2  7  1  0
  5  7  1  0
  7  8  2  0
  3  9  1  0
  9 10  1  6
 10 11  1  0
 11 12  1  0
  9 13  1  0
 10 14  2  0
 13 15  2  0
 13 16  1  0
  6 17  1  0
 17 18  1  0
 18 19  1  0
  1  3  1  0
  4  5  1  0
M  END

$$$$
No_700-/export/home/yangzhenyu/potential_scad_32_flow//YTHDC2/2024-12-06-03-22-00/
     RDKit          3D

 18 18  0  0  1  0  0  0  0  0999 V2000
    1.1787   -8.0297    3.5154 C   0  0  0  0  0  0  0  0  0  0  0  0
    1.0491   -6.8434    2.9820 C   0  0  0  0  0  0  0  0  0  0  0  0
    1.9985   -8.9840    2.8958 C   0  0  0  0  0  0  0  0  0  0  0  0
    1.7297   -9.2108    1.6335 C   0  0  0  0  0  0  0  0  0  0  0  0
    1.7343   -8.0566    0.8408 C   0  0  0  0  0  0  0  0  0  0  0  0
    1.0269   -6.8892    1.4456 C   0  0  0  0  0  0  0  0  0  0  0  0
    1.7596   -8.0979   -0.4723 O   0  0  0  0  0  0  0  0  0  0  0  0
    2.2829  -10.2174    3.6488 C   0  0  0  0  0  0  0  0  0  0  0  0
    1.6212  -11.3857    3.4822 C   0  0  1  0  0  0  0  0  0  0  0  0
    2.2791  -12.5199    3.1822 C   0  0  0  0  0  0  0  0  0  0  0  0
    1.8366  -13.0217    1.8547 C   0  0  0  0  0  0  0  0  0  0  0  0
    2.2929  -14.3109    1.5491 O   0  0  0  0  0  0  0  0  0  0  0  0
    1.2865  -12.3003    1.0353 O   0  0  0  0  0  0  0  0  0  0  0  0
    0.8808   -5.6398    3.4828 O   0  0  0  0  0  0  0  0  0  0  0  0
    0.8193   -5.7470    0.8129 O   0  0  0  0  0  0  0  0  0  0  0  0
    0.7818  -11.7512    4.7976 C   0  0  0  0  0  0  0  0  0  0  0  0
   -0.4308  -10.9403    4.8638 O   0  0  0  0  0  0  0  0  0  0  0  0
    0.9361  -12.3936    5.6212 O   0  0  0  0  0  0  0  0  0  0  0  0
  1  2  1  0
  1  3  1  0
  3  4  1  0
  4  5  1  0
  2  6  1  0
  5  6  1  0
  5  7  2  0
  3  8  1  0
  9  8  1  1
  9 10  1  0
 10 11  1  0
 11 12  1  0
 11 13  2  0
  2 14  2  0
  6 15  2  0
  9 16  1  0
 16 17  2  0
 16 18  1  0
M  END

$$$$
No_701-/export/home/yangzhenyu/potential_scad_32_flow//YTHDC2/2024-12-06-03-22-00/
     RDKit          3D

 20 21  0  0  1  0  0  0  0  0999 V2000
    1.1787   -8.0297    3.5154 C   0  0  0  0  0  0  0  0  0  0  0  0
    1.1048   -9.2215    3.2892 Cl  0  0  0  0  0  0  0  0  0  0  0  0
    0.2295   -7.0603    2.7853 S   0  0  1  0  0  0  0  0  0  0  0  0
    0.9960   -5.5752    2.8151 C   0  0  0  0  0  0  0  0  0  0  0  0
    0.7137   -4.4904    1.9255 N   0  0  0  0  0  0  0  0  0  0  0  0
    0.0667   -4.7101    1.0396 C   0  0  0  0  0  0  0  0  0  0  0  0
   -0.5201   -5.9082    0.8622 C   0  0  0  0  0  0  0  0  0  0  0  0
   -0.4891   -6.9750    1.4984 C   0  0  2  0  0  0  0  0  0  0  0  0
   -0.2399   -3.5692    0.2174 C   0  0  0  0  0  0  0  0  0  0  0  0
   -1.2372   -2.8788    0.1508 C   0  0  0  0  0  0  0  0  0  0  0  0
   -1.7966   -2.2265   -0.8642 C   0  0  0  0  0  0  0  0  0  0  0  0
   -1.0933   -2.1297   -2.0468 C   0  0  0  0  0  0  0  0  0  0  0  0
    0.1290   -2.7832   -2.1655 C   0  0  0  0  0  0  0  0  0  0  0  0
    0.5638   -3.4709   -1.0952 C   0  0  0  0  0  0  0  0  0  0  0  0
   -1.4904   -1.3798   -3.1127 O   0  0  0  0  0  0  0  0  0  0  0  0
   -1.9934   -0.2201   -3.0176 C   0  0  0  0  0  0  0  0  0  0  0  0
   -1.5135   -7.8923    1.4502 C   0  0  0  0  0  0  0  0  0  0  0  0
   -2.6047   -7.9430    2.2331 C   0  0  0  0  0  0  0  0  0  0  0  0
   -3.0604   -8.8871    2.7430 C   0  0  0  0  0  0  0  0  0  0  0  0
   -2.7509  -10.1506    2.3834 C   0  0  0  0  0  0  0  0  0  0  0  0
  1  2  1  0
  3  1  1  6
  3  4  1  0
  4  5  1  0
  5  6  1  0
  6  7  2  0
  3  8  1  0
  7  8  1  0
  6  9  1  0
 12 15  1  0
 15 16  1  0
  8 17  1  1
 17 18  1  0
 18 19  2  3
 19 20  1  0
  9 10  2  0
 10 11  1  0
 11 12  2  0
 12 13  1  0
 13 14  2  0
  9 14  1  0
M  END

$$$$
No_702-/export/home/yangzhenyu/potential_scad_32_flow//YTHDC2/2024-12-06-03-22-00/
     RDKit          3D

 18 18  0  0  0  0  0  0  0  0999 V2000
    1.1787   -8.0297    3.5154 C   0  0  0  0  0  0  0  0  0  0  0  0
    1.0491   -6.8434    2.9820 C   0  0  0  0  0  0  0  0  0  0  0  0
    0.9905   -9.0774    2.6527 C   0  0  0  0  0  0  0  0  0  0  0  0
    0.7897   -8.9519    1.3691 C   0  0  0  0  0  0  0  0  0  0  0  0
    0.7018   -7.7198    0.7892 C   0  0  0  0  0  0  0  0  0  0  0  0
    0.8918   -6.5957    1.6117 C   0  0  0  0  0  0  0  0  0  0  0  0
    1.0998  -10.4710    3.2437 C   0  0  0  0  0  0  0  0  0  0  0  0
    1.3102  -11.5554    2.5214 C   0  0  0  0  0  0  0  0  0  0  0  0
    1.4257  -12.8124    3.1919 C   0  0  0  0  0  0  0  0  0  0  0  0
    1.4301  -14.0627    2.4374 C   0  0  0  0  0  0  0  0  0  0  0  0
    0.8588   -5.2558    1.2463 C   0  0  0  0  0  0  0  0  0  0  0  0
    1.0412  -15.2240    3.0610 O   0  0  0  0  0  0  0  0  0  0  0  0
    2.5950  -14.3008    1.6592 O   0  0  0  0  0  0  0  0  0  0  0  0
    1.5368   -4.3449    1.9093 O   0  0  0  0  0  0  0  0  0  0  0  0
    0.2620   -4.9038    0.2184 O   0  0  0  0  0  0  0  0  0  0  0  0
    0.6016   -9.9900    0.4056 C   0  0  0  0  0  0  0  0  0  0  0  0
    0.2703   -9.9681   -0.7417 C   0  0  0  0  0  0  0  0  0  0  0  0
    0.7786   -9.0418   -1.5523 C   0  0  0  0  0  0  0  0  0  0  0  0
  3  7  1  0
  7  8  2  3
  8  9  1  0
  9 10  1  0
  6 11  1  0
 10 12  1  0
 10 13  2  0
 11 14  2  0
 11 15  1  0
  4 16  1  0
 16 17  1  0
 17 18  2  0
  1  2  2  0
  2  6  1  0
  5  6  2  0
  4  5  1  0
  3  4  2  0
  1  3  1  0
M  END

$$$$
No_703-/export/home/yangzhenyu/potential_scad_32_flow//YTHDC2/2024-12-06-03-22-00/
     RDKit          3D

 17 17  0  0  0  0  0  0  0  0999 V2000
    1.1787   -8.0297    3.5154 C   0  0  0  0  0  0  0  0  0  0  0  0
    1.1048   -9.2215    3.2892 C   0  0  0  0  0  0  0  0  0  0  0  0
    1.3627  -10.1721    4.3044 C   0  0  0  0  0  0  0  0  0  0  0  0
    1.7354  -11.4730    3.9023 C   0  0  0  0  0  0  0  0  0  0  0  0
    1.8080  -11.8127    2.7216 C   0  0  0  0  0  0  0  0  0  0  0  0
    1.5854  -11.0021    1.7249 C   0  0  0  0  0  0  0  0  0  0  0  0
    1.3573   -9.7389    1.9287 C   0  0  0  0  0  0  0  0  0  0  0  0
    1.1102   -8.8712    0.9017 C   0  0  0  0  0  0  0  0  0  0  0  0
    1.5724   -9.1697   -0.3048 C   0  0  0  0  0  0  0  0  0  0  0  0
    1.2378   -8.2159   -1.4226 O   0  0  0  0  0  0  0  0  0  0  0  0
    2.0610  -13.2069    2.3284 C   0  0  0  0  0  0  0  0  0  0  0  0
    1.9011  -14.2479    3.1770 O   0  0  0  0  0  0  0  0  0  0  0  0
    1.9912  -13.5803    1.0085 O   0  0  0  0  0  0  0  0  0  0  0  0
    0.1212   -7.2233    3.3890 O   0  0  0  0  0  0  0  0  0  0  0  0
    2.0788   -7.2455    4.2365 O   0  0  0  0  0  0  0  0  0  0  0  0
    2.5589   -9.9421   -0.6384 O   0  0  0  0  0  0  0  0  0  0  0  0
    2.0527  -15.5260    2.6968 C   0  0  0  0  0  0  0  0  0  0  0  0
  1  2  1  0
  7  8  1  0
  8  9  2  3
  9 10  1  0
  5 11  1  0
 11 12  1  0
 11 13  2  0
  1 14  2  0
  1 15  1  0
  9 16  1  0
 12 17  1  0
  2  3  2  0
  3  4  1  0
  4  5  2  0
  5  6  1  0
  6  7  2  0
  2  7  1  0
M  END

$$$$
No_704-/export/home/yangzhenyu/potential_scad_32_flow//YTHDC2/2024-12-06-03-22-00/
     RDKit          3D

 21 21  0  0  1  0  0  0  0  0999 V2000
    1.1787   -8.0297    3.5154 C   0  0  0  0  0  0  0  0  0  0  0  0
    1.0491   -6.8434    2.9820 C   0  0  0  0  0  0  0  0  0  0  0  0
    1.9985   -8.9840    2.8958 C   0  0  0  0  0  0  0  0  0  0  0  0
    1.9135  -10.3404    3.6266 C   0  0  2  0  0  0  0  0  0  0  0  0
    2.2847  -10.5440    4.7936 C   0  0  0  0  0  0  0  0  0  0  0  0
    0.3304   -6.7696    1.8077 C   0  0  0  0  0  0  0  0  0  0  0  0
    0.3816   -7.5583    0.9388 O   0  0  0  0  0  0  0  0  0  0  0  0
   -0.5289   -5.7273    1.7706 O   0  0  0  0  0  0  0  0  0  0  0  0
    1.6073  -11.3915    2.7416 C   0  0  0  0  0  0  0  0  0  0  0  0
    1.5250  -12.6151    3.2527 C   0  0  0  0  0  0  0  0  0  0  0  0
    0.2178  -13.1418    3.1932 C   0  0  0  0  0  0  0  0  0  0  0  0
   -0.7821  -12.4188    2.6498 O   0  0  0  0  0  0  0  0  0  0  0  0
    0.4592  -14.5552    2.8287 O   0  0  0  0  0  0  0  0  0  0  0  0
    3.7566  -10.4033    5.0369 O   0  0  0  0  0  0  0  0  0  0  0  0
   -1.7723   -5.7352    1.4455 C   0  0  0  0  0  0  0  0  0  0  0  0
   -1.9677   -5.1504    0.2504 C   0  0  0  0  0  0  0  0  0  0  0  0
   -2.2462   -5.9209   -0.7401 C   0  0  0  0  0  0  0  0  0  0  0  0
   -1.9634   -5.5469   -2.0199 C   0  0  0  0  0  0  0  0  0  0  0  0
   -2.0354   -4.1367   -2.3096 C   0  0  0  0  0  0  0  0  0  0  0  0
   -2.0372   -3.4585   -0.8738 C   0  0  0  0  0  0  0  0  0  0  0  0
   -1.9872   -3.8612    0.2020 C   0  0  0  0  0  0  0  0  0  0  0  0
  1  2  1  0
  1  3  1  0
  4  3  1  6
  4  5  1  0
  2  6  1  0
  6  7  2  0
  6  8  1  0
  4  9  1  0
  9 10  1  0
 10 11  1  0
 11 12  1  0
 11 13  2  0
  5 14  2  0
  8 15  1  0
 15 16  1  0
 16 17  2  0
 17 18  1  0
 18 19  2  0
 19 20  1  0
 20 21  2  0
 16 21  1  0
M  END

$$$$
No_705-/export/home/yangzhenyu/potential_scad_32_flow//YTHDC2/2024-12-06-03-22-00/
     RDKit          3D

 14 14  0  0  0  0  0  0  0  0999 V2000
    1.1787   -8.0297    3.5154 C   0  0  0  0  0  0  0  0  0  0  0  0
    1.1048   -9.2215    3.2892 C   0  0  0  0  0  0  0  0  0  0  0  0
    1.3627  -10.1721    4.3044 C   0  0  0  0  0  0  0  0  0  0  0  0
    1.7354  -11.4730    3.9023 C   0  0  0  0  0  0  0  0  0  0  0  0
    1.8080  -11.8127    2.7216 C   0  0  0  0  0  0  0  0  0  0  0  0
    1.5854  -11.0021    1.7249 C   0  0  0  0  0  0  0  0  0  0  0  0
    1.3573   -9.7389    1.9287 C   0  0  0  0  0  0  0  0  0  0  0  0
    1.1102   -8.8712    0.9017 C   0  0  0  0  0  0  0  0  0  0  0  0
    0.5299   -7.6926    1.0325 O   0  0  0  0  0  0  0  0  0  0  0  0
    1.3970   -9.2634   -0.4035 N   0  0  0  0  0  0  0  0  0  0  0  0
    2.1122  -13.2004    2.3256 F   0  0  0  0  0  0  0  0  0  0  0  0
    0.1401   -7.1987    3.6641 I   0  0  0  0  0  0  0  0  0  0  0  0
    1.2613   -8.5485   -1.5386 O   0  0  0  0  0  0  0  0  0  0  0  0
    1.8661  -12.4214    4.8681 Cl  0  0  0  0  0  0  0  0  0  0  0  0
  1  2  1  0
  7  8  1  0
  8  9  2  0
  8 10  1  0
  5 11  1  0
  1 12  1  0
 10 13  2  0
  4 14  1  0
  2  3  2  0
  3  4  1  0
  4  5  2  0
  5  6  1  0
  6  7  2  0
  2  7  1  0
M  END

$$$$
No_706-/export/home/yangzhenyu/potential_scad_32_flow//YTHDC2/2024-12-06-03-22-00/
     RDKit          3D

 19 19  0  0  1  0  0  0  0  0999 V2000
    1.1787   -8.0297    3.5154 C   0  0  0  0  0  0  0  0  0  0  0  0
    1.1048   -9.2215    3.2892 C   0  0  0  0  0  0  0  0  0  0  0  0
    1.3627  -10.1721    4.3044 C   0  0  0  0  0  0  0  0  0  0  0  0
    1.0682  -11.5187    4.0618 C   0  0  0  0  0  0  0  0  0  0  0  0
    0.6332  -11.9655    2.9682 C   0  0  0  0  0  0  0  0  0  0  0  0
    0.4776  -11.1308    1.9203 C   0  0  0  0  0  0  0  0  0  0  0  0
    0.7470   -9.8274    2.0368 C   0  0  0  0  0  0  0  0  0  0  0  0
    1.0387   -7.0301    2.5175 O   0  0  0  0  0  0  0  0  0  0  0  0
    0.4220  -13.4291    2.8032 Cl  0  0  0  0  0  0  0  0  0  0  0  0
    1.8339   -9.5277    1.0919 C   0  0  0  0  0  0  0  0  0  0  0  0
    1.6793   -9.4982   -0.1299 O   0  0  0  0  0  0  0  0  0  0  0  0
    2.9754   -8.8869    1.2619 O   0  0  0  0  0  0  0  0  0  0  0  0
    2.1420   -7.3304    4.3068 O   0  0  0  0  0  0  0  0  0  0  0  0
    0.0793  -11.7348    0.5006 C   0  0  1  0  0  0  0  0  0  0  0  0
    0.5611  -12.5776   -0.1339 C   0  0  0  0  0  0  0  0  0  0  0  0
   -1.2297  -11.1331    0.1413 C   0  0  0  0  0  0  0  0  0  0  0  0
   -1.5981  -11.2449   -1.0948 O   0  0  0  0  0  0  0  0  0  0  0  0
   -1.9051  -10.1072    0.8294 O   0  0  0  0  0  0  0  0  0  0  0  0
   -0.3841  -13.6780   -0.5608 C   0  0  0  0  0  0  0  0  0  0  0  0
  1  2  1  0
  1  8  2  0
  5  9  1  0
  7 10  1  0
 10 11  2  0
 10 12  1  0
  1 13  1  0
  6 14  1  0
 14 15  1  1
 14 16  1  0
 16 17  2  0
 16 18  1  0
 15 19  1  0
  2  3  2  0
  3  4  1  0
  4  5  2  0
  5  6  1  0
  6  7  2  0
  2  7  1  0
M  END

$$$$
No_707-/export/home/yangzhenyu/potential_scad_32_flow//YTHDC2/2024-12-06-03-22-00/
     RDKit          3D

 18 18  0  0  1  0  0  0  0  0999 V2000
    1.1787   -8.0297    3.5154 C   0  0  0  0  0  0  0  0  0  0  0  0
    1.0491   -6.8434    2.9820 C   0  0  0  0  0  0  0  0  0  0  0  0
    0.9905   -9.0774    2.6527 C   0  0  0  0  0  0  0  0  0  0  0  0
    0.7897   -8.9519    1.3691 C   0  0  0  0  0  0  0  0  0  0  0  0
    0.7018   -7.7198    0.7892 C   0  0  0  0  0  0  0  0  0  0  0  0
    0.8918   -6.5957    1.6117 C   0  0  0  0  0  0  0  0  0  0  0  0
    1.0600  -10.5680    3.3321 C   0  0  1  0  0  0  0  0  0  0  0  0
    2.1422  -11.0089    3.6867 C   0  0  0  0  0  0  0  0  0  0  0  0
    0.8986   -5.2530    1.1685 O   0  0  0  0  0  0  0  0  0  0  0  0
   -0.0328  -10.6488    4.3375 C   0  0  0  0  0  0  0  0  0  0  0  0
    3.0301  -10.3460    4.3327 C   0  0  0  0  0  0  0  0  0  0  0  0
    4.0352  -11.1117    5.1635 C   0  0  0  0  0  0  0  0  0  0  0  0
    5.1312  -11.4202    4.5837 O   0  0  0  0  0  0  0  0  0  0  0  0
    4.1088  -10.7661    6.5399 O   0  0  0  0  0  0  0  0  0  0  0  0
    0.5665  -11.3866    2.1560 Cl  0  0  0  0  0  0  0  0  0  0  0  0
    1.3970   -5.7167    3.8078 O   0  0  0  0  0  0  0  0  0  0  0  0
   -1.2462  -10.6247    4.1192 C   0  0  0  0  0  0  0  0  0  0  0  0
   -2.1362   -9.5835    4.3469 O   0  0  0  0  0  0  0  0  0  0  0  0
  1  2  1  0
  3  4  1  0
  2  6  1  0
  5  6  1  0
  3  7  1  0
  7  8  1  0
  6  9  2  0
  7 10  1  0
  8 11  1  0
 11 12  1  0
 12 13  2  0
 12 14  1  0
  7 15  1  6
  2 16  2  0
 10 17  1  0
 17 18  1  0
  1  3  1  0
  4  5  1  0
M  END

$$$$
No_708-/export/home/yangzhenyu/potential_scad_32_flow//YTHDC2/2024-12-06-03-22-00/
     RDKit          3D

 20 19  0  0  1  0  0  0  0  0999 V2000
    1.1787   -8.0297    3.5154 C   0  0  0  0  0  0  0  0  0  0  0  0
    1.1048   -9.2215    3.2892 C   0  0  1  0  0  0  0  0  0  0  0  0
    1.2339   -9.7611    2.0189 Cl  0  0  0  0  0  0  0  0  0  0  0  0
    1.0234   -7.1005    2.4615 C   0  0  0  0  0  0  0  0  0  0  0  0
    1.0779   -5.6161    2.6477 C   0  0  1  0  0  0  0  0  0  0  0  0
    1.0525  -10.0729    4.5218 C   0  0  0  0  0  0  0  0  0  0  0  0
    1.6541   -5.1080    3.8121 S   0  0  0  0  0  0  0  0  0  0  0  0
    0.7253   -4.8856    1.5346 C   0  0  0  0  0  0  0  0  0  0  0  0
    0.8240  -11.5210    4.2407 C   0  0  0  0  0  0  0  0  0  0  0  0
    2.0589  -12.3443    4.1785 C   0  0  0  0  0  0  0  0  0  0  0  0
    1.8700  -13.5833    3.3573 N   0  0  0  0  0  0  0  0  0  0  0  0
    1.3190  -13.7688    2.3790 C   0  0  0  0  0  0  0  0  0  0  0  0
    1.3429  -15.0418    1.8320 C   0  0  0  0  0  0  0  0  0  0  0  0
    0.6965  -15.8322    2.2261 C   0  0  0  0  0  0  0  0  0  0  0  0
    1.0226  -16.9320    3.0437 C   0  0  0  0  0  0  0  0  0  0  0  0
    2.4436  -17.1897    3.1290 C   0  0  0  0  0  0  0  0  0  0  0  0
    1.3268   -3.5214    3.4997 O   0  0  0  0  0  0  0  0  0  0  0  0
    2.8477  -18.4243    3.5559 N   0  0  0  0  0  0  0  0  0  0  0  0
    0.3459  -17.8510    3.8523 C   0  0  0  0  0  0  0  0  0  0  0  0
    2.1613  -19.1238    3.8004 H   0  0  0  0  0  0  0  0  0  0  0  0
  1  2  1  0
  2  3  1  6
  1  4  2  3
  4  5  1  0
  2  6  1  0
  5  7  1  0
  5  8  1  6
  6  9  1  0
  9 10  1  0
 10 11  1  0
 11 12  1  0
 12 13  1  0
 13 14  1  0
 14 15  1  0
 15 16  1  0
  7 17  2  0
 16 18  2  0
 15 19  1  0
 18 20  1  0
M  END

$$$$
No_709-/export/home/yangzhenyu/potential_scad_32_flow//YTHDC2/2024-12-06-03-22-00/
     RDKit          3D

 18 18  0  0  0  0  0  0  0  0999 V2000
    1.1787   -8.0297    3.5154 C   0  0  0  0  0  0  0  0  0  0  0  0
    1.1048   -9.2215    3.2892 C   0  0  0  0  0  0  0  0  0  0  0  0
    1.3627  -10.1721    4.3044 C   0  0  0  0  0  0  0  0  0  0  0  0
    1.7354  -11.4730    3.9023 C   0  0  0  0  0  0  0  0  0  0  0  0
    1.8080  -11.8127    2.7216 C   0  0  0  0  0  0  0  0  0  0  0  0
    1.5854  -11.0021    1.7249 C   0  0  0  0  0  0  0  0  0  0  0  0
    1.3573   -9.7389    1.9287 C   0  0  0  0  0  0  0  0  0  0  0  0
    1.2865   -8.8078    0.9161 C   0  0  0  0  0  0  0  0  0  0  0  0
    1.6845   -9.1638   -0.2896 O   0  0  0  0  0  0  0  0  0  0  0  0
    0.9852   -7.5566    1.1137 O   0  0  0  0  0  0  0  0  0  0  0  0
    2.0809  -13.2098    2.3190 C   0  0  0  0  0  0  0  0  0  0  0  0
    1.1837  -14.0454    1.6746 O   0  0  0  0  0  0  0  0  0  0  0  0
    2.9320  -13.9738    2.9623 O   0  0  0  0  0  0  0  0  0  0  0  0
    2.4590   -7.3790    3.6902 O   0  0  0  0  0  0  0  0  0  0  0  0
    0.1572   -7.3165    3.7493 O   0  0  0  0  0  0  0  0  0  0  0  0
    3.0435  -15.2792    2.5344 C   0  0  0  0  0  0  0  0  0  0  0  0
    2.2536  -16.2394    3.3419 C   0  0  0  0  0  0  0  0  0  0  0  0
    2.4524  -17.6457    2.8779 O   0  0  0  0  0  0  0  0  0  0  0  0
  1  2  1  0
  7  8  1  0
  8  9  1  0
  8 10  2  0
  5 11  1  0
 11 12  2  0
 11 13  1  0
  1 14  1  0
  1 15  2  0
 13 16  1  0
 16 17  1  0
 17 18  1  0
  2  3  2  0
  3  4  1  0
  4  5  2  0
  5  6  1  0
  6  7  2  0
  2  7  1  0
M  END

$$$$
No_710-/export/home/yangzhenyu/potential_scad_32_flow//YTHDC2/2024-12-06-03-22-00/
     RDKit          3D

 19 19  0  0  1  0  0  0  0  0999 V2000
    1.1787   -8.0297    3.5154 Cl  0  0  0  0  0  0  0  0  0  0  0  0
    0.7279   -9.0023    2.8722 C   0  0  1  0  0  0  0  0  0  0  0  0
    1.3852  -10.2194    3.0621 C   0  0  0  0  0  0  0  0  0  0  0  0
    1.9070  -10.5856    4.2215 C   0  0  0  0  0  0  0  0  0  0  0  0
    2.3356  -11.9512    4.4039 C   0  0  0  0  0  0  0  0  0  0  0  0
    1.2767  -11.2372    2.0169 C   0  0  0  0  0  0  0  0  0  0  0  0
    1.7640  -12.5091    2.1330 C   0  0  0  0  0  0  0  0  0  0  0  0
    2.2738  -12.9382    3.3772 C   0  0  0  0  0  0  0  0  0  0  0  0
   -0.7611   -9.1991    3.3071 C   0  0  1  0  0  0  0  0  0  0  0  0
   -1.0347   -9.4185    4.4655 O   0  0  0  0  0  0  0  0  0  0  0  0
    2.5681  -14.1830    3.6144 O   0  0  0  0  0  0  0  0  0  0  0  0
   -1.5508   -8.1306    2.6591 C   0  0  0  0  0  0  0  0  0  0  0  0
   -1.5340   -7.9918    1.4327 C   0  0  0  0  0  0  0  0  0  0  0  0
   -0.9930   -9.1269    0.6232 C   0  0  0  0  0  0  0  0  0  0  0  0
   -0.9976   -8.9614   -0.8406 C   0  0  1  0  0  0  0  0  0  0  0  0
   -0.6174   -7.9262   -1.4680 C   0  0  0  0  0  0  0  0  0  0  0  0
   -1.0041   -7.8924   -2.7448 O   0  0  0  0  0  0  0  0  0  0  0  0
   -0.0928   -7.0109   -0.9323 O   0  0  0  0  0  0  0  0  0  0  0  0
   -1.4063  -10.1251   -1.4350 C   0  0  0  0  0  0  0  0  0  0  0  0
  2  1  1  1
  2  3  1  0
  3  4  1  0
  3  6  1  0
  5  8  1  0
  7  8  1  0
  2  9  1  0
  9 10  1  1
  8 11  2  0
  9 12  1  0
 12 13  2  3
 13 14  1  0
 14 15  1  0
 15 16  1  0
 16 17  2  0
 16 18  1  0
 15 19  1  6
  4  5  1  0
  6  7  1  0
M  END

$$$$
No_711-/export/home/yangzhenyu/potential_scad_32_flow//YTHDC2/2024-12-06-03-22-00/
     RDKit          3D

 20 21  0  0  1  0  0  0  0  0999 V2000
    1.1787   -8.0297    3.5154 C   0  0  0  0  0  0  0  0  0  0  0  0
    1.1048   -9.2215    3.2892 C   0  0  1  0  0  0  0  0  0  0  0  0
    1.2339   -9.7611    2.0189 C   0  0  0  0  0  0  0  0  0  0  0  0
    1.1954  -11.2312    1.8661 C   0  0  2  0  0  0  0  0  0  0  0  0
    1.2996  -11.5815    0.5387 C   0  0  0  0  0  0  0  0  0  0  0  0
    1.3263   -7.1208    2.3229 C   0  0  1  0  0  0  0  0  0  0  0  0
    1.3693   -7.6408    1.0625 C   0  0  0  0  0  0  0  0  0  0  0  0
    1.4358   -8.9950    0.8622 N   0  0  0  0  0  0  0  0  0  0  0  0
    0.9157  -11.9771    2.8537 C   0  0  0  0  0  0  0  0  0  0  0  0
    1.9025  -12.6170    3.4574 C   0  0  0  0  0  0  0  0  0  0  0  0
    1.3736   -5.5078    2.5362 C   0  0  0  0  0  0  0  0  0  0  0  0
    1.6240  -12.7836    0.3616 O   0  0  0  0  0  0  0  0  0  0  0  0
    1.5417   -6.9032    0.0415 O   0  0  0  0  0  0  0  0  0  0  0  0
    0.3925  -11.1915   -0.3809 O   0  0  0  0  0  0  0  0  0  0  0  0
    2.7090  -11.9830    4.1200 C   0  0  0  0  0  0  0  0  0  0  0  0
    2.2691  -11.1884    5.2422 P   0  0  2  0  0  0  0  0  0  0  0  0
    1.1312  -11.8414    5.7578 O   0  0  0  0  0  0  0  0  0  0  0  0
    1.9041   -9.7319    4.8995 O   0  0  0  0  0  0  0  0  0  0  0  0
    3.1819  -10.7393    6.3336 O   0  0  0  0  0  0  0  0  0  0  0  0
    0.7918   -4.7070    1.6606 O   0  0  0  0  0  0  0  0  0  0  0  0
  2  1  1  6
  3  4  1  0
  4  5  1  6
  6  7  1  0
  3  8  1  0
  7  8  1  0
  4  9  1  0
  9 10  1  0
  6 11  1  6
  5 12  2  0
  7 13  2  0
  5 14  1  0
 10 15  1  0
 15 16  1  0
 16 17  1  1
  2 18  1  0
 16 18  1  0
 16 19  2  0
 11 20  2  0
  1  6  1  0
  2  3  1  0
M  END

$$$$
No_712-/export/home/yangzhenyu/potential_scad_32_flow//YTHDC2/2024-12-06-03-22-00/
     RDKit          3D

 19 19  0  0  1  0  0  0  0  0999 V2000
    1.1787   -8.0297    3.5154 C   0  0  0  0  0  0  0  0  0  0  0  0
    1.0491   -6.8434    2.9820 C   0  0  0  0  0  0  0  0  0  0  0  0
    1.9985   -8.9840    2.8958 C   0  0  2  0  0  0  0  0  0  0  0  0
    1.7297   -9.2108    1.6335 C   0  0  0  0  0  0  0  0  0  0  0  0
    1.7343   -8.0566    0.8408 C   0  0  0  0  0  0  0  0  0  0  0  0
    1.0269   -6.8892    1.4456 C   0  0  2  0  0  0  0  0  0  0  0  0
    1.7596   -8.0979   -0.4723 O   0  0  0  0  0  0  0  0  0  0  0  0
    2.2829  -10.2174    3.6488 C   0  0  0  0  0  0  0  0  0  0  0  0
    1.7832  -11.1599    3.8758 O   0  0  0  0  0  0  0  0  0  0  0  0
    3.6225  -10.2725    4.2539 O   0  0  0  0  0  0  0  0  0  0  0  0
    0.8572   -5.6525    3.4790 O   0  0  0  0  0  0  0  0  0  0  0  0
    2.0635  -10.3264    0.9698 O   0  0  0  0  0  0  0  0  0  0  0  0
    0.9828   -5.7146    0.7646 Cl  0  0  0  0  0  0  0  0  0  0  0  0
    3.8635  -11.2928    5.1422 C   0  0  0  0  0  0  0  0  0  0  0  0
    5.3502  -11.1689    5.2234 C   0  0  0  0  0  0  0  0  0  0  0  0
    5.9291  -10.0144    4.5951 O   0  0  0  0  0  0  0  0  0  0  0  0
    6.7856  -10.4726    3.3915 C   0  0  0  0  0  0  0  0  0  0  0  0
    7.4146   -9.2975    2.8384 C   0  0  0  0  0  0  0  0  0  0  0  0
    6.5686   -8.2873    2.5071 O   0  0  0  0  0  0  0  0  0  0  0  0
  1  2  1  0
  1  3  1  0
  3  4  1  0
  4  5  1  0
  2  6  1  0
  5  6  1  0
  5  7  2  0
  3  8  1  1
  8  9  2  0
  8 10  1  0
  2 11  2  0
  4 12  2  0
  6 13  1  6
 10 14  1  0
 14 15  1  0
 15 16  1  0
 16 17  1  0
 17 18  1  0
 18 19  2  0
M  END

$$$$
No_713-/export/home/yangzhenyu/potential_scad_32_flow//YTHDC2/2024-12-06-03-22-00/
     RDKit          3D

 19 19  0  0  1  0  0  0  0  0999 V2000
    1.1787   -8.0297    3.5154 C   0  0  0  0  0  0  0  0  0  0  0  0
    1.0491   -6.8434    2.9820 C   0  0  0  0  0  0  0  0  0  0  0  0
    0.9905   -9.0774    2.6527 C   0  0  0  0  0  0  0  0  0  0  0  0
    0.7897   -8.9519    1.3691 C   0  0  0  0  0  0  0  0  0  0  0  0
    0.7018   -7.7198    0.7892 C   0  0  0  0  0  0  0  0  0  0  0  0
    0.8918   -6.5957    1.6117 C   0  0  0  0  0  0  0  0  0  0  0  0
    1.0711  -10.4814    3.2282 C   0  0  2  0  0  0  0  0  0  0  0  0
    2.1432  -11.0138    3.5962 C   0  0  0  0  0  0  0  0  0  0  0  0
   -0.0553  -11.2345    3.2840 C   0  0  0  0  0  0  0  0  0  0  0  0
   -0.1131  -12.4857    3.1636 O   0  0  0  0  0  0  0  0  0  0  0  0
   -1.2934  -10.5997    3.6465 C   0  0  0  0  0  0  0  0  0  0  0  0
    0.8641   -5.2712    1.1234 C   0  0  0  0  0  0  0  0  0  0  0  0
   -0.3224   -4.7436    0.7381 O   0  0  0  0  0  0  0  0  0  0  0  0
    1.7909   -4.4410    1.3143 O   0  0  0  0  0  0  0  0  0  0  0  0
    2.2217  -11.2572    4.7375 N   0  0  0  0  0  0  0  0  0  0  0  0
   -1.4031   -9.9255    4.9289 O   0  0  0  0  0  0  0  0  0  0  0  0
   -2.4267  -10.8628    3.1194 O   0  0  0  0  0  0  0  0  0  0  0  0
    3.0600  -11.2979    2.8590 N   0  0  0  0  0  0  0  0  0  0  0  0
    1.4563  -11.0301    5.3561 H   0  0  0  0  0  0  0  0  0  0  0  0
  3  7  1  0
  7  8  1  0
  7  9  1  6
  9 10  2  0
  9 11  1  0
  6 12  1  0
 12 13  2  0
 12 14  1  0
  8 15  2  0
 11 16  1  0
 11 17  2  0
  8 18  1  0
  1  2  2  0
  2  6  1  0
  5  6  2  0
  4  5  1  0
  3  4  2  0
  1  3  1  0
 15 19  1  0
M  END

$$$$
No_714-/export/home/yangzhenyu/potential_scad_32_flow//YTHDC2/2024-12-06-03-22-00/
     RDKit          3D

 18 19  0  0  0  0  0  0  0  0999 V2000
    1.1787   -8.0297    3.5154 C   0  0  0  0  0  0  0  0  0  0  0  0
    1.0491   -6.8434    2.9820 C   0  0  0  0  0  0  0  0  0  0  0  0
    0.9905   -9.0774    2.6527 C   0  0  0  0  0  0  0  0  0  0  0  0
    1.1655  -10.4663    3.1286 C   0  0  0  0  0  0  0  0  0  0  0  0
    1.2197  -11.4898    2.5831 C   0  0  0  0  0  0  0  0  0  0  0  0
    1.0589  -11.4458    1.1293 C   0  0  0  0  0  0  0  0  0  0  0  0
    0.9638  -10.3069    0.4651 C   0  0  0  0  0  0  0  0  0  0  0  0
    0.9191   -9.0789    1.1942 C   0  0  0  0  0  0  0  0  0  0  0  0
    0.9198   -7.8339    0.6158 F   0  0  0  0  0  0  0  0  0  0  0  0
    1.3715  -12.8040    3.0762 C   0  0  0  0  0  0  0  0  0  0  0  0
    0.2460  -13.7499    2.9087 N   0  0  0  0  0  0  0  0  0  0  0  0
    0.6445  -15.0722    3.2196 C   0  0  0  0  0  0  0  0  0  0  0  0
   -0.2595  -16.0357    3.2538 C   0  0  0  0  0  0  0  0  0  0  0  0
   -1.4950  -15.8097    2.8130 C   0  0  0  0  0  0  0  0  0  0  0  0
   -1.8615  -14.4933    2.4458 C   0  0  0  0  0  0  0  0  0  0  0  0
   -0.9182  -13.4913    2.3916 C   0  0  0  0  0  0  0  0  0  0  0  0
    0.0515   -6.1494    2.6926 O   0  0  0  0  0  0  0  0  0  0  0  0
    2.1544   -5.8291    3.2377 O   0  0  0  0  0  0  0  0  0  0  0  0
  1  2  1  0
  8  9  1  0
  5 10  1  0
 10 11  1  0
 11 12  1  0
 12 13  1  0
 14 15  1  0
 11 16  1  0
 15 16  1  0
  2 17  2  0
  2 18  1  0
  1  3  1  0
 13 14  1  0
  3  4  2  0
  4  5  1  0
  5  6  2  0
  6  7  1  0
  7  8  2  0
  3  8  1  0
M  END

$$$$
No_715-/export/home/yangzhenyu/potential_scad_32_flow//YTHDC2/2024-12-06-03-22-00/
     RDKit          3D

 20 20  0  0  1  0  0  0  0  0999 V2000
    1.1787   -8.0297    3.5154 C   0  0  0  0  0  0  0  0  0  0  0  0
    1.0491   -6.8434    2.9820 C   0  0  0  0  0  0  0  0  0  0  0  0
    1.9985   -8.9840    2.8958 C   0  0  2  0  0  0  0  0  0  0  0  0
    1.7297   -9.2108    1.6335 C   0  0  0  0  0  0  0  0  0  0  0  0
    1.7343   -8.0566    0.8408 C   0  0  2  0  0  0  0  0  0  0  0  0
    1.0269   -6.8892    1.4456 C   0  0  0  0  0  0  0  0  0  0  0  0
    1.7596   -8.0979   -0.4723 C   0  0  0  0  0  0  0  0  0  0  0  0
    0.8317   -7.8698   -1.2086 C   0  0  0  0  0  0  0  0  0  0  0  0
    3.0401   -8.5152   -1.1114 C   0  0  0  0  0  0  0  0  0  0  0  0
    3.1390   -9.2972   -1.9061 O   0  0  0  0  0  0  0  0  0  0  0  0
    2.3780  -10.1589    3.6637 C   0  0  0  0  0  0  0  0  0  0  0  0
    1.4567  -10.9135    4.2628 O   0  0  0  0  0  0  0  0  0  0  0  0
    3.5983  -10.5274    3.8846 O   0  0  0  0  0  0  0  0  0  0  0  0
    0.8909   -5.6403    3.5308 O   0  0  0  0  0  0  0  0  0  0  0  0
    0.7574   -5.7374    0.8684 O   0  0  0  0  0  0  0  0  0  0  0  0
    4.1442   -7.9048   -0.6556 O   0  0  0  0  0  0  0  0  0  0  0  0
    1.9298  -10.3842    1.1003 O   0  0  0  0  0  0  0  0  0  0  0  0
   -0.4291   -8.5918   -0.9416 C   0  0  0  0  0  0  0  0  0  0  0  0
   -1.6216   -8.2352   -1.6837 C   0  0  0  0  0  0  0  0  0  0  0  0
   -1.6183   -7.3517   -2.6975 C   0  0  0  0  0  0  0  0  0  0  0  0
  1  2  1  0
  1  3  1  0
  3  4  1  0
  4  5  1  0
  2  6  1  0
  5  6  1  0
  5  7  1  6
  7  8  2  3
  7  9  1  0
  9 10  2  0
  3 11  1  1
 11 12  2  0
 11 13  1  0
  2 14  2  0
  6 15  2  0
  9 16  1  0
  4 17  2  0
  8 18  1  0
 18 19  2  3
 19 20  1  0
M  END

$$$$
No_716-/export/home/yangzhenyu/potential_scad_32_flow//YTHDC2/2024-12-06-03-22-00/
     RDKit          3D

 20 20  0  0  1  0  0  0  0  0999 V2000
    1.1787   -8.0297    3.5154 C   0  0  0  0  0  0  0  0  0  0  0  0
    1.0491   -6.8434    2.9820 C   0  0  0  0  0  0  0  0  0  0  0  0
    1.9985   -8.9840    2.8958 C   0  0  2  0  0  0  0  0  0  0  0  0
    1.7297   -9.2108    1.6335 C   0  0  0  0  0  0  0  0  0  0  0  0
    1.5234   -8.1478    0.8618 C   0  0  2  0  0  0  0  0  0  0  0  0
    1.0558   -6.9632    1.4912 C   0  0  2  0  0  0  0  0  0  0  0  0
    2.0857  -10.3821    3.6499 C   0  0  0  0  0  0  0  0  0  0  0  0
    1.5019  -11.4599    3.6088 O   0  0  0  0  0  0  0  0  0  0  0  0
    3.2345  -10.3797    4.5066 N   0  0  0  0  0  0  0  0  0  0  0  0
    1.5494   -8.0340   -0.5248 O   0  0  0  0  0  0  0  0  0  0  0  0
    0.8494   -5.6824    3.4989 O   0  0  0  0  0  0  0  0  0  0  0  0
    0.9096   -8.9871   -1.2612 C   0  0  0  0  0  0  0  0  0  0  0  0
   -0.4702   -8.6891   -1.2373 C   0  0  0  0  0  0  0  0  0  0  0  0
   -0.8802   -7.7551   -1.8522 O   0  0  0  0  0  0  0  0  0  0  0  0
   -1.2020   -9.4415   -0.4733 O   0  0  0  0  0  0  0  0  0  0  0  0
    3.4710  -11.6201    5.2227 C   0  0  0  0  0  0  0  0  0  0  0  0
    5.0202  -11.4756    5.2883 C   0  0  0  0  0  0  0  0  0  0  0  0
    0.6246   -5.6925    0.7190 O   0  0  0  0  0  0  0  0  0  0  0  0
   -2.4153   -9.0379    0.0321 C   0  0  0  0  0  0  0  0  0  0  0  0
   -2.9292  -10.0829    0.9167 C   0  0  0  0  0  0  0  0  0  0  0  0
  1  2  1  0
  1  3  1  0
  4  5  1  0
  2  6  1  0
  3  7  1  1
  7  8  2  0
  7  9  1  0
  5 10  1  6
  2 11  2  0
 10 12  1  0
 12 13  1  0
 13 14  2  0
 13 15  1  0
  9 16  1  0
 16 17  1  0
  6 18  1  6
 15 19  1  0
 19 20  1  0
  3  4  1  0
  5  6  1  0
M  END

$$$$
No_717-/export/home/yangzhenyu/potential_scad_32_flow//YTHDC2/2024-12-06-03-22-00/
     RDKit          3D

 20 21  0  0  1  0  0  0  0  0999 V2000
    1.1787   -8.0297    3.5154 C   0  0  0  0  0  0  0  0  0  0  0  0
    1.0491   -6.8434    2.9820 C   0  0  1  0  0  0  0  0  0  0  0  0
    0.9905   -9.0774    2.6527 C   0  0  0  0  0  0  0  0  0  0  0  0
    0.7897   -8.9519    1.3691 C   0  0  0  0  0  0  0  0  0  0  0  0
    0.7018   -7.7198    0.7892 C   0  0  0  0  0  0  0  0  0  0  0  0
    1.4312   -5.5794    3.7443 O   0  0  0  0  0  0  0  0  0  0  0  0
    0.9501   -6.6506    1.5469 C   0  0  0  0  0  0  0  0  0  0  0  0
    1.0481  -10.6582    3.3647 C   0  0  1  0  0  0  0  0  0  0  0  0
   -0.1073  -11.2222    3.4503 C   0  0  0  0  0  0  0  0  0  0  0  0
   -1.2473  -10.4860    3.8086 O   0  0  0  0  0  0  0  0  0  0  0  0
   -0.2606  -12.4500    3.2738 O   0  0  0  0  0  0  0  0  0  0  0  0
    0.9169   -5.3201    1.1309 O   0  0  0  0  0  0  0  0  0  0  0  0
    2.0731  -11.3872    2.7383 C   0  0  0  0  0  0  0  0  0  0  0  0
    1.7340  -12.2948    2.0125 C   0  0  2  0  0  0  0  0  0  0  0  0
    2.0172  -13.6009    2.2972 C   0  0  0  0  0  0  0  0  0  0  0  0
    1.6051  -14.6844    1.2590 C   0  0  0  0  0  0  0  0  0  0  0  0
    1.0726  -14.1232    0.1063 C   0  0  0  0  0  0  0  0  0  0  0  0
    0.8509  -12.8203   -0.1414 C   0  0  0  0  0  0  0  0  0  0  0  0
    1.1621  -11.9255    0.7412 C   0  0  0  0  0  0  0  0  0  0  0  0
    1.3661  -15.7524    1.9304 O   0  0  0  0  0  0  0  0  0  0  0  0
  1  2  1  0
  3  4  1  0
  2  6  1  6
  2  7  1  0
  5  7  1  0
  3  8  1  0
  8  9  1  0
  9 10  1  0
  9 11  2  0
  7 12  2  0
  8 13  1  6
 14 13  1  6
 14 15  1  0
 15 16  1  0
 16 17  1  0
 14 19  1  0
 18 19  1  0
 16 20  2  0
 17 18  1  0
  1  3  1  0
  4  5  1  0
M  END

$$$$
No_718-/export/home/yangzhenyu/potential_scad_32_flow//YTHDC2/2024-12-06-03-22-00/
     RDKit          3D

 18 19  0  0  1  0  0  0  0  0999 V2000
    1.1787   -8.0297    3.5154 O   0  0  0  0  0  0  0  0  0  0  0  0
    0.9969   -8.9689    3.0048 C   0  0  2  0  0  0  0  0  0  0  0  0
    0.9976   -8.9567    1.6341 C   0  0  1  0  0  0  0  0  0  0  0  0
    0.7663   -7.7728    1.0082 C   0  0  2  0  0  0  0  0  0  0  0  0
    0.5873   -6.9953    1.8663 C   0  0  0  0  0  0  0  0  0  0  0  0
    1.1431   -6.7077    3.0271 C   0  0  0  0  0  0  0  0  0  0  0  0
    0.4644   -7.6921   -0.1945 C   0  0  0  0  0  0  0  0  0  0  0  0
    1.1174   -8.5162   -1.1913 C   0  0  0  0  0  0  0  0  0  0  0  0
    1.8726   -9.9097    1.1518 C   0  0  0  0  0  0  0  0  0  0  0  0
    1.8667  -10.1498   -0.3016 C   0  0  0  0  0  0  0  0  0  0  0  0
    1.1236   -9.8216   -0.9996 C   0  0  0  0  0  0  0  0  0  0  0  0
    0.2751   -9.9226    3.6617 C   0  0  2  0  0  0  0  0  0  0  0  0
    0.7714  -11.1023    4.0489 C   0  0  0  0  0  0  0  0  0  0  0  0
   -1.0964   -9.7812    3.9398 C   0  0  0  0  0  0  0  0  0  0  0  0
    1.4334  -11.9051    3.3739 C   0  0  0  0  0  0  0  0  0  0  0  0
   -2.1300  -10.6101    3.7163 O   0  0  0  0  0  0  0  0  0  0  0  0
   -1.7517   -8.4546    4.0161 O   0  0  0  0  0  0  0  0  0  0  0  0
    0.9206  -12.7906    2.4825 C   0  0  0  0  0  0  0  0  0  0  0  0
  2  1  1  1
  2  3  1  0
  3  4  1  0
  4  5  1  1
  1  6  1  0
  5  6  1  0
  4  7  1  0
  7  8  1  0
  3  9  1  1
  9 10  1  0
  8 11  1  0
 10 11  1  0
  2 12  1  0
 12 13  1  6
 12 14  1  0
 13 15  1  0
 14 16  2  0
 14 17  1  0
 15 18  1  0
M  END

$$$$
No_719-/export/home/yangzhenyu/potential_scad_32_flow//YTHDC2/2024-12-06-03-22-00/
     RDKit          3D

 19 19  0  0  1  0  0  0  0  0999 V2000
    1.1787   -8.0297    3.5154 C   0  0  0  0  0  0  0  0  0  0  0  0
    1.0491   -6.8434    2.9820 C   0  0  0  0  0  0  0  0  0  0  0  0
    0.0950   -8.8404    3.2292 C   0  0  1  0  0  0  0  0  0  0  0  0
   -0.9173   -8.4596    2.5152 C   0  0  0  0  0  0  0  0  0  0  0  0
   -0.8043   -7.0775    2.1508 C   0  0  2  0  0  0  0  0  0  0  0  0
    0.0928   -6.2803    2.3573 C   0  0  2  0  0  0  0  0  0  0  0  0
    0.2231   -4.9448    1.9326 C   0  0  0  0  0  0  0  0  0  0  0  0
   -0.3141   -4.0744    2.2994 O   0  0  0  0  0  0  0  0  0  0  0  0
    0.7070   -4.7798    0.6231 O   0  0  0  0  0  0  0  0  0  0  0  0
    0.2014  -10.4762    3.7092 Cl  0  0  0  0  0  0  0  0  0  0  0  0
   -2.1609   -6.7093    1.5327 C   0  0  0  0  0  0  0  0  0  0  0  0
   -3.1443   -6.2639    2.0391 C   0  0  0  0  0  0  0  0  0  0  0  0
   -4.3172   -5.9725    1.3275 C   0  0  0  0  0  0  0  0  0  0  0  0
   -5.2229   -5.2648    1.8923 C   0  0  0  0  0  0  0  0  0  0  0  0
   -5.1832   -4.9524    3.2826 C   0  0  0  0  0  0  0  0  0  0  0  0
   -4.1346   -5.2081    4.0886 Cl  0  0  0  0  0  0  0  0  0  0  0  0
   -4.4050   -6.1483    0.0005 Cl  0  0  0  0  0  0  0  0  0  0  0  0
   -6.4969   -4.3857    3.8679 O   0  0  0  0  0  0  0  0  0  0  0  0
    2.3322   -6.0630    3.1995 O   0  0  0  0  0  0  0  0  0  0  0  0
  1  2  1  0
  3  4  1  0
  2  6  1  0
  5  6  1  0
  6  7  1  6
  7  8  2  0
  7  9  1  0
  3 10  1  6
  5 11  1  0
 11 12  2  3
 12 13  1  0
 13 14  2  3
 14 15  1  0
 15 16  1  0
 13 17  1  0
 15 18  2  0
  2 19  2  0
  1  3  1  0
  5  4  1  1
M  END

$$$$
No_720-/export/home/yangzhenyu/potential_scad_32_flow//YTHDC2/2024-12-06-03-22-00/
     RDKit          3D

 20 20  0  0  1  0  0  0  0  0999 V2000
    1.1787   -8.0297    3.5154 C   0  0  0  0  0  0  0  0  0  0  0  0
    1.0491   -6.8434    2.9820 C   0  0  0  0  0  0  0  0  0  0  0  0
    0.0950   -8.8404    3.2292 N   0  0  0  0  0  0  0  0  0  0  0  0
    0.7571   -6.7649    1.5728 C   0  0  0  0  0  0  0  0  0  0  0  0
   -0.1535   -7.5901    1.1767 C   0  0  1  0  0  0  0  0  0  0  0  0
   -0.3968   -7.5119   -0.1619 C   0  0  0  0  0  0  0  0  0  0  0  0
   -0.2739   -8.8272    1.8208 C   0  0  0  0  0  0  0  0  0  0  0  0
    0.2485   -8.3632   -1.0751 C   0  0  0  0  0  0  0  0  0  0  0  0
    1.5116   -8.9019   -0.6076 C   0  0  0  0  0  0  0  0  0  0  0  0
    2.7367   -8.3487   -0.9883 O   0  0  0  0  0  0  0  0  0  0  0  0
    1.7662  -10.0597   -0.1106 O   0  0  0  0  0  0  0  0  0  0  0  0
   -0.2104   -9.9789    4.1364 C   0  0  0  0  0  0  0  0  0  0  0  0
   -1.3888  -10.4610    4.0706 O   0  0  0  0  0  0  0  0  0  0  0  0
    0.6792  -10.5012    4.9751 N   0  0  0  0  0  0  0  0  0  0  0  0
   -1.3064   -9.6779    1.4959 O   0  0  0  0  0  0  0  0  0  0  0  0
    2.0081  -10.7282    4.4824 C   0  0  0  0  0  0  0  0  0  0  0  0
    2.1984  -11.3315    3.2268 C   0  0  0  0  0  0  0  0  0  0  0  0
    1.5710  -12.4894    2.9797 C   0  0  0  0  0  0  0  0  0  0  0  0
    1.9262  -13.2139    2.1397 C   0  0  0  0  0  0  0  0  0  0  0  0
    2.7759  -12.6998    1.0298 C   0  0  0  0  0  0  0  0  0  0  0  0
  1  2  1  0
  1  3  1  0
  2  4  1  0
  4  5  1  0
  5  6  1  6
  3  7  1  0
  5  7  1  0
  6  8  1  0
  8  9  1  0
  9 10  2  0
  9 11  1  0
  3 12  1  0
 12 13  2  0
 12 14  1  0
  7 15  2  0
 14 16  1  0
 16 17  1  0
 17 18  1  0
 18 19  2  3
 19 20  1  0
M  END

$$$$
No_721-/export/home/yangzhenyu/potential_scad_32_flow//YTHDC2/2024-12-06-03-22-00/
     RDKit          3D

 18 18  0  0  0  0  0  0  0  0999 V2000
    1.1787   -8.0297    3.5154 C   0  0  0  0  0  0  0  0  0  0  0  0
    1.1048   -9.2215    3.2892 C   0  0  0  0  0  0  0  0  0  0  0  0
    1.3627  -10.1721    4.3044 C   0  0  0  0  0  0  0  0  0  0  0  0
    1.7354  -11.4730    3.9023 C   0  0  0  0  0  0  0  0  0  0  0  0
    1.8080  -11.8127    2.7216 C   0  0  0  0  0  0  0  0  0  0  0  0
    1.5854  -11.0021    1.7249 C   0  0  0  0  0  0  0  0  0  0  0  0
    1.3573   -9.7389    1.9287 C   0  0  0  0  0  0  0  0  0  0  0  0
    1.1102   -8.8712    0.9017 C   0  0  0  0  0  0  0  0  0  0  0  0
    0.5299   -7.6926    1.0325 O   0  0  0  0  0  0  0  0  0  0  0  0
    1.3970   -9.2634   -0.4035 C   0  0  0  0  0  0  0  0  0  0  0  0
    1.5131   -8.5990   -1.3507 O   0  0  0  0  0  0  0  0  0  0  0  0
    2.1085  -13.2165    2.3624 O   0  0  0  0  0  0  0  0  0  0  0  0
    1.7411  -14.2760    3.0133 C   0  0  0  0  0  0  0  0  0  0  0  0
    2.4693   -7.3330    3.5311 C   0  0  0  0  0  0  0  0  0  0  0  0
    2.0644   -5.9651    3.4374 O   0  0  0  0  0  0  0  0  0  0  0  0
    1.1071  -15.2712    2.1653 C   0  0  0  0  0  0  0  0  0  0  0  0
    1.1618  -16.4853    2.6677 O   0  0  0  0  0  0  0  0  0  0  0  0
    0.2005  -14.8830    1.4029 O   0  0  0  0  0  0  0  0  0  0  0  0
  1  2  1  0
  7  8  1  0
  8  9  2  0
  8 10  1  0
 10 11  2  0
  5 12  1  0
 12 13  1  0
  1 14  1  0
 14 15  1  0
 13 16  1  0
 16 17  2  0
 16 18  1  0
  2  3  2  0
  3  4  1  0
  4  5  2  0
  5  6  1  0
  6  7  2  0
  2  7  1  0
M  END

$$$$
No_722-/export/home/yangzhenyu/potential_scad_32_flow//YTHDC2/2024-12-06-03-22-00/
     RDKit          3D

 18 18  0  0  1  0  0  0  0  0999 V2000
    1.1787   -8.0297    3.5154 C   0  0  0  0  0  0  0  0  0  0  0  0
    1.1048   -9.2215    3.2892 P   0  0  2  0  0  0  0  0  0  0  0  0
    0.3106   -9.8009    2.8787 C   0  0  0  0  0  0  0  0  0  0  0  0
    0.8252   -6.9866    2.4791 C   0  0  0  0  0  0  0  0  0  0  0  0
   -0.0267   -7.5875    1.6093 C   0  0  1  0  0  0  0  0  0  0  0  0
   -0.3997   -8.9896    1.6200 C   0  0  0  0  0  0  0  0  0  0  0  0
    1.4543  -10.0024    4.7572 O   0  0  0  0  0  0  0  0  0  0  0  0
   -0.8352   -6.7656    0.8161 C   0  0  0  0  0  0  0  0  0  0  0  0
   -0.7116   -5.4472    0.9080 O   0  0  0  0  0  0  0  0  0  0  0  0
   -1.4823   -7.2149   -0.1884 N   0  0  0  0  0  0  0  0  0  0  0  0
   -2.2510   -6.3985   -1.0632 C   0  0  0  0  0  0  0  0  0  0  0  0
   -3.3653   -5.9933   -0.7550 C   0  0  0  0  0  0  0  0  0  0  0  0
    2.6280   -9.8102    2.6467 O   0  0  0  0  0  0  0  0  0  0  0  0
   -4.1676   -6.6616   -0.0114 C   0  0  0  0  0  0  0  0  0  0  0  0
   -4.5530   -7.9036   -0.3310 C   0  0  0  0  0  0  0  0  0  0  0  0
   -4.6603   -8.9084    0.6223 C   0  0  0  0  0  0  0  0  0  0  0  0
   -4.7765   -8.4848    1.9684 C   0  0  0  0  0  0  0  0  0  0  0  0
   -4.4210   -7.2005    2.3781 C   0  0  0  0  0  0  0  0  0  0  0  0
  1  2  1  0
  2  3  1  0
  1  4  2  0
  4  5  1  0
  3  6  1  0
  5  6  1  0
  2  7  2  0
  5  8  1  1
  8  9  2  0
  8 10  1  0
 10 11  1  0
 11 12  1  0
  2 13  1  6
 12 14  1  0
 14 15  1  0
 15 16  2  3
 16 17  1  0
 17 18  2  0
M  END

$$$$
No_723-/export/home/yangzhenyu/potential_scad_32_flow//YTHDC2/2024-12-06-03-22-00/
     RDKit          3D

 19 19  0  0  1  0  0  0  0  0999 V2000
    1.1787   -8.0297    3.5154 C   0  0  0  0  0  0  0  0  0  0  0  0
    1.0491   -6.8434    2.9820 C   0  0  1  0  0  0  0  0  0  0  0  0
    1.9985   -8.9840    2.8958 C   0  0  2  0  0  0  0  0  0  0  0  0
    1.7297   -9.2108    1.6335 C   0  0  0  0  0  0  0  0  0  0  0  0
    1.7343   -8.0566    0.8408 C   0  0  2  0  0  0  0  0  0  0  0  0
    1.0269   -6.8892    1.4456 C   0  0  0  0  0  0  0  0  0  0  0  0
    2.0740   -7.9416   -0.3682 C   0  0  0  0  0  0  0  0  0  0  0  0
    2.2588   -9.0634   -1.1089 O   0  0  0  0  0  0  0  0  0  0  0  0
    1.9233  -10.3831    3.5649 C   0  0  0  0  0  0  0  0  0  0  0  0
    0.9771  -11.0864    3.7290 C   0  0  0  0  0  0  0  0  0  0  0  0
    1.0374  -12.4614    3.7288 O   0  0  0  0  0  0  0  0  0  0  0  0
   -0.2521  -10.5886    3.8681 O   0  0  0  0  0  0  0  0  0  0  0  0
    2.0071   -7.1612   -1.1670 O   0  0  0  0  0  0  0  0  0  0  0  0
    0.6705   -5.6959    3.4876 F   0  0  0  0  0  0  0  0  0  0  0  0
    1.9409  -10.3532    1.0299 O   0  0  0  0  0  0  0  0  0  0  0  0
    1.0048  -13.2640    2.6228 C   0  0  0  0  0  0  0  0  0  0  0  0
    1.9629  -14.1592    2.4469 C   0  0  0  0  0  0  0  0  0  0  0  0
    1.8930  -15.2705    3.0085 C   0  0  0  0  0  0  0  0  0  0  0  0
    2.6408  -16.4308    2.5812 C   0  0  0  0  0  0  0  0  0  0  0  0
  1  2  1  0
  1  3  1  0
  3  4  1  0
  4  5  1  0
  2  6  1  0
  5  6  1  0
  5  7  1  6
  7  8  1  0
  3  9  1  1
  9 10  1  0
 10 11  1  0
 10 12  2  0
  7 13  2  0
  2 14  1  1
  4 15  2  0
 11 16  1  0
 16 17  1  0
 17 18  1  0
 18 19  1  0
M  END

$$$$
No_724-/export/home/yangzhenyu/potential_scad_32_flow//YTHDC2/2024-12-06-03-22-00/
     RDKit          3D

 19 20  0  0  0  0  0  0  0  0999 V2000
    1.1787   -8.0297    3.5154 O   0  0  0  0  0  0  0  0  0  0  0  0
    0.6747   -7.4019    2.7838 C   0  0  0  0  0  0  0  0  0  0  0  0
    0.5570   -6.0797    2.8560 O   0  0  0  0  0  0  0  0  0  0  0  0
    0.6564   -7.9917    1.3044 C   0  0  0  0  0  0  0  0  0  0  0  0
   -0.1985   -7.7581    0.6948 C   0  0  0  0  0  0  0  0  0  0  0  0
   -0.3360   -8.4032   -0.6565 C   0  0  0  0  0  0  0  0  0  0  0  0
    0.6308   -9.2477   -1.0288 C   0  0  0  0  0  0  0  0  0  0  0  0
    1.7073   -9.5758   -0.0881 C   0  0  0  0  0  0  0  0  0  0  0  0
    1.7423   -8.9034    1.1256 C   0  0  0  0  0  0  0  0  0  0  0  0
   -1.4522   -8.1486   -1.4904 C   0  0  0  0  0  0  0  0  0  0  0  0
   -1.5138   -8.6294   -2.6979 O   0  0  0  0  0  0  0  0  0  0  0  0
   -2.5356   -7.5171   -1.1177 N   0  0  0  0  0  0  0  0  0  0  0  0
   -3.4426   -6.8898   -1.8999 C   0  0  0  0  0  0  0  0  0  0  0  0
   -4.5928   -7.1532   -1.9953 C   0  0  0  0  0  0  0  0  0  0  0  0
   -5.3692   -6.3917   -2.8402 C   0  0  0  0  0  0  0  0  0  0  0  0
   -6.6040   -6.6587   -2.8147 C   0  0  0  0  0  0  0  0  0  0  0  0
   -7.0973   -7.7175   -1.9870 C   0  0  0  0  0  0  0  0  0  0  0  0
   -6.2718   -8.4213   -1.2074 C   0  0  0  0  0  0  0  0  0  0  0  0
   -4.8822   -8.1685   -1.1274 C   0  0  0  0  0  0  0  0  0  0  0  0
  1  2  1  0
  2  3  2  0
  2  4  1  0
  6 10  1  0
 10 11  2  0
 10 12  1  0
 12 13  1  0
 13 14  1  0
 14 15  2  0
 15 16  1  0
 16 17  2  0
 17 18  1  0
 18 19  2  0
 14 19  1  0
  4  5  2  0
  5  6  1  0
  6  7  2  0
  7  8  1  0
  8  9  2  0
  4  9  1  0
M  END

$$$$
No_725-/export/home/yangzhenyu/potential_scad_32_flow//YTHDC2/2024-12-06-03-22-00/
     RDKit          3D

 19 20  0  0  1  0  0  0  0  0999 V2000
    1.1787   -8.0297    3.5154 O   0  0  0  0  0  0  0  0  0  0  0  0
    0.9969   -8.9689    3.0048 C   0  0  0  0  0  0  0  0  0  0  0  0
    1.4315  -10.1310    3.5523 C   0  0  1  0  0  0  0  0  0  0  0  0
    2.1355  -10.3303    4.5214 C   0  0  0  0  0  0  0  0  0  0  0  0
    0.8250   -8.8597    1.5800 N   0  0  0  0  0  0  0  0  0  0  0  0
    0.4498   -7.6158    1.0397 C   0  0  0  0  0  0  0  0  0  0  0  0
   -0.8387   -7.6078    0.5892 C   0  0  0  0  0  0  0  0  0  0  0  0
   -1.3480   -6.3523    0.2291 C   0  0  0  0  0  0  0  0  0  0  0  0
   -2.4684   -6.1103   -0.3946 C   0  0  0  0  0  0  0  0  0  0  0  0
   -3.0405   -7.1829   -1.0143 C   0  0  0  0  0  0  0  0  0  0  0  0
   -2.5868   -8.4542   -0.8817 C   0  0  0  0  0  0  0  0  0  0  0  0
   -1.4278   -8.6789   -0.0574 C   0  0  0  0  0  0  0  0  0  0  0  0
    1.4905   -6.7311    1.0308 O   0  0  0  0  0  0  0  0  0  0  0  0
    0.8235  -11.3546    3.0531 C   0  0  0  0  0  0  0  0  0  0  0  0
   -0.5246  -11.6715    3.3742 C   0  0  0  0  0  0  0  0  0  0  0  0
   -1.1649  -12.7644    2.7880 C   0  0  0  0  0  0  0  0  0  0  0  0
   -0.4808  -13.6527    2.1140 C   0  0  0  0  0  0  0  0  0  0  0  0
    0.9672  -13.4729    1.8088 C   0  0  0  0  0  0  0  0  0  0  0  0
    1.5709  -12.2798    2.2624 C   0  0  0  0  0  0  0  0  0  0  0  0
  1  2  2  0
  2  3  1  0
  3  4  1  1
  2  5  1  0
  5  6  1  0
  6  7  1  0
  6 13  2  0
  3 14  1  0
 14 15  2  0
 15 16  1  0
 16 17  2  0
 17 18  1  0
 18 19  2  0
 14 19  1  0
  7  8  2  0
  8  9  1  0
  9 10  2  0
 10 11  1  0
 11 12  2  0
  7 12  1  0
M  END

$$$$
No_726-/export/home/yangzhenyu/potential_scad_32_flow//YTHDC2/2024-12-06-03-22-00/
     RDKit          3D

 17 18  0  0  1  0  0  0  0  0999 V2000
    1.1787   -8.0297    3.5154 N   0  0  0  0  0  0  0  0  0  0  0  0
    0.8669   -7.0905    2.8589 C   0  0  0  0  0  0  0  0  0  0  0  0
    0.8842   -5.8387    3.2677 O   0  0  0  0  0  0  0  0  0  0  0  0
    0.6499   -7.3344    1.4157 C   0  0  1  0  0  0  0  0  0  0  0  0
   -0.0128   -6.5275    0.7497 C   0  0  0  0  0  0  0  0  0  0  0  0
    1.3510   -8.3954    0.8171 C   0  0  0  0  0  0  0  0  0  0  0  0
    1.3096   -8.6209   -0.4853 C   0  0  0  0  0  0  0  0  0  0  0  0
    0.3595   -7.8939   -1.2090 N   0  0  0  0  0  0  0  0  0  0  0  0
   -0.3403   -6.9039   -0.6023 C   0  0  0  0  0  0  0  0  0  0  0  0
   -1.2281   -6.1498   -1.3501 O   0  0  0  0  0  0  0  0  0  0  0  0
    2.2060   -9.3073    1.4892 O   0  0  0  0  0  0  0  0  0  0  0  0
    1.6374  -10.3712    1.9775 C   0  0  0  0  0  0  0  0  0  0  0  0
    0.9641  -11.2279    1.3214 C   0  0  0  0  0  0  0  0  0  0  0  0
    0.6486  -12.5056    1.9758 C   0  0  0  0  0  0  0  0  0  0  0  0
    0.9794  -12.7382    3.2410 C   0  0  0  0  0  0  0  0  0  0  0  0
    1.7227  -11.7700    4.0050 C   0  0  0  0  0  0  0  0  0  0  0  0
    2.1299  -10.5739    3.3588 C   0  0  0  0  0  0  0  0  0  0  0  0
  1  2  1  0
  2  3  2  0
  4  2  1  6
  4  6  1  0
  7  8  1  0
  5  9  1  0
  8  9  1  0
  9 10  2  0
  6 11  1  0
 11 12  1  0
  4  5  1  0
  6  7  1  0
 12 13  2  0
 13 14  1  0
 14 15  2  0
 15 16  1  0
 16 17  2  0
 12 17  1  0
M  END

$$$$
No_727-/export/home/yangzhenyu/potential_scad_32_flow//YTHDC2/2024-12-06-03-22-00/
     RDKit          3D

 22 23  0  0  0  0  0  0  0  0999 V2000
    1.1787   -8.0297    3.5154 C   0  0  0  0  0  0  0  0  0  0  0  0
    1.1048   -9.2215    3.2892 C   0  0  0  0  0  0  0  0  0  0  0  0
    1.0239   -9.7790    2.0239 S   0  0  0  0  0  0  0  0  0  0  0  0
    1.2841   -8.3687    1.2475 C   0  0  0  0  0  0  0  0  0  0  0  0
    1.4116   -7.3634    2.1993 C   0  0  0  0  0  0  0  0  0  0  0  0
    1.4138   -8.2234   -0.1707 C   0  0  0  0  0  0  0  0  0  0  0  0
    0.6032   -8.2453   -0.8270 C   0  0  0  0  0  0  0  0  0  0  0  0
   -0.8063   -8.3585   -0.5254 O   0  0  0  0  0  0  0  0  0  0  0  0
   -1.5091   -7.2467   -0.6205 C   0  0  0  0  0  0  0  0  0  0  0  0
    2.8851   -8.1338   -0.4767 I   0  0  0  0  0  0  0  0  0  0  0  0
    0.9359  -10.3149    4.5917 Cl  0  0  0  0  0  0  0  0  0  0  0  0
   -2.1900   -6.8581   -1.5187 C   0  0  0  0  0  0  0  0  0  0  0  0
   -2.3888   -7.6329   -2.5186 C   0  0  0  0  0  0  0  0  0  0  0  0
   -2.5283   -8.8952   -2.3860 C   0  0  0  0  0  0  0  0  0  0  0  0
   -3.2355   -9.5288   -1.3633 C   0  0  0  0  0  0  0  0  0  0  0  0
   -3.2046  -10.8566   -1.1213 C   0  0  0  0  0  0  0  0  0  0  0  0
   -2.7610  -11.7167   -2.1132 C   0  0  0  0  0  0  0  0  0  0  0  0
   -2.1561  -11.2220   -3.2276 C   0  0  0  0  0  0  0  0  0  0  0  0
   -2.0288   -9.8275   -3.4270 C   0  0  0  0  0  0  0  0  0  0  0  0
   -1.4199   -9.2815   -4.5998 O   0  0  0  0  0  0  0  0  0  0  0  0
   -1.3267   -6.4023    0.5928 O   0  0  0  0  0  0  0  0  0  0  0  0
   -2.7581  -13.0908   -1.9828 C   0  0  0  0  0  0  0  0  0  0  0  0
  1  2  2  0
  2  3  1  0
  3  4  1  0
  1  5  1  0
  4  5  2  0
  4  6  1  0
  6  7  2  3
  7  8  1  0
  8  9  1  0
  6 10  1  0
  2 11  1  0
  9 12  1  0
 12 13  2  3
 13 14  1  0
 19 20  1  0
  9 21  2  0
 17 22  1  0
 14 15  2  0
 15 16  1  0
 16 17  2  0
 17 18  1  0
 18 19  2  0
 14 19  1  0
M  END

$$$$
No_728-/export/home/yangzhenyu/potential_scad_32_flow//YTHDC2/2024-12-06-03-22-00/
     RDKit          3D

 19 20  0  0  1  0  0  0  0  0999 V2000
    1.1787   -8.0297    3.5154 C   0  0  0  0  0  0  0  0  0  0  0  0
    1.0491   -6.8434    2.9820 C   0  0  2  0  0  0  0  0  0  0  0  0
    0.9905   -9.0774    2.6527 C   0  0  0  0  0  0  0  0  0  0  0  0
    1.1655  -10.4663    3.1286 C   0  0  0  0  0  0  0  0  0  0  0  0
    1.2197  -11.4898    2.5831 C   0  0  0  0  0  0  0  0  0  0  0  0
    1.0589  -11.4458    1.1293 C   0  0  0  0  0  0  0  0  0  0  0  0
    0.9638  -10.3069    0.4651 C   0  0  0  0  0  0  0  0  0  0  0  0
    0.9191   -9.0789    1.1942 C   0  0  0  0  0  0  0  0  0  0  0  0
    0.9197   -7.8339    0.6158 C   0  0  0  0  0  0  0  0  0  0  0  0
    1.0184   -6.6904    1.4953 C   0  0  0  0  0  0  0  0  0  0  0  0
    1.3450  -12.8153    3.0809 N   0  0  0  0  0  0  0  0  0  0  0  0
    1.4502  -13.9419    2.3527 C   0  0  0  0  0  0  0  0  0  0  0  0
    1.2204  -15.1819    2.7783 C   0  0  0  0  0  0  0  0  0  0  0  0
    1.8134  -16.3361    2.2844 O   0  0  0  0  0  0  0  0  0  0  0  0
    0.5210  -15.3744    3.8625 O   0  0  0  0  0  0  0  0  0  0  0  0
    0.7993   -7.6249   -0.5384 O   0  0  0  0  0  0  0  0  0  0  0  0
    1.3153   -5.6059    3.6520 P   0  0  1  0  0  0  0  0  0  0  0  0
    1.8065   -4.7116    3.3776 O   0  0  0  0  0  0  0  0  0  0  0  0
   -0.1271   -5.0212    3.9114 O   0  0  0  0  0  0  0  0  0  0  0  0
  2  1  1  6
  8  9  1  0
  9 10  1  0
  5 11  1  0
 11 12  1  0
 12 13  1  0
 13 14  2  0
 13 15  1  0
  9 16  2  0
  2 17  1  0
 17 18  2  0
 17 19  1  6
  1  3  1  0
  2 10  1  0
  3  4  2  0
  4  5  1  0
  5  6  2  0
  6  7  1  0
  7  8  2  0
  3  8  1  0
M  END

$$$$
No_729-/export/home/yangzhenyu/potential_scad_32_flow//YTHDC2/2024-12-06-03-22-00/
     RDKit          3D

 20 20  0  0  0  0  0  0  0  0999 V2000
    1.1787   -8.0297    3.5154 C   0  0  0  0  0  0  0  0  0  0  0  0
    1.1048   -9.2215    3.2892 C   0  0  0  0  0  0  0  0  0  0  0  0
    1.0239   -9.7790    2.0239 C   0  0  0  0  0  0  0  0  0  0  0  0
    1.1393   -9.0211    0.9686 C   0  0  0  0  0  0  0  0  0  0  0  0
    1.4562   -7.5068    1.4720 C   0  0  0  0  0  0  0  0  0  0  0  0
    1.5110   -7.1181    2.4816 C   0  0  0  0  0  0  0  0  0  0  0  0
    1.0756   -9.3674   -0.3198 C   0  0  0  0  0  0  0  0  0  0  0  0
    0.7096  -10.4623   -0.4513 O   0  0  0  0  0  0  0  0  0  0  0  0
    1.0215   -8.5846   -1.3280 O   0  0  0  0  0  0  0  0  0  0  0  0
    0.9850  -10.2544    4.3740 C   0  0  0  0  0  0  0  0  0  0  0  0
    0.8269  -11.6775    3.9501 C   0  0  0  0  0  0  0  0  0  0  0  0
    1.4499  -12.1237    3.0692 N   0  0  0  0  0  0  0  0  0  0  0  0
    1.3325  -13.4674    2.6341 C   0  0  0  0  0  0  0  0  0  0  0  0
    0.3962  -14.1425    3.1214 O   0  0  0  0  0  0  0  0  0  0  0  0
    2.0691  -13.9546    1.4338 C   0  0  0  0  0  0  0  0  0  0  0  0
    1.9110  -15.2151    1.2066 C   0  0  0  0  0  0  0  0  0  0  0  0
    2.8818  -13.0293    0.7651 C   0  0  0  0  0  0  0  0  0  0  0  0
    2.5780  -16.0849    2.0139 C   0  0  0  0  0  0  0  0  0  0  0  0
    2.3362  -17.2530    2.3121 N   0  0  0  0  0  0  0  0  0  0  0  0
    1.1646  -17.8151    2.1401 C   0  0  0  0  0  0  0  0  0  0  0  0
  4  7  1  0
  7  8  2  0
  7  9  1  0
  2 10  1  0
 10 11  1  0
 11 12  1  0
 12 13  1  0
 13 14  2  0
 13 15  1  0
 15 16  2  3
 15 17  1  0
 16 18  1  0
 18 19  1  0
 19 20  1  0
  1  2  2  0
  2  3  1  0
  3  4  2  0
  4  5  1  0
  5  6  2  0
  1  6  1  0
M  END

$$$$
No_730-/export/home/yangzhenyu/potential_scad_32_flow//YTHDC2/2024-12-06-03-22-00/
     RDKit          3D

 18 18  0  0  1  0  0  0  0  0999 V2000
    1.1787   -8.0297    3.5154 C   0  0  0  0  0  0  0  0  0  0  0  0
    1.0491   -6.8434    2.9820 O   0  0  0  0  0  0  0  0  0  0  0  0
    2.0713   -8.9478    3.1143 N   0  0  0  0  0  0  0  0  0  0  0  0
    2.0110  -10.2268    3.7601 C   0  0  0  0  0  0  0  0  0  0  0  0
    1.3480  -10.4528    4.9270 O   0  0  0  0  0  0  0  0  0  0  0  0
    3.0375  -11.1324    3.3887 N   0  0  0  0  0  0  0  0  0  0  0  0
   -0.2390   -8.5267    3.6018 C   0  0  0  0  0  0  0  0  0  0  0  0
   -1.2027   -7.9677    3.9332 O   0  0  0  0  0  0  0  0  0  0  0  0
   -0.5169   -9.9194    3.6585 N   0  0  0  0  0  0  0  0  0  0  0  0
   -1.8125  -10.2238    4.2755 C   0  0  0  0  0  0  0  0  0  0  0  0
   -2.7484  -10.3495    3.3853 C   0  0  2  0  0  0  0  0  0  0  0  0
   -4.0301  -10.0705    3.8353 C   0  0  0  0  0  0  0  0  0  0  0  0
   -4.2301   -9.2970    4.9032 C   0  0  0  0  0  0  0  0  0  0  0  0
   -4.8397   -8.2278    4.9938 C   0  0  0  0  0  0  0  0  0  0  0  0
   -5.1236   -7.5357    4.2196 C   0  0  0  0  0  0  0  0  0  0  0  0
   -5.2288   -8.1408    2.8719 C   0  0  0  0  0  0  0  0  0  0  0  0
   -4.6055   -9.3423    2.6642 C   0  0  0  0  0  0  0  0  0  0  0  0
   -2.5622  -11.3468    2.3931 C   0  0  0  0  0  0  0  0  0  0  0  0
  1  2  2  0
  1  3  1  0
  3  4  1  0
  4  5  2  0
  4  6  1  0
  1  7  1  0
  7  8  2  0
  7  9  1  0
  9 10  1  0
 10 11  1  0
 11 12  1  0
 11 18  1  1
 12 13  2  0
 13 14  1  0
 14 15  2  0
 15 16  1  0
 16 17  2  0
 12 17  1  0
M  END

$$$$
No_731-/export/home/yangzhenyu/potential_scad_32_flow//YTHDC2/2024-12-06-03-22-00/
     RDKit          3D

 16 17  0  0  1  0  0  0  0  0999 V2000
    1.1787   -8.0297    3.5154 C   0  0  0  0  0  0  0  0  0  0  0  0
    1.1048   -9.2215    3.2892 C   0  0  1  0  0  0  0  0  0  0  0  0
    1.2339   -9.7611    2.0189 C   0  0  1  0  0  0  0  0  0  0  0  0
    1.3583   -9.0036    0.9764 C   0  0  2  0  0  0  0  0  0  0  0  0
    1.7077   -9.6100   -0.3010 C   0  0  0  0  0  0  0  0  0  0  0  0
    1.3637   -7.1087    2.3226 C   0  0  1  0  0  0  0  0  0  0  0  0
    1.4257   -7.6645    1.0231 C   0  0  0  0  0  0  0  0  0  0  0  0
    1.9364   -8.8976   -1.3212 O   0  0  0  0  0  0  0  0  0  0  0  0
    1.2853  -10.8201   -0.4625 O   0  0  0  0  0  0  0  0  0  0  0  0
    1.1269  -10.2988    4.5792 Cl  0  0  0  0  0  0  0  0  0  0  0  0
    1.3279   -5.6013    2.5513 Cl  0  0  0  0  0  0  0  0  0  0  0  0
    1.3054  -11.1756    1.9338 C   0  0  0  0  0  0  0  0  0  0  0  0
    1.2259  -11.8320    1.1565 N   0  0  0  0  0  0  0  0  0  0  0  0
    1.1958  -11.6014   -0.1389 C   0  0  0  0  0  0  0  0  0  0  0  0
    0.9180  -12.8995   -0.7616 O   0  0  0  0  0  0  0  0  0  0  0  0
    1.6174   -6.8841    0.1431 O   0  0  0  0  0  0  0  0  0  0  0  0
  1  2  1  0
  3  4  1  0
  4  5  1  1
  4  7  1  0
  6  7  1  0
  5  8  2  0
  5  9  1  0
  2 10  1  1
  6 11  1  6
  3 12  1  1
 12 13  2  0
  9 14  1  0
 13 14  1  0
 14 15  2  0
  7 16  2  0
  2  3  1  0
  1  6  1  0
M  END

$$$$
No_732-/export/home/yangzhenyu/potential_scad_32_flow//YTHDC2/2024-12-06-03-22-00/
     RDKit          3D

 19 19  0  0  1  0  0  0  0  0999 V2000
    1.1787   -8.0297    3.5154 C   0  0  0  0  0  0  0  0  0  0  0  0
    1.0491   -6.8434    2.9820 C   0  0  2  0  0  0  0  0  0  0  0  0
    0.9905   -9.0774    2.6527 C   0  0  0  0  0  0  0  0  0  0  0  0
    0.7897   -8.9519    1.3691 C   0  0  0  0  0  0  0  0  0  0  0  0
    0.7018   -7.7198    0.7892 C   0  0  0  0  0  0  0  0  0  0  0  0
    0.8918   -6.5957    1.6117 C   0  0  0  0  0  0  0  0  0  0  0  0
    1.0600  -10.5680    3.3321 C   0  0  1  0  0  0  0  0  0  0  0  0
   -0.1041  -11.1772    3.5150 C   0  0  0  0  0  0  0  0  0  0  0  0
   -1.2204  -10.4119    3.8534 O   0  0  0  0  0  0  0  0  0  0  0  0
   -0.3957  -12.3025    2.7914 O   0  0  0  0  0  0  0  0  0  0  0  0
    0.9114   -5.2732    1.1267 O   0  0  0  0  0  0  0  0  0  0  0  0
    2.0631  -11.4020    2.7905 C   0  0  0  0  0  0  0  0  0  0  0  0
    2.5603  -12.0790    3.7342 O   0  0  0  0  0  0  0  0  0  0  0  0
    1.3237   -5.6722    3.8069 N   0  0  0  0  0  0  0  0  0  0  0  0
    2.0301  -12.0086    1.5983 O   0  0  0  0  0  0  0  0  0  0  0  0
   -2.2795  -10.8606    4.3777 C   0  0  0  0  0  0  0  0  0  0  0  0
   -2.8476  -10.0780    5.3237 C   0  0  0  0  0  0  0  0  0  0  0  0
   -2.4929   -8.6962    5.3006 C   0  0  0  0  0  0  0  0  0  0  0  0
   -3.4872   -7.7437    5.1534 C   0  0  0  0  0  0  0  0  0  0  0  0
  1  2  1  0
  3  4  1  0
  2  6  1  0
  5  6  1  0
  7  3  1  6
  7  8  1  0
  8  9  1  0
  8 10  2  0
  6 11  2  0
  7 12  1  0
 12 13  1  0
 12 15  2  0
  9 16  1  0
 16 17  1  0
 17 18  1  0
 18 19  2  0
  2 14  1  6
  1  3  1  0
  4  5  1  0
M  END

$$$$
No_733-/export/home/yangzhenyu/potential_scad_32_flow//YTHDC2/2024-12-06-03-22-00/
     RDKit          3D

 17 17  0  0  0  0  0  0  0  0999 V2000
    1.1787   -8.0297    3.5154 C   0  0  0  0  0  0  0  0  0  0  0  0
    1.1048   -9.2215    3.2892 C   0  0  0  0  0  0  0  0  0  0  0  0
    1.3627  -10.1721    4.3044 C   0  0  0  0  0  0  0  0  0  0  0  0
    1.7354  -11.4730    3.9023 C   0  0  0  0  0  0  0  0  0  0  0  0
    1.8080  -11.8127    2.7216 C   0  0  0  0  0  0  0  0  0  0  0  0
    1.5854  -11.0021    1.7249 C   0  0  0  0  0  0  0  0  0  0  0  0
    1.3573   -9.7389    1.9287 C   0  0  0  0  0  0  0  0  0  0  0  0
    1.2865   -8.8078    0.9161 C   0  0  0  0  0  0  0  0  0  0  0  0
    1.6845   -9.1638   -0.2896 C   0  0  0  0  0  0  0  0  0  0  0  0
    2.0771  -13.2284    2.3629 C   0  0  0  0  0  0  0  0  0  0  0  0
    1.1553  -14.0102    1.6102 C   0  0  0  0  0  0  0  0  0  0  0  0
    1.5883  -15.0415    0.9960 O   0  0  0  0  0  0  0  0  0  0  0  0
    0.0008  -13.5889    1.7884 O   0  0  0  0  0  0  0  0  0  0  0  0
    1.6580   -8.1193   -1.3609 C   0  0  0  0  0  0  0  0  0  0  0  0
    0.9686   -7.0681    2.5768 O   0  0  0  0  0  0  0  0  0  0  0  0
    0.7558   -7.8082   -1.6827 O   0  0  0  0  0  0  0  0  0  0  0  0
    2.8488   -8.0843   -1.9954 O   0  0  0  0  0  0  0  0  0  0  0  0
  1  2  1  0
  7  8  1  0
  8  9  2  3
  5 10  1  0
 10 11  1  0
 11 12  2  0
 11 13  1  0
  9 14  1  0
  1 15  2  0
 14 16  2  0
 14 17  1  0
  2  3  2  0
  3  4  1  0
  4  5  2  0
  5  6  1  0
  6  7  2  0
  2  7  1  0
M  END

$$$$
No_734-/export/home/yangzhenyu/potential_scad_32_flow//YTHDC2/2024-12-06-03-22-00/
     RDKit          3D

 18 19  0  0  0  0  0  0  0  0999 V2000
    1.1787   -8.0297    3.5154 C   0  0  0  0  0  0  0  0  0  0  0  0
    1.1048   -9.2215    3.2892 C   0  0  0  0  0  0  0  0  0  0  0  0
    1.2339   -9.7611    2.0189 C   0  0  0  0  0  0  0  0  0  0  0  0
    1.1954  -11.2312    1.8661 C   0  0  0  0  0  0  0  0  0  0  0  0
    1.2996  -11.5815    0.5387 C   0  0  0  0  0  0  0  0  0  0  0  0
    1.3263   -7.1208    2.3229 C   0  0  0  0  0  0  0  0  0  0  0  0
    1.3693   -7.6408    1.0625 C   0  0  0  0  0  0  0  0  0  0  0  0
    1.4358   -8.9950    0.8622 C   0  0  0  0  0  0  0  0  0  0  0  0
    1.6034  -10.8414   -0.4738 C   0  0  0  0  0  0  0  0  0  0  0  0
    1.5954   -9.4621   -0.3677 C   0  0  0  0  0  0  0  0  0  0  0  0
    1.7632   -8.6946   -1.3816 O   0  0  0  0  0  0  0  0  0  0  0  0
    1.0984  -11.9477    2.9564 C   0  0  0  0  0  0  0  0  0  0  0  0
    0.3350  -13.0124    2.9857 C   0  0  0  0  0  0  0  0  0  0  0  0
    0.8628  -14.2223    3.6492 C   0  0  0  0  0  0  0  0  0  0  0  0
    2.0763  -14.7410    3.2549 C   0  0  0  0  0  0  0  0  0  0  0  0
    2.3665  -16.0662    3.2836 C   0  0  0  0  0  0  0  0  0  0  0  0
    3.2552  -16.7466    2.3703 N   0  0  0  0  0  0  0  0  0  0  0  0
    1.7555  -16.9034    4.0359 O   0  0  0  0  0  0  0  0  0  0  0  0
  3  4  1  0
  4  5  1  0
  8 10  1  0
  9 10  1  0
 10 11  2  0
  4 12  1  0
 12 13  2  3
 13 14  1  0
 14 15  2  3
 15 16  1  0
 16 17  1  0
 16 18  2  0
  5  9  1  0
  1  2  2  0
  2  3  1  0
  3  8  2  0
  7  8  1  0
  6  7  2  0
  1  6  1  0
M  END

$$$$
No_735-/export/home/yangzhenyu/potential_scad_32_flow//YTHDC2/2024-12-06-03-22-00/
     RDKit          3D

 18 19  0  0  0  0  0  0  0  0999 V2000
    1.1787   -8.0297    3.5154 O   0  0  0  0  0  0  0  0  0  0  0  0
    0.9969   -8.9689    3.0048 C   0  0  0  0  0  0  0  0  0  0  0  0
    1.4315  -10.1310    3.5523 C   0  0  0  0  0  0  0  0  0  0  0  0
    0.0262   -8.9498    2.0153 N   0  0  0  0  0  0  0  0  0  0  0  0
   -0.4498   -7.8095    1.5116 C   0  0  0  0  0  0  0  0  0  0  0  0
   -1.1319   -7.8487    0.4538 C   0  0  0  0  0  0  0  0  0  0  0  0
   -1.7642   -6.7621   -0.1770 C   0  0  0  0  0  0  0  0  0  0  0  0
   -1.5595   -5.5370    0.4507 C   0  0  0  0  0  0  0  0  0  0  0  0
   -0.8143   -5.4016    1.5914 C   0  0  0  0  0  0  0  0  0  0  0  0
   -0.2769   -6.5525    2.2394 C   0  0  0  0  0  0  0  0  0  0  0  0
    1.0132  -11.3913    2.9178 C   0  0  0  0  0  0  0  0  0  0  0  0
   -0.0425  -12.0796    3.5217 C   0  0  0  0  0  0  0  0  0  0  0  0
   -0.4729  -13.3302    2.9783 C   0  0  0  0  0  0  0  0  0  0  0  0
    0.2778  -13.8946    2.0217 C   0  0  0  0  0  0  0  0  0  0  0  0
    1.3368  -13.2166    1.4059 C   0  0  0  0  0  0  0  0  0  0  0  0
    1.6686  -11.9468    1.8730 C   0  0  0  0  0  0  0  0  0  0  0  0
   -0.6013   -4.1305    2.2543 Cl  0  0  0  0  0  0  0  0  0  0  0  0
   -1.4304   -9.1070   -0.2990 O   0  0  0  0  0  0  0  0  0  0  0  0
  1  2  2  0
  2  3  1  0
  2  4  1  0
  4  5  1  0
  3 11  1  0
  9 17  1  0
  6 18  1  0
 11 12  2  0
 12 13  1  0
 13 14  2  0
 14 15  1  0
 15 16  2  0
 11 16  1  0
  5  6  2  0
  6  7  1  0
  7  8  2  0
  8  9  1  0
  9 10  2  0
  5 10  1  0
M  END

$$$$
No_736-/export/home/yangzhenyu/potential_scad_32_flow//YTHDC2/2024-12-06-03-22-00/
     RDKit          3D

 20 20  0  0  1  0  0  0  0  0999 V2000
    1.1787   -8.0297    3.5154 C   0  0  0  0  0  0  0  0  0  0  0  0
    1.0491   -6.8434    2.9820 C   0  0  0  0  0  0  0  0  0  0  0  0
    1.9985   -8.9840    2.8958 C   0  0  2  0  0  0  0  0  0  0  0  0
    1.7297   -9.2108    1.6335 C   0  0  0  0  0  0  0  0  0  0  0  0
    1.7343   -8.0566    0.8408 C   0  0  0  0  0  0  0  0  0  0  0  0
    1.0269   -6.8892    1.4456 C   0  0  2  0  0  0  0  0  0  0  0  0
    1.7596   -8.0979   -0.4723 O   0  0  0  0  0  0  0  0  0  0  0  0
    1.9839  -10.3478    3.5826 C   0  0  0  0  0  0  0  0  0  0  0  0
    1.1988  -11.3442    3.3203 O   0  0  0  0  0  0  0  0  0  0  0  0
    3.0691  -10.6155    4.3995 N   0  0  0  0  0  0  0  0  0  0  0  0
    0.5397   -5.7551    3.4303 O   0  0  0  0  0  0  0  0  0  0  0  0
    2.2121  -10.2743    0.9400 O   0  0  0  0  0  0  0  0  0  0  0  0
    3.1897  -11.7819    5.1371 C   0  0  0  0  0  0  0  0  0  0  0  0
    4.7139  -11.7694    5.1030 O   0  0  0  0  0  0  0  0  0  0  0  0
    0.9250   -5.7521    0.7907 C   0  0  0  0  0  0  0  0  0  0  0  0
   -0.3531   -5.3896    0.5016 C   0  0  0  0  0  0  0  0  0  0  0  0
   -0.6444   -4.0396    0.1076 C   0  0  0  0  0  0  0  0  0  0  0  0
    0.0568   -2.9927    0.7796 C   0  0  0  0  0  0  0  0  0  0  0  0
    1.3232   -2.5408    0.4053 C   0  0  0  0  0  0  0  0  0  0  0  0
   -1.3912   -6.2506    0.5416 O   0  0  0  0  0  0  0  0  0  0  0  0
  1  2  1  0
  1  3  1  0
  3  4  1  0
  4  5  1  0
  2  6  1  0
  5  6  1  0
  5  7  2  0
  3  8  1  1
  8  9  2  0
  8 10  1  0
  2 11  2  0
  4 12  2  0
 10 13  1  0
 13 14  1  0
  6 15  1  6
 15 16  1  0
 16 17  1  0
 17 18  1  0
 18 19  1  0
 16 20  2  0
M  END

$$$$
No_737-/export/home/yangzhenyu/potential_scad_32_flow//YTHDC2/2024-12-06-03-22-00/
     RDKit          3D

 20 21  0  0  0  0  0  0  0  0999 V2000
    1.1787   -8.0297    3.5154 C   0  0  0  0  0  0  0  0  0  0  0  0
    1.1048   -9.2215    3.2892 C   0  0  0  0  0  0  0  0  0  0  0  0
    1.2339   -9.7611    2.0189 C   0  0  0  0  0  0  0  0  0  0  0  0
    1.1954  -11.2312    1.8661 C   0  0  0  0  0  0  0  0  0  0  0  0
    1.2996  -11.5815    0.5387 C   0  0  0  0  0  0  0  0  0  0  0  0
    1.3263   -7.1208    2.3229 C   0  0  0  0  0  0  0  0  0  0  0  0
    1.3693   -7.6408    1.0625 C   0  0  0  0  0  0  0  0  0  0  0  0
    1.4358   -8.9950    0.8622 C   0  0  0  0  0  0  0  0  0  0  0  0
    1.6034  -10.8414   -0.4738 O   0  0  0  0  0  0  0  0  0  0  0  0
    1.5193   -9.4803   -0.3731 C   0  0  0  0  0  0  0  0  0  0  0  0
    1.6353   -8.7415   -1.3625 O   0  0  0  0  0  0  0  0  0  0  0  0
    1.3257   -5.6140    2.5525 C   0  0  0  0  0  0  0  0  0  0  0  0
    1.1286  -12.0275    2.8958 C   0  0  0  0  0  0  0  0  0  0  0  0
    0.1071  -12.6872    3.1640 C   0  0  0  0  0  0  0  0  0  0  0  0
   -1.1416  -12.0039    3.0023 Cl  0  0  0  0  0  0  0  0  0  0  0  0
    0.1860  -14.0382    3.4197 O   0  0  0  0  0  0  0  0  0  0  0  0
    1.8547   -5.1687    3.6576 C   0  0  0  0  0  0  0  0  0  0  0  0
    0.8908   -4.8557    1.5465 C   0  0  0  0  0  0  0  0  0  0  0  0
    1.6927   -3.7240    3.6569 O   0  0  0  0  0  0  0  0  0  0  0  0
   -0.5732   -4.9695    1.3983 O   0  0  0  0  0  0  0  0  0  0  0  0
  3  4  1  0
  4  5  1  0
  5  9  1  0
  8 10  1  0
  9 10  1  0
 10 11  2  0
  6 12  1  0
  4 13  1  0
 13 14  1  0
 14 15  1  0
 14 16  2  0
 12 17  1  0
 12 18  1  0
 17 19  2  0
 18 20  2  0
  1  2  2  0
  2  3  1  0
  3  8  2  0
  7  8  1  0
  6  7  2  0
  1  6  1  0
M  END

$$$$
No_738-/export/home/yangzhenyu/potential_scad_32_flow//YTHDC2/2024-12-06-03-22-00/
     RDKit          3D

 18 19  0  0  1  0  0  0  0  0999 V2000
    1.1787   -8.0297    3.5154 C   0  0  0  0  0  0  0  0  0  0  0  0
    1.1048   -9.2215    3.2892 Cl  0  0  0  0  0  0  0  0  0  0  0  0
    1.1053   -7.0623    2.3233 C   0  0  1  0  0  0  0  0  0  0  0  0
    1.4726   -7.8192    1.2373 C   0  0  0  0  0  0  0  0  0  0  0  0
    2.7805   -8.0329    0.8318 C   0  0  0  0  0  0  0  0  0  0  0  0
   -0.1305   -6.4777    2.3390 C   0  0  0  0  0  0  0  0  0  0  0  0
   -0.1053   -5.1077    2.2408 C   0  0  0  0  0  0  0  0  0  0  0  0
   -1.1026   -4.3397    1.8398 C   0  0  0  0  0  0  0  0  0  0  0  0
   -2.3141   -4.9943    1.7733 C   0  0  0  0  0  0  0  0  0  0  0  0
   -2.4683   -6.2969    1.8943 C   0  0  0  0  0  0  0  0  0  0  0  0
   -1.3496   -7.0774    2.1347 C   0  0  0  0  0  0  0  0  0  0  0  0
    2.9464   -8.5799   -0.4576 C   0  0  0  0  0  0  0  0  0  0  0  0
    1.9509   -8.6553   -1.2952 C   0  0  0  0  0  0  0  0  0  0  0  0
    0.7141   -8.4914   -1.0058 C   0  0  0  0  0  0  0  0  0  0  0  0
    0.4090   -7.9940    0.2356 C   0  0  0  0  0  0  0  0  0  0  0  0
    1.2840   -4.3889    2.1841 Cl  0  0  0  0  0  0  0  0  0  0  0  0
   -0.2948   -8.7782   -1.8468 O   0  0  0  0  0  0  0  0  0  0  0  0
   -3.7113   -6.9390    1.7185 C   0  0  0  0  0  0  0  0  0  0  0  0
  1  2  1  0
  3  1  1  1
  3  4  1  0
  3  6  1  0
  7 16  1  0
 14 17  1  0
 10 18  1  0
  6  7  2  0
  7  8  1  0
  8  9  2  0
  9 10  1  0
 10 11  2  0
  6 11  1  0
  4  5  2  0
  5 12  1  0
 12 13  2  0
 13 14  1  0
 14 15  2  0
  4 15  1  0
M  END

$$$$
No_739-/export/home/yangzhenyu/potential_scad_32_flow//YTHDC2/2024-12-06-03-22-00/
     RDKit          3D

 20 21  0  0  0  0  0  0  0  0999 V2000
    1.1787   -8.0297    3.5154 C   0  0  0  0  0  0  0  0  0  0  0  0
    1.0491   -6.8434    2.9820 C   0  0  0  0  0  0  0  0  0  0  0  0
    2.0004   -8.9805    3.0498 C   0  0  0  0  0  0  0  0  0  0  0  0
    2.3555   -9.0813    1.8033 C   0  0  0  0  0  0  0  0  0  0  0  0
    1.5516   -6.8448    1.5633 C   0  0  0  0  0  0  0  0  0  0  0  0
    2.2171   -7.9366    1.0002 C   0  0  0  0  0  0  0  0  0  0  0  0
    2.0828  -10.3102    3.8067 C   0  0  0  0  0  0  0  0  0  0  0  0
    1.9219  -11.4411    3.2239 N   0  0  0  0  0  0  0  0  0  0  0  0
    3.0233  -10.2817    4.8955 N   0  0  0  0  0  0  0  0  0  0  0  0
    2.6319   -7.8403   -0.2719 O   0  0  0  0  0  0  0  0  0  0  0  0
    2.1450  -12.5366    4.0120 C   0  0  0  0  0  0  0  0  0  0  0  0
    1.6963  -13.7563    3.1839 C   0  0  0  0  0  0  0  0  0  0  0  0
    1.2673  -13.5251    1.8751 N   0  0  0  0  0  0  0  0  0  0  0  0
    1.6647  -14.9415    3.7434 O   0  0  0  0  0  0  0  0  0  0  0  0
    0.9879  -14.7935    1.2204 C   0  0  0  0  0  0  0  0  0  0  0  0
   -0.2435  -14.7659    0.7074 C   0  0  0  0  0  0  0  0  0  0  0  0
   -0.7798  -15.8429    0.2685 C   0  0  0  0  0  0  0  0  0  0  0  0
    0.0030  -17.0127    0.0922 C   0  0  0  0  0  0  0  0  0  0  0  0
    1.3184  -16.9857    0.6051 C   0  0  0  0  0  0  0  0  0  0  0  0
    1.7683  -15.8961    1.2884 C   0  0  0  0  0  0  0  0  0  0  0  0
  3  7  1  0
  7  8  2  3
  7  9  1  0
  6 10  1  0
  8 11  1  0
 11 12  1  0
 12 13  1  0
 12 14  2  0
 13 15  1  0
 15 16  2  0
 16 17  1  0
 17 18  2  0
 18 19  1  0
 19 20  2  0
 15 20  1  0
  1  2  2  0
  2  5  1  0
  5  6  2  0
  4  6  1  0
  3  4  2  0
  1  3  1  0
M  END

$$$$
No_740-/export/home/yangzhenyu/potential_scad_32_flow//YTHDC2/2024-12-06-03-22-00/
     RDKit          3D

 18 18  0  0  1  0  0  0  0  0999 V2000
    1.1787   -8.0297    3.5154 O   0  0  0  0  0  0  0  0  0  0  0  0
    0.9969   -8.9689    3.0048 C   0  0  1  0  0  0  0  0  0  0  0  0
    0.9976   -8.9567    1.6341 C   0  0  2  0  0  0  0  0  0  0  0  0
    1.6062   -9.9071    0.9292 C   0  0  1  0  0  0  0  0  0  0  0  0
    2.1191  -10.9757    1.6503 C   0  0  0  0  0  0  0  0  0  0  0  0
    2.1177  -10.9891    3.0403 C   0  0  1  0  0  0  0  0  0  0  0  0
    1.5441   -9.8905    3.6897 C   0  0  0  0  0  0  0  0  0  0  0  0
    0.5010   -7.8164    1.0436 C   0  0  0  0  0  0  0  0  0  0  0  0
    1.0624   -6.6356    1.1779 C   0  0  0  0  0  0  0  0  0  0  0  0
    0.3391   -5.4799    1.3521 O   0  0  0  0  0  0  0  0  0  0  0  0
    1.7648  -10.1057    4.9831 O   0  0  0  0  0  0  0  0  0  0  0  0
    2.2881   -6.4176    1.0941 O   0  0  0  0  0  0  0  0  0  0  0  0
    2.6023  -12.1936    3.5593 N   0  0  0  0  0  0  0  0  0  0  0  0
    1.9389  -13.4158    3.4650 C   0  0  0  0  0  0  0  0  0  0  0  0
    0.6261  -13.4859    3.3154 O   0  0  0  0  0  0  0  0  0  0  0  0
    2.7687  -14.5475    3.3903 O   0  0  0  0  0  0  0  0  0  0  0  0
    1.5848   -9.9842   -0.4476 C   0  0  0  0  0  0  0  0  0  0  0  0
    2.4667   -9.1591   -1.1144 O   0  0  0  0  0  0  0  0  0  0  0  0
  2  1  1  1
  2  3  1  0
  4  5  1  0
  2  7  1  0
  6  7  1  0
  3  8  1  1
  8  9  1  0
  9 10  2  0
  7 11  2  0
  9 12  1  0
  6 13  1  6
 13 14  1  0
 14 15  2  0
 14 16  1  0
  4 17  1  6
 17 18  1  0
  3  4  1  0
  5  6  1  0
M  END

$$$$
No_741-/export/home/yangzhenyu/potential_scad_32_flow//YTHDC2/2024-12-06-03-22-00/
     RDKit          3D

 17 18  0  0  1  0  0  0  0  0999 V2000
    1.1787   -8.0297    3.5154 C   0  0  0  0  0  0  0  0  0  0  0  0
    1.0491   -6.8434    2.9820 C   0  0  0  0  0  0  0  0  0  0  0  0
    0.9905   -9.0774    2.6527 C   0  0  0  0  0  0  0  0  0  0  0  0
    0.7897   -8.9519    1.3691 C   0  0  0  0  0  0  0  0  0  0  0  0
    0.7018   -7.7198    0.7892 C   0  0  0  0  0  0  0  0  0  0  0  0
    0.8918   -6.5957    1.6117 C   0  0  0  0  0  0  0  0  0  0  0  0
    1.0711  -10.4814    3.2282 C   0  0  1  0  0  0  0  0  0  0  0  0
   -0.1055  -11.1328    3.5223 C   0  0  2  0  0  0  0  0  0  0  0  0
   -0.7419  -11.5628    2.6150 N   0  0  0  0  0  0  0  0  0  0  0  0
   -2.0187  -11.3999    2.4567 C   0  0  0  0  0  0  0  0  0  0  0  0
   -2.6537  -10.4460    3.3047 C   0  0  0  0  0  0  0  0  0  0  0  0
   -1.8856   -9.9176    4.4609 C   0  0  0  0  0  0  0  0  0  0  0  0
   -0.5555  -10.1907    4.5206 C   0  0  0  0  0  0  0  0  0  0  0  0
   -2.6518  -11.7439    1.3471 O   0  0  0  0  0  0  0  0  0  0  0  0
    2.3733  -10.9648    3.2217 C   0  0  0  0  0  0  0  0  0  0  0  0
    0.9473   -5.2952    1.1081 O   0  0  0  0  0  0  0  0  0  0  0  0
    3.3346  -10.3835    2.8754 O   0  0  0  0  0  0  0  0  0  0  0  0
  3  7  1  0
  7  8  1  0
  8  9  1  0
  9 10  1  0
 10 11  1  0
  8 13  1  6
 12 13  1  0
 10 14  2  0
  7 15  1  6
  6 16  1  0
 15 17  2  0
 11 12  1  0
  1  2  2  0
  2  6  1  0
  5  6  2  0
  4  5  1  0
  3  4  2  0
  1  3  1  0
M  END

$$$$
No_742-/export/home/yangzhenyu/potential_scad_32_flow//YTHDC2/2024-12-06-03-22-00/
     RDKit          3D

 19 20  0  0  1  0  0  0  0  0999 V2000
    1.1787   -8.0297    3.5154 C   0  0  0  0  0  0  0  0  0  0  0  0
    1.1048   -9.2215    3.2892 C   0  0  0  0  0  0  0  0  0  0  0  0
    1.3627  -10.1721    4.3044 C   0  0  0  0  0  0  0  0  0  0  0  0
    1.0682  -11.5187    4.0618 C   0  0  0  0  0  0  0  0  0  0  0  0
    0.6332  -11.9655    2.9682 C   0  0  0  0  0  0  0  0  0  0  0  0
    0.4776  -11.1308    1.9203 C   0  0  0  0  0  0  0  0  0  0  0  0
    0.7470   -9.8274    2.0368 C   0  0  0  0  0  0  0  0  0  0  0  0
    0.5535   -7.1314    2.6862 N   0  0  0  0  0  0  0  0  0  0  0  0
    0.3068   -7.6119    1.3920 C   0  0  1  0  0  0  0  0  0  0  0  0
    0.2579   -8.8240    1.1187 C   0  0  0  0  0  0  0  0  0  0  0  0
   -0.0304   -6.6302    0.5462 C   0  0  0  0  0  0  0  0  0  0  0  0
   -0.1118   -5.3226    0.8834 O   0  0  0  0  0  0  0  0  0  0  0  0
   -0.5812   -6.8600   -0.5441 O   0  0  0  0  0  0  0  0  0  0  0  0
    0.4875  -13.3876    2.7137 O   0  0  0  0  0  0  0  0  0  0  0  0
    1.5294  -14.2372    2.7975 C   0  0  0  0  0  0  0  0  0  0  0  0
    2.2711  -14.4650    1.7411 C   0  0  0  0  0  0  0  0  0  0  0  0
    1.8811  -14.8713    0.7618 O   0  0  0  0  0  0  0  0  0  0  0  0
    3.6122  -14.2221    1.6772 O   0  0  0  0  0  0  0  0  0  0  0  0
    0.0220   -9.2538   -0.1507 O   0  0  0  0  0  0  0  0  0  0  0  0
  1  2  1  0
  8  9  1  0
  7 10  1  0
  9 10  1  0
  9 11  1  1
 11 12  1  0
 11 13  2  0
  5 14  1  0
 14 15  1  0
 15 16  1  0
 16 17  1  0
 16 18  2  0
 10 19  2  0
  1  8  1  0
  2  3  2  0
  3  4  1  0
  4  5  2  0
  5  6  1  0
  6  7  2  0
  2  7  1  0
M  END

$$$$
No_743-/export/home/yangzhenyu/potential_scad_32_flow//YTHDC2/2024-12-06-03-22-00/
     RDKit          3D

 18 19  0  0  1  0  0  0  0  0999 V2000
    1.1787   -8.0297    3.5154 C   0  0  0  0  0  0  0  0  0  0  0  0
    1.0491   -6.8434    2.9820 C   0  0  0  0  0  0  0  0  0  0  0  0
    1.9985   -8.9840    2.8958 C   0  0  2  0  0  0  0  0  0  0  0  0
    1.7297   -9.2108    1.6335 C   0  0  0  0  0  0  0  0  0  0  0  0
    1.7343   -8.0566    0.8408 C   0  0  2  0  0  0  0  0  0  0  0  0
    1.0269   -6.8892    1.4456 C   0  0  0  0  0  0  0  0  0  0  0  0
    1.7596   -8.0979   -0.4723 C   0  0  0  0  0  0  0  0  0  0  0  0
    2.7309   -8.8718   -1.0817 C   0  0  0  0  0  0  0  0  0  0  0  0
    2.4234  -10.1661    3.6309 C   0  0  0  0  0  0  0  0  0  0  0  0
    3.4196  -10.3892    4.0584 C   0  0  0  0  0  0  0  0  0  0  0  0
    3.7584  -11.4033    5.0870 C   0  0  0  0  0  0  0  0  0  0  0  0
    1.4243  -11.2150    3.7502 C   0  0  0  0  0  0  0  0  0  0  0  0
    1.6816  -12.3040    4.5191 C   0  0  0  0  0  0  0  0  0  0  0  0
    2.9360  -12.3309    5.0844 N   0  0  0  0  0  0  0  0  0  0  0  0
    2.6190  -10.2001   -0.9825 O   0  0  0  0  0  0  0  0  0  0  0  0
    3.7896   -8.4771   -1.5169 O   0  0  0  0  0  0  0  0  0  0  0  0
    0.1051  -11.2019    3.0990 Cl  0  0  0  0  0  0  0  0  0  0  0  0
    0.8483   -5.7396    0.8495 O   0  0  0  0  0  0  0  0  0  0  0  0
  1  2  1  0
  1  3  1  0
  3  4  1  0
  4  5  1  0
  2  6  1  0
  5  6  1  0
  5  7  1  6
  7  8  1  0
  3  9  1  1
  8 15  1  0
  8 16  2  0
 12 17  1  0
  6 18  2  0
  9 10  2  0
 10 11  1  0
 11 14  2  0
 13 14  1  0
 12 13  2  0
  9 12  1  0
M  END

$$$$
No_744-/export/home/yangzhenyu/potential_scad_32_flow//YTHDC2/2024-12-06-03-22-00/
     RDKit          3D

 19 19  0  0  1  0  0  0  0  0999 V2000
    1.1787   -8.0297    3.5154 O   0  0  0  0  0  0  0  0  0  0  0  0
    0.6747   -7.4019    2.7838 C   0  0  0  0  0  0  0  0  0  0  0  0
    0.7594   -8.0032    1.4295 C   0  0  1  0  0  0  0  0  0  0  0  0
    0.3459   -9.1500    1.3581 C   0  0  2  0  0  0  0  0  0  0  0  0
    1.1876  -10.0065    2.0240 C   0  0  0  0  0  0  0  0  0  0  0  0
    1.2267   -9.5257    3.5507 C   0  0  1  0  0  0  0  0  0  0  0  0
    1.9919  -10.3918    4.3814 C   0  0  0  0  0  0  0  0  0  0  0  0
    1.3664  -11.6452    4.6708 O   0  0  0  0  0  0  0  0  0  0  0  0
    3.0872  -10.2070    4.9651 O   0  0  0  0  0  0  0  0  0  0  0  0
    0.1194   -6.9470    0.5011 C   0  0  0  0  0  0  0  0  0  0  0  0
   -1.1701   -6.7308    0.6620 C   0  0  0  0  0  0  0  0  0  0  0  0
   -1.8151   -6.2761   -0.0106 C   0  0  0  0  0  0  0  0  0  0  0  0
   -1.4538   -5.8425   -1.3555 O   0  0  0  0  0  0  0  0  0  0  0  0
   -3.2342   -5.9238    0.1124 C   0  0  0  0  0  0  0  0  0  0  0  0
    0.7287   -6.1136    3.1344 O   0  0  0  0  0  0  0  0  0  0  0  0
   -3.8605   -6.4535    0.9615 O   0  0  0  0  0  0  0  0  0  0  0  0
   -4.0067   -5.6184   -0.9838 O   0  0  0  0  0  0  0  0  0  0  0  0
   -0.0571   -9.7031    0.1886 C   0  0  0  0  0  0  0  0  0  0  0  0
    0.5372   -9.5182   -1.1553 C   0  0  0  0  0  0  0  0  0  0  0  0
  1  2  1  0
  2  3  1  0
  3  4  1  0
  4  5  1  0
  1  6  1  0
  5  6  1  0
  6  7  1  6
  7  8  1  0
  7  9  2  0
  3 10  1  6
 10 11  1  0
 11 12  2  3
 12 13  1  0
 12 14  1  0
  2 15  2  0
 14 16  1  0
 14 17  2  0
  4 18  1  6
 18 19  1  0
M  END

$$$$
No_745-/export/home/yangzhenyu/potential_scad_32_flow//YTHDC2/2024-12-06-03-22-00/
     RDKit          3D

 18 18  0  0  1  0  0  0  0  0999 V2000
    1.1787   -8.0297    3.5154 C   0  0  0  0  0  0  0  0  0  0  0  0
    1.1048   -9.2215    3.2892 C   0  0  0  0  0  0  0  0  0  0  0  0
    1.3627  -10.1721    4.3044 C   0  0  0  0  0  0  0  0  0  0  0  0
    2.3720  -10.8948    4.2468 C   0  0  0  0  0  0  0  0  0  0  0  0
    1.0579   -7.0441    2.4219 C   0  0  0  0  0  0  0  0  0  0  0  0
    0.8578   -7.4970    1.1686 C   0  0  0  0  0  0  0  0  0  0  0  0
    0.7382   -8.7683    0.8754 C   0  0  0  0  0  0  0  0  0  0  0  0
    0.8882   -9.7347    1.9238 C   0  0  0  0  0  0  0  0  0  0  0  0
    0.9437  -11.0299    1.7005 C   0  0  2  0  0  0  0  0  0  0  0  0
    1.9466  -11.5929    1.1835 C   0  0  0  0  0  0  0  0  0  0  0  0
    1.9182  -13.0781    1.0565 O   0  0  0  0  0  0  0  0  0  0  0  0
    0.5282   -9.2124   -0.4340 C   0  0  0  0  0  0  0  0  0  0  0  0
   -0.7584   -9.6266   -0.7903 O   0  0  0  0  0  0  0  0  0  0  0  0
    1.3399   -8.8836   -1.3574 O   0  0  0  0  0  0  0  0  0  0  0  0
    3.6027  -10.4204    4.8883 O   0  0  0  0  0  0  0  0  0  0  0  0
   -0.2072  -11.8196    1.7361 C   0  0  0  0  0  0  0  0  0  0  0  0
   -0.3964  -13.0997    1.5525 O   0  0  0  0  0  0  0  0  0  0  0  0
   -1.4520  -11.1228    2.3126 N   0  0  0  0  0  0  0  0  0  0  0  0
  2  3  1  0
  3  4  1  0
  8  9  1  0
  9 10  1  6
 10 11  1  0
  7 12  1  0
 12 13  2  0
 12 14  1  0
  4 15  1  0
  9 16  1  0
 16 17  2  0
 16 18  1  0
  1  2  2  0
  2  8  1  0
  7  8  2  0
  6  7  1  0
  5  6  2  0
  1  5  1  0
M  END

$$$$
No_746-/export/home/yangzhenyu/potential_scad_32_flow//YTHDC2/2024-12-06-03-22-00/
     RDKit          3D

 19 20  0  0  1  0  0  0  0  0999 V2000
    1.1787   -8.0297    3.5154 Cl  0  0  0  0  0  0  0  0  0  0  0  0
    0.7279   -9.0023    2.8722 C   0  0  2  0  0  0  0  0  0  0  0  0
   -0.0117   -8.9271    1.8829 C   0  0  0  0  0  0  0  0  0  0  0  0
   -0.4744   -7.9794    1.4770 C   0  0  0  0  0  0  0  0  0  0  0  0
   -1.1096   -7.8701    0.3980 C   0  0  0  0  0  0  0  0  0  0  0  0
   -1.2541   -8.9422   -0.5463 C   0  0  0  0  0  0  0  0  0  0  0  0
   -0.6794  -10.2045   -0.1255 C   0  0  0  0  0  0  0  0  0  0  0  0
   -0.0078  -10.1795    1.1011 C   0  0  0  0  0  0  0  0  0  0  0  0
    0.5374  -10.0980    3.9327 C   0  0  0  0  0  0  0  0  0  0  0  0
    1.5543  -10.9909    4.2672 C   0  0  0  0  0  0  0  0  0  0  0  0
    0.6604  -11.3275    1.3693 C   0  0  0  0  0  0  0  0  0  0  0  0
    2.0982  -11.4131    1.3607 C   0  0  0  0  0  0  0  0  0  0  0  0
    2.4364  -12.7408    1.8121 O   0  0  0  0  0  0  0  0  0  0  0  0
   -0.7402  -10.4565    4.3912 C   0  0  0  0  0  0  0  0  0  0  0  0
    1.4400  -12.2586    4.5501 C   0  0  0  0  0  0  0  0  0  0  0  0
   -0.9718  -11.8223    4.7654 C   0  0  0  0  0  0  0  0  0  0  0  0
    0.1702  -12.6606    4.7732 C   0  0  0  0  0  0  0  0  0  0  0  0
    2.8227  -10.6419    0.9636 O   0  0  0  0  0  0  0  0  0  0  0  0
   -1.9687   -8.9304   -1.9595 O   0  0  0  0  0  0  0  0  0  0  0  0
  2  1  1  1
  2  3  1  0
  2  9  1  0
  8 11  1  0
 11 12  1  0
 12 13  1  0
 12 18  2  0
  6 19  1  0
  3  4  2  0
  4  5  1  0
  5  6  2  0
  6  7  1  0
  7  8  2  0
  3  8  1  0
  9 10  2  0
 10 15  1  0
 15 17  2  0
 16 17  1  0
 14 16  2  0
  9 14  1  0
M  END

$$$$
No_747-/export/home/yangzhenyu/potential_scad_32_flow//YTHDC2/2024-12-06-03-22-00/
     RDKit          3D

 17 17  0  0  0  0  0  0  0  0999 V2000
    1.1787   -8.0297    3.5154 N   0  0  0  0  0  0  0  0  0  0  0  0
    1.0818   -9.0751    3.2053 C   0  0  0  0  0  0  0  0  0  0  0  0
    0.7576   -9.3725    1.9159 C   0  0  0  0  0  0  0  0  0  0  0  0
    0.8823   -8.4917    1.0547 C   0  0  0  0  0  0  0  0  0  0  0  0
    0.9679   -8.9061   -0.3794 C   0  0  0  0  0  0  0  0  0  0  0  0
    1.4872   -7.0697    2.4366 C   0  0  0  0  0  0  0  0  0  0  0  0
    1.2533   -7.2172    1.2831 N   0  0  0  0  0  0  0  0  0  0  0  0
   -0.2884   -9.1186   -0.9083 F   0  0  0  0  0  0  0  0  0  0  0  0
    0.8412  -10.0454    4.2576 C   0  0  0  0  0  0  0  0  0  0  0  0
    1.6092  -11.2594    4.1061 O   0  0  0  0  0  0  0  0  0  0  0  0
    1.7315   -8.9807   -1.1152 F   0  0  0  0  0  0  0  0  0  0  0  0
   -0.1615  -10.1598    4.9614 O   0  0  0  0  0  0  0  0  0  0  0  0
    1.6335   -5.5913    2.9567 N   0  0  0  0  0  0  0  0  0  0  0  0
    1.2668   -4.5698    2.1167 C   0  0  0  0  0  0  0  0  0  0  0  0
    1.6828   -3.3453    2.3233 C   0  0  0  0  0  0  0  0  0  0  0  0
    0.4625   -4.8158    1.0656 O   0  0  0  0  0  0  0  0  0  0  0  0
    1.9430   -2.4662    1.3802 C   0  0  0  0  0  0  0  0  0  0  0  0
  4  5  1  0
  5  8  1  0
  2  9  1  0
  9 10  1  0
  5 11  1  0
  9 12  2  0
  6 13  1  0
 13 14  1  0
 14 15  1  0
 14 16  2  0
 15 17  1  0
  1  2  2  0
  2  3  1  0
  3  4  2  0
  4  7  1  0
  6  7  2  0
  1  6  1  0
M  END

$$$$
No_748-/export/home/yangzhenyu/potential_scad_32_flow//YTHDC2/2024-12-06-03-22-00/
     RDKit          3D

 18 18  0  0  1  0  0  0  0  0999 V2000
    1.1787   -8.0297    3.5154 C   0  0  0  0  0  0  0  0  0  0  0  0
    1.0491   -6.8434    2.9820 C   0  0  1  0  0  0  0  0  0  0  0  0
    1.9985   -8.9840    2.8958 C   0  0  0  0  0  0  0  0  0  0  0  0
    1.9135  -10.3404    3.6266 C   0  0  0  0  0  0  0  0  0  0  0  0
    0.7479  -10.9191    3.7202 C   0  0  0  0  0  0  0  0  0  0  0  0
    1.8085   -5.7988    3.2380 O   0  0  0  0  0  0  0  0  0  0  0  0
    0.2064  -11.4852    2.6302 C   0  0  0  0  0  0  0  0  0  0  0  0
   -1.0331  -11.3183    2.4147 C   0  0  0  0  0  0  0  0  0  0  0  0
   -1.7246  -11.9807    1.4456 N   0  0  0  0  0  0  0  0  0  0  0  0
    0.9712  -12.4077    1.8878 C   0  0  0  0  0  0  0  0  0  0  0  0
    0.3955  -12.9824    0.7707 C   0  0  0  0  0  0  0  0  0  0  0  0
   -0.9665  -12.7740    0.5833 C   0  0  0  0  0  0  0  0  0  0  0  0
   -1.5500  -13.2826   -0.4518 C   0  0  0  0  0  0  0  0  0  0  0  0
    0.3368   -6.6931    1.8574 C   0  0  0  0  0  0  0  0  0  0  0  0
    0.2260   -5.5227    1.3033 O   0  0  0  0  0  0  0  0  0  0  0  0
   -0.3726   -7.6192    1.3975 O   0  0  0  0  0  0  0  0  0  0  0  0
   -1.3936  -14.6177   -0.6539 C   0  0  0  0  0  0  0  0  0  0  0  0
   -1.7926  -15.1245   -2.0061 C   0  0  0  0  0  0  0  0  0  0  0  0
  1  2  1  0
  1  3  1  0
  3  4  1  0
  4  5  1  0
  2  6  1  6
  5  7  1  0
 12 13  1  0
  2 14  1  0
 14 15  1  0
 14 16  2  0
 13 17  2  3
 17 18  1  0
  7  8  2  0
  8  9  1  0
  9 12  2  0
 11 12  1  0
 10 11  2  0
  7 10  1  0
M  END

$$$$
No_749-/export/home/yangzhenyu/potential_scad_32_flow//YTHDC2/2024-12-06-03-22-00/
     RDKit          3D

 18 18  0  0  1  0  0  0  0  0999 V2000
    1.1787   -8.0297    3.5154 C   0  0  0  0  0  0  0  0  0  0  0  0
    1.0491   -6.8434    2.9820 C   0  0  0  0  0  0  0  0  0  0  0  0
    0.9905   -9.0774    2.6527 C   0  0  1  0  0  0  0  0  0  0  0  0
    0.7897   -8.9519    1.3691 C   0  0  0  0  0  0  0  0  0  0  0  0
    0.7018   -7.7198    0.7892 C   0  0  0  0  0  0  0  0  0  0  0  0
    0.8918   -6.5957    1.6117 C   0  0  0  0  0  0  0  0  0  0  0  0
    1.0998  -10.4710    3.2437 P   0  0  2  0  0  0  0  0  0  0  0  0
   -0.0433  -10.9505    4.0474 O   0  0  0  0  0  0  0  0  0  0  0  0
    2.3928  -10.4877    4.2813 O   0  0  0  0  0  0  0  0  0  0  0  0
    1.5195  -11.6048    2.3076 O   0  0  0  0  0  0  0  0  0  0  0  0
    0.8520   -5.2620    1.2268 O   0  0  0  0  0  0  0  0  0  0  0  0
    1.3941  -13.0222    2.5437 C   0  0  0  0  0  0  0  0  0  0  0  0
    1.1600  -13.7984    1.4442 C   0  0  1  0  0  0  0  0  0  0  0  0
    0.7541  -13.2497    0.3666 O   0  0  0  0  0  0  0  0  0  0  0  0
    1.5185  -15.0332    1.5154 C   0  0  0  0  0  0  0  0  0  0  0  0
    2.6857  -15.3009    2.1308 O   0  0  0  0  0  0  0  0  0  0  0  0
    1.2674  -15.7938    0.4410 O   0  0  0  0  0  0  0  0  0  0  0  0
    0.6466   -9.9962    0.3763 C   0  0  0  0  0  0  0  0  0  0  0  0
  1  2  1  0
  3  4  1  0
  2  6  1  0
  5  6  1  0
  3  7  1  0
  7  8  1  1
  7  9  2  0
  7 10  1  0
  6 11  2  0
 10 12  1  0
 12 13  1  0
 13 14  1  6
 13 15  1  0
 15 16  1  0
 15 17  2  0
  4 18  1  0
  3  1  1  6
  4  5  1  0
M  END

$$$$
No_750-/export/home/yangzhenyu/potential_scad_32_flow//YTHDC2/2024-12-06-03-22-00/
     RDKit          3D

 17 17  0  0  1  0  0  0  0  0999 V2000
    1.1787   -8.0297    3.5154 C   0  0  0  0  0  0  0  0  0  0  0  0
    1.0491   -6.8434    2.9820 C   0  0  0  0  0  0  0  0  0  0  0  0
    0.0950   -8.8404    3.2292 C   0  0  0  0  0  0  0  0  0  0  0  0
   -0.9173   -8.4596    2.5152 C   0  0  0  0  0  0  0  0  0  0  0  0
   -1.0331   -7.2162    2.0653 C   0  0  0  0  0  0  0  0  0  0  0  0
   -0.0105   -6.3168    2.3081 C   0  0  0  0  0  0  0  0  0  0  0  0
    0.1935  -10.3737    3.7416 Cl  0  0  0  0  0  0  0  0  0  0  0  0
    0.0192   -4.9454    1.9087 Cl  0  0  0  0  0  0  0  0  0  0  0  0
   -2.3869   -6.6665    1.3819 C   0  0  0  0  0  0  0  0  0  0  0  0
   -3.2226   -6.3120    2.0425 O   0  0  0  0  0  0  0  0  0  0  0  0
   -2.1517   -6.4145    0.0715 O   0  0  0  0  0  0  0  0  0  0  0  0
   -2.0193   -7.4885   -0.7909 C   0  0  1  0  0  0  0  0  0  0  0  0
   -2.7545   -8.2850   -0.9331 C   0  0  0  0  0  0  0  0  0  0  0  0
   -2.7268   -8.9866   -1.7809 O   0  0  0  0  0  0  0  0  0  0  0  0
   -3.4039   -8.9299    0.2052 O   0  0  0  0  0  0  0  0  0  0  0  0
   -0.8760   -7.1899   -1.5617 C   0  0  0  0  0  0  0  0  0  0  0  0
    0.2888   -7.7578   -1.3721 C   0  0  0  0  0  0  0  0  0  0  0  0
  3  7  1  0
  6  8  1  0
  5  9  1  0
  9 10  2  0
  9 11  1  0
 11 12  1  0
 12 13  1  0
 13 14  2  0
 13 15  1  0
 12 16  1  6
 16 17  1  0
  1  2  2  0
  2  6  1  0
  5  6  2  0
  4  5  1  0
  3  4  2  0
  1  3  1  0
M  END

$$$$
No_751-/export/home/yangzhenyu/potential_scad_32_flow//YTHDC2/2024-12-06-03-22-00/
     RDKit          3D

 18 18  0  0  1  0  0  0  0  0999 V2000
    1.1787   -8.0297    3.5154 O   0  0  0  0  0  0  0  0  0  0  0  0
    0.9969   -8.9689    3.0048 C   0  0  1  0  0  0  0  0  0  0  0  0
    0.9976   -8.9567    1.6341 C   0  0  2  0  0  0  0  0  0  0  0  0
    1.6062   -9.9071    0.9292 C   0  0  1  0  0  0  0  0  0  0  0  0
    2.1191  -10.9757    1.6503 C   0  0  0  0  0  0  0  0  0  0  0  0
    2.1177  -10.9891    3.0403 C   0  0  1  0  0  0  0  0  0  0  0  0
    1.5441   -9.8905    3.6897 C   0  0  0  0  0  0  0  0  0  0  0  0
    0.5010   -7.8164    1.0436 C   0  0  0  0  0  0  0  0  0  0  0  0
   -0.3627   -7.9721    0.1048 O   0  0  0  0  0  0  0  0  0  0  0  0
    0.8837   -6.5434    1.1459 O   0  0  0  0  0  0  0  0  0  0  0  0
    1.6163  -10.1307    5.0109 O   0  0  0  0  0  0  0  0  0  0  0  0
    2.5899  -12.1894    3.5792 O   0  0  0  0  0  0  0  0  0  0  0  0
    1.6313  -10.0028   -0.4398 C   0  0  0  0  0  0  0  0  0  0  0  0
    1.5877   -8.7369   -1.0899 C   0  0  0  0  0  0  0  0  0  0  0  0
    2.9937   -8.2366   -1.1189 O   0  0  0  0  0  0  0  0  0  0  0  0
    0.9350   -8.4362   -2.0366 O   0  0  0  0  0  0  0  0  0  0  0  0
    0.4690   -5.5222    1.8899 C   0  0  0  0  0  0  0  0  0  0  0  0
   -0.7517   -4.9993    1.3818 C   0  0  0  0  0  0  0  0  0  0  0  0
  2  1  1  1
  2  3  1  0
  4  5  1  0
  2  7  1  0
  6  7  1  0
  3  8  1  1
  8  9  2  0
  8 10  1  0
  7 11  2  0
  6 12  1  6
  4 13  1  6
 13 14  1  0
 14 15  1  0
 14 16  2  0
 10 17  1  0
 17 18  1  0
  3  4  1  0
  5  6  1  0
M  END

$$$$
No_752-/export/home/yangzhenyu/potential_scad_32_flow//YTHDC2/2024-12-06-03-22-00/
     RDKit          3D

 18 19  0  0  1  0  0  0  0  0999 V2000
    1.1787   -8.0297    3.5154 C   0  0  0  0  0  0  0  0  0  0  0  0
    1.0491   -6.8434    2.9820 C   0  0  0  0  0  0  0  0  0  0  0  0
    0.0950   -8.8404    3.2292 C   0  0  0  0  0  0  0  0  0  0  0  0
   -0.9173   -8.4596    2.5152 C   0  0  0  0  0  0  0  0  0  0  0  0
   -1.0331   -7.2162    2.0653 C   0  0  0  0  0  0  0  0  0  0  0  0
   -0.0105   -6.3168    2.3081 C   0  0  0  0  0  0  0  0  0  0  0  0
    0.1465  -10.2446    3.6981 C   0  0  1  0  0  0  0  0  0  0  0  0
   -1.0337  -10.8619    3.9439 C   0  0  0  0  0  0  0  0  0  0  0  0
   -0.8576  -12.3101    4.1964 C   0  0  0  0  0  0  0  0  0  0  0  0
    0.3452  -12.8753    3.9453 C   0  0  0  0  0  0  0  0  0  0  0  0
    1.4894  -12.1495    3.5975 C   0  0  0  0  0  0  0  0  0  0  0  0
    1.3815  -10.8365    3.4146 C   0  0  0  0  0  0  0  0  0  0  0  0
   -0.0395   -5.0053    1.8073 Cl  0  0  0  0  0  0  0  0  0  0  0  0
    0.4804  -14.3697    4.0788 O   0  0  0  0  0  0  0  0  0  0  0  0
    2.5215  -10.1900    3.0932 O   0  0  0  0  0  0  0  0  0  0  0  0
    1.3223  -14.9735    3.1322 C   0  0  0  0  0  0  0  0  0  0  0  0
    1.7869  -14.4139    2.0307 O   0  0  0  0  0  0  0  0  0  0  0  0
    1.6202  -16.2721    3.3407 C   0  0  0  0  0  0  0  0  0  0  0  0
  7  3  1  6
  8  9  1  0
 10 11  1  0
  7 12  1  0
 11 12  1  0
  6 13  1  0
 10 14  1  0
 12 15  2  0
 14 16  1  0
 16 17  2  0
 16 18  1  0
  7  8  1  0
  9 10  1  0
  1  2  2  0
  2  6  1  0
  5  6  2  0
  4  5  1  0
  3  4  2  0
  1  3  1  0
M  END

$$$$
No_753-/export/home/yangzhenyu/potential_scad_32_flow//YTHDC2/2024-12-06-03-22-00/
     RDKit          3D

 20 20  0  0  1  0  0  0  0  0999 V2000
    1.1787   -8.0297    3.5154 O   0  0  0  0  0  0  0  0  0  0  0  0
    0.6747   -7.4019    2.7838 C   0  0  0  0  0  0  0  0  0  0  0  0
    0.5570   -6.0797    2.8560 C   0  0  2  0  0  0  0  0  0  0  0  0
   -0.2158   -5.3007    2.0284 Cl  0  0  0  0  0  0  0  0  0  0  0  0
    0.2008   -8.0215    1.6888 C   0  0  0  0  0  0  0  0  0  0  0  0
    0.9143   -9.3265    1.4974 C   0  0  0  0  0  0  0  0  0  0  0  0
    0.6521  -10.2939    0.5567 C   0  0  0  0  0  0  0  0  0  0  0  0
   -0.0256   -9.7989   -0.7456 N   0  0  0  0  0  0  0  0  0  0  0  0
    1.0358  -11.4639    0.5283 O   0  0  0  0  0  0  0  0  0  0  0  0
    1.6493   -5.3282    3.5506 C   0  0  0  0  0  0  0  0  0  0  0  0
   -0.2994   -8.4334   -0.9753 C   0  0  0  0  0  0  0  0  0  0  0  0
   -1.6929   -8.3602   -1.3938 C   0  0  0  0  0  0  0  0  0  0  0  0
   -2.4838   -9.2363   -1.2436 C   0  0  0  0  0  0  0  0  0  0  0  0
   -3.6008   -9.3656   -0.9123 C   0  0  0  0  0  0  0  0  0  0  0  0
   -4.1107   -8.2404   -0.4079 C   0  0  0  0  0  0  0  0  0  0  0  0
   -3.3002   -6.9677   -0.4267 C   0  0  0  0  0  0  0  0  0  0  0  0
   -2.0170   -7.0642   -1.0014 C   0  0  0  0  0  0  0  0  0  0  0  0
    0.6736   -7.8402   -1.3476 O   0  0  0  0  0  0  0  0  0  0  0  0
    1.3767   -4.5714    4.3391 O   0  0  0  0  0  0  0  0  0  0  0  0
   -5.4191   -7.9700    0.0570 Cl  0  0  0  0  0  0  0  0  0  0  0  0
  1  2  1  0
  2  3  1  0
  3  4  1  6
  2  5  1  0
  5  6  2  3
  6  7  1  0
  7  8  1  0
  7  9  2  0
  3 10  1  0
  8 11  1  0
 11 12  1  0
 11 18  2  0
 10 19  2  0
 15 20  1  0
 12 13  2  0
 13 14  1  0
 14 15  2  0
 15 16  1  0
 16 17  2  0
 12 17  1  0
M  END

$$$$
No_754-/export/home/yangzhenyu/potential_scad_32_flow//YTHDC2/2024-12-06-03-22-00/
     RDKit          3D

 20 20  0  0  1  0  0  0  0  0999 V2000
    1.1787   -8.0297    3.5154 C   0  0  0  0  0  0  0  0  0  0  0  0
    1.0491   -6.8434    2.9820 C   0  0  0  0  0  0  0  0  0  0  0  0
    2.0004   -8.9805    3.0498 C   0  0  1  0  0  0  0  0  0  0  0  0
    1.9318  -10.3260    3.8082 C   0  0  0  0  0  0  0  0  0  0  0  0
    1.5629   -6.7698    1.6212 C   0  0  1  0  0  0  0  0  0  0  0  0
    2.0874   -7.7993    0.9845 C   0  0  0  0  0  0  0  0  0  0  0  0
    2.2492   -9.0232    1.6778 C   0  0  0  0  0  0  0  0  0  0  0  0
    1.6476  -10.4789    4.8684 O   0  0  0  0  0  0  0  0  0  0  0  0
    2.9663  -11.2541    3.3277 N   0  0  0  0  0  0  0  0  0  0  0  0
    1.3381   -5.5845    0.9389 I   0  0  0  0  0  0  0  0  0  0  0  0
    2.8714  -10.0359    1.0156 O   0  0  0  0  0  0  0  0  0  0  0  0
    2.7982  -12.5046    4.0893 C   0  0  0  0  0  0  0  0  0  0  0  0
    2.0854  -13.5982    3.2146 C   0  0  0  0  0  0  0  0  0  0  0  0
    1.7442  -14.6636    3.6914 O   0  0  0  0  0  0  0  0  0  0  0  0
    1.7499  -13.3439    1.9480 O   0  0  0  0  0  0  0  0  0  0  0  0
    1.0099  -15.5624    2.9829 C   0  0  1  0  0  0  0  0  0  0  0  0
    1.8221  -16.4151    2.3021 C   0  0  0  0  0  0  0  0  0  0  0  0
    1.9803  -17.5180    2.4702 O   0  0  0  0  0  0  0  0  0  0  0  0
    2.3913  -16.0133    1.1756 O   0  0  0  0  0  0  0  0  0  0  0  0
    0.2207  -16.4784    3.9458 C   0  0  0  0  0  0  0  0  0  0  0  0
  1  3  1  0
  3  4  1  6
  2  5  1  0
  3  7  1  0
  6  7  1  0
  4  8  2  0
  4  9  1  0
  5 10  1  6
  7 11  2  0
  9 12  1  0
 12 13  1  0
 13 14  1  0
 13 15  2  0
 14 16  1  0
 16 17  1  0
 17 18  1  0
 17 19  2  0
 16 20  1  1
  1  2  1  0
  5  6  1  0
M  END

$$$$
No_755-/export/home/yangzhenyu/potential_scad_32_flow//YTHDC2/2024-12-06-03-22-00/
     RDKit          3D

 17 17  0  0  1  0  0  0  0  0999 V2000
    1.1787   -8.0297    3.5154 O   0  0  0  0  0  0  0  0  0  0  0  0
    0.9969   -8.9689    3.0048 C   0  0  1  0  0  0  0  0  0  0  0  0
    0.9976   -8.9567    1.6341 C   0  0  2  0  0  0  0  0  0  0  0  0
    1.6062   -9.9071    0.9292 C   0  0  1  0  0  0  0  0  0  0  0  0
    2.1191  -10.9757    1.6503 C   0  0  0  0  0  0  0  0  0  0  0  0
    2.1177  -10.9891    3.0403 C   0  0  1  0  0  0  0  0  0  0  0  0
    1.5441   -9.8905    3.6897 C   0  0  0  0  0  0  0  0  0  0  0  0
    0.5010   -7.8165    1.0436 I   0  0  0  0  0  0  0  0  0  0  0  0
    1.6091  -10.2335    5.0484 O   0  0  0  0  0  0  0  0  0  0  0  0
    1.5483   -9.9699   -0.4278 O   0  0  0  0  0  0  0  0  0  0  0  0
    2.6010  -12.1948    3.6442 N   0  0  0  0  0  0  0  0  0  0  0  0
    2.1586  -13.4324    3.2505 C   0  0  0  0  0  0  0  0  0  0  0  0
    2.8447  -14.4605    2.8769 O   0  0  0  0  0  0  0  0  0  0  0  0
    0.6920  -13.6909    3.2800 C   0  0  0  0  0  0  0  0  0  0  0  0
    0.3335  -15.0628    3.0504 C   0  0  0  0  0  0  0  0  0  0  0  0
    0.4859  -16.0016    3.8067 O   0  0  0  0  0  0  0  0  0  0  0  0
    0.4463  -17.3020    3.5681 C   0  0  0  0  0  0  0  0  0  0  0  0
  2  1  1  1
  2  3  1  0
  4  5  1  0
  2  7  1  0
  6  7  1  0
  3  8  1  1
  7  9  2  0
  4 10  1  6
  6 11  1  6
 11 12  1  0
 12 13  2  0
 12 14  1  0
 14 15  1  0
 15 16  1  0
 16 17  1  0
  3  4  1  0
  5  6  1  0
M  END

$$$$
No_756-/export/home/yangzhenyu/potential_scad_32_flow//YTHDC2/2024-12-06-03-22-00/
     RDKit          3D

 16 15  0  0  1  0  0  0  0  0999 V2000
    1.1787   -8.0297    3.5154 C   0  0  0  0  0  0  0  0  0  0  0  0
    1.0491   -6.8434    2.9820 C   0  0  2  0  0  0  0  0  0  0  0  0
    0.0950   -8.8404    3.2292 I   0  0  0  0  0  0  0  0  0  0  0  0
    0.9053   -6.7068    1.5338 C   0  0  0  0  0  0  0  0  0  0  0  0
    0.3397   -5.4963    1.1213 O   0  0  0  0  0  0  0  0  0  0  0  0
    1.4848   -7.4105    0.7415 O   0  0  0  0  0  0  0  0  0  0  0  0
    0.9492   -8.3288   -0.0704 C   0  0  0  0  0  0  0  0  0  0  0  0
    1.6423   -9.4071   -0.4134 C   0  0  0  0  0  0  0  0  0  0  0  0
    2.9025   -9.2868   -0.6804 O   0  0  0  0  0  0  0  0  0  0  0  0
    1.3459  -10.6352   -0.0912 O   0  0  0  0  0  0  0  0  0  0  0  0
    1.5291   -5.7192    3.6927 C   0  0  0  0  0  0  0  0  0  0  0  0
    1.9522   -4.5019    3.2946 O   0  0  0  0  0  0  0  0  0  0  0  0
   -0.2401   -8.2225   -0.5468 C   0  0  0  0  0  0  0  0  0  0  0  0
   -0.4517   -7.9991   -1.9546 O   0  0  0  0  0  0  0  0  0  0  0  0
   -1.4426   -8.8263    0.0283 O   0  0  0  0  0  0  0  0  0  0  0  0
   -2.5123   -8.0370    0.2876 C   0  0  0  0  0  0  0  0  0  0  0  0
  2  1  1  6
  1  3  1  0
  2  4  1  0
  4  5  2  0
  4  6  1  0
  6  7  1  0
  7  8  1  0
  8  9  2  0
  8 10  1  0
  2 11  1  0
 11 12  2  0
  7 13  1  0
 13 14  2  0
 13 15  1  0
 15 16  1  0
M  END

$$$$
No_757-/export/home/yangzhenyu/potential_scad_32_flow//YTHDC2/2024-12-06-03-22-00/
     RDKit          3D

 20 20  0  0  1  0  0  0  0  0999 V2000
    1.1787   -8.0297    3.5154 C   0  0  0  0  0  0  0  0  0  0  0  0
    1.0491   -6.8434    2.9820 C   0  0  0  0  0  0  0  0  0  0  0  0
    0.0950   -8.8404    3.2292 C   0  0  0  0  0  0  0  0  0  0  0  0
   -0.9173   -8.4596    2.5152 C   0  0  0  0  0  0  0  0  0  0  0  0
   -1.0331   -7.2162    2.0653 C   0  0  0  0  0  0  0  0  0  0  0  0
   -0.0105   -6.3168    2.3081 C   0  0  0  0  0  0  0  0  0  0  0  0
    0.1935  -10.3737    3.7416 C   0  0  2  0  0  0  0  0  0  0  0  0
    0.3534  -11.4163    2.8027 C   0  0  2  0  0  0  0  0  0  0  0  0
   -0.2231  -11.5566    1.8523 C   0  0  0  0  0  0  0  0  0  0  0  0
    0.4381  -11.4450    0.6703 C   0  0  0  0  0  0  0  0  0  0  0  0
    0.7592  -10.1231    0.2590 C   0  0  0  0  0  0  0  0  0  0  0  0
    2.1518   -9.7000    0.4029 C   0  0  0  0  0  0  0  0  0  0  0  0
    2.8733  -10.3602    1.2886 N   0  0  0  0  0  0  0  0  0  0  0  0
    2.6264   -8.5654   -0.0837 O   0  0  0  0  0  0  0  0  0  0  0  0
    0.0075   -5.0369    1.6944 F   0  0  0  0  0  0  0  0  0  0  0  0
   -0.7969  -10.5067    4.7441 C   0  0  0  0  0  0  0  0  0  0  0  0
    1.3399  -12.3222    3.3879 C   0  0  0  0  0  0  0  0  0  0  0  0
    2.4346  -12.0600    4.0043 C   0  0  0  0  0  0  0  0  0  0  0  0
    1.1810  -13.6857    3.0339 O   0  0  0  0  0  0  0  0  0  0  0  0
   -1.5291  -12.0786    1.8098 O   0  0  0  0  0  0  0  0  0  0  0  0
  3  7  1  0
  7  8  1  0
  8  9  1  1
  9 10  1  0
 10 11  1  0
 11 12  1  0
 12 13  1  0
 12 14  2  0
  6 15  1  0
  7 16  1  6
  8 17  1  0
 17 18  1  0
 17 19  2  0
  9 20  2  0
  1  2  2  0
  2  6  1  0
  5  6  2  0
  4  5  1  0
  3  4  2  0
  1  3  1  0
M  END

$$$$
No_758-/export/home/yangzhenyu/potential_scad_32_flow//YTHDC2/2024-12-06-03-22-00/
     RDKit          3D

 17 17  0  0  0  0  0  0  0  0999 V2000
    1.1787   -8.0297    3.5154 C   0  0  0  0  0  0  0  0  0  0  0  0
    1.1048   -9.2215    3.2892 C   0  0  0  0  0  0  0  0  0  0  0  0
    1.3627  -10.1721    4.3044 C   0  0  0  0  0  0  0  0  0  0  0  0
    2.3720  -10.8948    4.2468 C   0  0  0  0  0  0  0  0  0  0  0  0
    1.0579   -7.0441    2.4219 C   0  0  0  0  0  0  0  0  0  0  0  0
    0.8578   -7.4970    1.1686 C   0  0  0  0  0  0  0  0  0  0  0  0
    0.7382   -8.7683    0.8754 C   0  0  0  0  0  0  0  0  0  0  0  0
    0.8882   -9.7347    1.9238 C   0  0  0  0  0  0  0  0  0  0  0  0
    0.9437  -11.0299    1.7005 C   0  0  0  0  0  0  0  0  0  0  0  0
   -0.0869  -11.8512    1.8957 O   0  0  0  0  0  0  0  0  0  0  0  0
    2.0237  -11.5609    1.0146 O   0  0  0  0  0  0  0  0  0  0  0  0
    1.1991   -5.3734    2.7365 C   0  0  0  0  0  0  0  0  0  0  0  0
    2.5294  -11.9695    3.8233 C   0  0  0  0  0  0  0  0  0  0  0  0
    3.4983  -10.3987    5.2296 C   0  0  0  0  0  0  0  0  0  0  0  0
    3.1974   -9.7578    6.3108 O   0  0  0  0  0  0  0  0  0  0  0  0
    4.6978  -10.8986    5.1917 O   0  0  0  0  0  0  0  0  0  0  0  0
    0.2917  -10.4339    5.0784 O   0  0  0  0  0  0  0  0  0  0  0  0
  2  3  1  0
  3  4  1  0
  8  9  1  0
  9 10  2  0
  9 11  1  0
  5 12  1  0
  4 13  2  0
  4 14  1  0
 14 15  1  0
 14 16  2  0
  3 17  2  0
  1  2  2  0
  2  8  1  0
  7  8  2  0
  6  7  1  0
  5  6  2  0
  1  5  1  0
M  END

$$$$
No_759-/export/home/yangzhenyu/potential_scad_32_flow//YTHDC2/2024-12-06-03-22-00/
     RDKit          3D

 19 20  0  0  0  0  0  0  0  0999 V2000
    1.1787   -8.0297    3.5154 C   0  0  0  0  0  0  0  0  0  0  0  0
    1.0491   -6.8434    2.9820 C   0  0  0  0  0  0  0  0  0  0  0  0
    0.0950   -8.8404    3.2292 C   0  0  0  0  0  0  0  0  0  0  0  0
    0.0602  -10.1764    3.8231 C   0  0  0  0  0  0  0  0  0  0  0  0
    0.2248   -6.3830    2.0648 C   0  0  0  0  0  0  0  0  0  0  0  0
   -0.6745   -7.2322    1.6857 C   0  0  0  0  0  0  0  0  0  0  0  0
   -0.7374   -8.4992    2.1291 C   0  0  0  0  0  0  0  0  0  0  0  0
   -1.2197  -10.6611    4.0385 C   0  0  0  0  0  0  0  0  0  0  0  0
   -2.2122  -10.2766    3.1435 C   0  0  0  0  0  0  0  0  0  0  0  0
   -2.0039   -9.1685    2.3315 C   0  0  0  0  0  0  0  0  0  0  0  0
    0.2925   -5.1707    1.3181 O   0  0  0  0  0  0  0  0  0  0  0  0
    1.1048   -4.1845    2.0312 C   0  0  0  0  0  0  0  0  0  0  0  0
   -3.4325  -10.9687    3.0831 F   0  0  0  0  0  0  0  0  0  0  0  0
    1.0108  -10.5879    4.8271 C   0  0  0  0  0  0  0  0  0  0  0  0
    1.5824  -11.9378    4.3994 O   0  0  0  0  0  0  0  0  0  0  0  0
    2.0441   -9.9146    5.2637 O   0  0  0  0  0  0  0  0  0  0  0  0
   -1.7995   -6.7678    0.6977 O   0  0  0  0  0  0  0  0  0  0  0  0
   -2.8558   -6.1531    1.1129 C   0  0  0  0  0  0  0  0  0  0  0  0
   -3.6871   -5.9461    0.0073 C   0  0  0  0  0  0  0  0  0  0  0  0
  5 11  1  0
 11 12  1  0
  9 13  1  0
  4 14  1  0
 14 15  2  0
 14 16  1  0
  6 17  1  0
 17 18  1  0
 18 19  1  0
  1  2  2  0
  2  5  1  0
  5  6  2  0
  6  7  1  0
  1  3  1  0
  3  4  2  0
  4  8  1  0
  8  9  2  0
  9 10  1  0
  7 10  2  0
  3  7  1  0
M  END

$$$$
No_760-/export/home/yangzhenyu/potential_scad_32_flow//YTHDC2/2024-12-06-03-22-00/
     RDKit          3D

 18 18  0  0  1  0  0  0  0  0999 V2000
    1.1787   -8.0297    3.5154 C   0  0  0  0  0  0  0  0  0  0  0  0
    1.0491   -6.8434    2.9820 C   0  0  0  0  0  0  0  0  0  0  0  0
    1.9985   -8.9840    2.8958 C   0  0  2  0  0  0  0  0  0  0  0  0
    1.7297   -9.2108    1.6335 C   0  0  0  0  0  0  0  0  0  0  0  0
    1.5234   -8.1478    0.8618 C   0  0  2  0  0  0  0  0  0  0  0  0
    1.0558   -6.9632    1.4912 C   0  0  2  0  0  0  0  0  0  0  0  0
    1.5116   -8.1570   -0.4606 C   0  0  0  0  0  0  0  0  0  0  0  0
    0.6530   -7.6870   -1.2140 N   0  0  0  0  0  0  0  0  0  0  0  0
    2.6673   -8.6501   -1.1128 N   0  0  0  0  0  0  0  0  0  0  0  0
    2.2933  -10.3847    3.6948 C   0  0  0  0  0  0  0  0  0  0  0  0
    3.2235  -10.3152    4.4360 N   0  0  0  0  0  0  0  0  0  0  0  0
    1.6402  -11.4638    3.4957 O   0  0  0  0  0  0  0  0  0  0  0  0
    3.7236  -11.4488    5.2067 C   0  0  0  0  0  0  0  0  0  0  0  0
    5.2096  -11.0138    5.2614 O   0  0  0  0  0  0  0  0  0  0  0  0
    0.8102   -5.6844    3.5432 O   0  0  0  0  0  0  0  0  0  0  0  0
    0.8923   -5.7272    0.9181 Cl  0  0  0  0  0  0  0  0  0  0  0  0
    0.5614   -8.3074   -2.4076 C   0  0  0  0  0  0  0  0  0  0  0  0
   -0.6695   -7.9954   -3.2028 C   0  0  0  0  0  0  0  0  0  0  0  0
  1  2  1  0
  1  3  1  0
  5  4  1  1
  2  6  1  0
  5  6  1  0
  5  7  1  0
  7  8  2  3
  7  9  1  0
  3 10  1  1
 10 11  1  0
 10 12  2  0
 11 13  1  0
 13 14  1  0
  2 15  2  0
  6 16  1  6
  8 17  1  0
 17 18  1  0
  3  4  1  0
M  END

$$$$
No_761-/export/home/yangzhenyu/potential_scad_32_flow//YTHDC2/2024-12-06-03-22-00/
     RDKit          3D

 20 21  0  0  0  0  0  0  0  0999 V2000
    1.1787   -8.0297    3.5154 C   0  0  0  0  0  0  0  0  0  0  0  0
    1.1048   -9.2215    3.2892 C   0  0  0  0  0  0  0  0  0  0  0  0
    1.3627  -10.1721    4.3044 C   0  0  0  0  0  0  0  0  0  0  0  0
    1.7354  -11.4730    3.9023 C   0  0  0  0  0  0  0  0  0  0  0  0
    1.8080  -11.8127    2.7216 C   0  0  0  0  0  0  0  0  0  0  0  0
    1.5854  -11.0021    1.7249 C   0  0  0  0  0  0  0  0  0  0  0  0
    1.3573   -9.7389    1.9287 C   0  0  0  0  0  0  0  0  0  0  0  0
    1.2865   -8.8078    0.9161 C   0  0  0  0  0  0  0  0  0  0  0  0
    1.6845   -9.1638   -0.2896 O   0  0  0  0  0  0  0  0  0  0  0  0
    1.1989   -7.4617    1.0956 N   0  0  0  0  0  0  0  0  0  0  0  0
    1.0953   -7.0087    2.3768 C   0  0  0  0  0  0  0  0  0  0  0  0
    0.9989   -5.6610    2.5702 O   0  0  0  0  0  0  0  0  0  0  0  0
    2.0322  -13.2204    2.3514 O   0  0  0  0  0  0  0  0  0  0  0  0
    1.7431  -14.2568    3.0329 C   0  0  0  0  0  0  0  0  0  0  0  0
    2.1525  -15.4706    2.3831 C   0  0  0  0  0  0  0  0  0  0  0  0
    3.0859  -15.5317    1.5857 O   0  0  0  0  0  0  0  0  0  0  0  0
    1.6489  -16.6022    2.9932 O   0  0  0  0  0  0  0  0  0  0  0  0
    1.9886  -17.8842    2.6279 C   0  0  0  0  0  0  0  0  0  0  0  0
    1.1801  -18.4701    1.9927 C   0  0  0  0  0  0  0  0  0  0  0  0
   -0.0117  -18.0915    2.1162 C   0  0  0  0  0  0  0  0  0  0  0  0
  1  2  1  0
  7  8  1  0
  8  9  2  0
  8 10  1  0
  1 11  1  0
 10 11  1  0
 11 12  2  0
  5 13  1  0
 13 14  1  0
 14 15  1  0
 15 16  2  0
 15 17  1  0
 17 18  1  0
 18 19  1  0
 19 20  1  0
  2  3  2  0
  3  4  1  0
  4  5  2  0
  5  6  1  0
  6  7  2  0
  2  7  1  0
M  END

$$$$
No_762-/export/home/yangzhenyu/potential_scad_32_flow//YTHDC2/2024-12-06-03-22-00/
     RDKit          3D

 19 19  0  0  1  0  0  0  0  0999 V2000
    1.1787   -8.0297    3.5154 O   0  0  0  0  0  0  0  0  0  0  0  0
    0.6747   -7.4019    2.7838 C   0  0  0  0  0  0  0  0  0  0  0  0
    0.7594   -8.0032    1.4295 C   0  0  0  0  0  0  0  0  0  0  0  0
    0.3459   -9.1500    1.3581 C   0  0  0  0  0  0  0  0  0  0  0  0
   -0.4155   -9.6726    2.0241 C   0  0  0  0  0  0  0  0  0  0  0  0
   -1.5426   -9.2172    2.3159 C   0  0  0  0  0  0  0  0  0  0  0  0
   -2.1950   -9.3056    3.5701 Cl  0  0  0  0  0  0  0  0  0  0  0  0
    0.9805   -9.7263    0.1544 C   0  0  0  0  0  0  0  0  0  0  0  0
    1.7552   -9.1940   -0.8186 O   0  0  0  0  0  0  0  0  0  0  0  0
    0.9400  -11.0485   -0.0947 O   0  0  0  0  0  0  0  0  0  0  0  0
    0.4040   -6.1741    3.1492 O   0  0  0  0  0  0  0  0  0  0  0  0
   -2.3978   -8.5660    1.3901 C   0  0  2  0  0  0  0  0  0  0  0  0
   -2.6269   -8.9565    0.1890 N   0  0  0  0  0  0  0  0  0  0  0  0
   -3.2284   -8.4042   -0.6507 C   0  0  0  0  0  0  0  0  0  0  0  0
   -3.5404   -7.1031   -0.3156 N   0  0  0  0  0  0  0  0  0  0  0  0
   -2.9611   -7.1791    1.1177 C   0  0  0  0  0  0  0  0  0  0  0  0
   -3.5531   -8.5760   -2.1045 C   0  0  0  0  0  0  0  0  0  0  0  0
   -2.7763   -7.9716   -3.0325 C   0  0  0  0  0  0  0  0  0  0  0  0
   -2.9163   -7.0906   -3.6974 C   0  0  0  0  0  0  0  0  0  0  0  0
  1  2  1  0
  2  3  1  0
  3  4  1  0
  4  5  1  0
  5  6  1  0
  6  7  1  0
  4  8  1  0
  8  9  1  0
  8 10  2  0
  2 11  2  0
 12  6  1  6
 12 13  1  0
 13 14  2  0
 14 15  1  0
 12 16  1  0
 15 16  1  0
 14 17  1  0
 17 18  1  0
 18 19  2  0
M  END

$$$$
No_763-/export/home/yangzhenyu/potential_scad_32_flow//YTHDC2/2024-12-06-03-22-00/
     RDKit          3D

 18 18  0  0  1  0  0  0  0  0999 V2000
    1.1787   -8.0297    3.5154 F   0  0  0  0  0  0  0  0  0  0  0  0
    0.9085   -8.9213    2.9287 C   0  0  0  0  0  0  0  0  0  0  0  0
    0.9042   -8.7651    1.6474 C   0  0  0  0  0  0  0  0  0  0  0  0
    1.1632   -9.8139    0.8407 C   0  0  0  0  0  0  0  0  0  0  0  0
    1.3763  -11.0768    1.3698 C   0  0  0  0  0  0  0  0  0  0  0  0
    1.4870  -11.2132    2.7065 C   0  0  0  0  0  0  0  0  0  0  0  0
    1.3529  -10.0769    3.4809 C   0  0  0  0  0  0  0  0  0  0  0  0
    0.5012   -7.5508    1.0364 C   0  0  0  0  0  0  0  0  0  0  0  0
   -0.5116   -7.6241    0.0923 Cl  0  0  0  0  0  0  0  0  0  0  0  0
    1.9176  -12.5991    3.4521 C   0  0  0  0  0  0  0  0  0  0  0  0
    0.8291  -13.5006    3.3874 O   0  0  0  0  0  0  0  0  0  0  0  0
    0.8128  -14.5040    2.5335 C   0  0  1  0  0  0  0  0  0  0  0  0
    2.0033  -15.0010    2.1853 C   0  0  0  0  0  0  0  0  0  0  0  0
    2.1479  -16.3724    2.1593 O   0  0  0  0  0  0  0  0  0  0  0  0
    3.0915  -14.3703    1.7879 O   0  0  0  0  0  0  0  0  0  0  0  0
    1.2090   -6.4448    1.2452 Cl  0  0  0  0  0  0  0  0  0  0  0  0
   -0.3062  -15.0035    2.3298 C   0  0  0  0  0  0  0  0  0  0  0  0
   -1.1274  -14.5555    1.4797 O   0  0  0  0  0  0  0  0  0  0  0  0
  1  2  1  0
  3  8  1  0
  8  9  1  0
  6 10  1  0
 10 11  1  0
 11 12  1  0
 12 13  1  0
 13 14  1  0
 13 15  2  0
  8 16  1  0
 12 17  1  1
 17 18  1  0
  2  3  2  0
  3  4  1  0
  4  5  2  0
  5  6  1  0
  6  7  2  0
  2  7  1  0
M  END

$$$$
No_764-/export/home/yangzhenyu/potential_scad_32_flow//YTHDC2/2024-12-06-03-22-00/
     RDKit          3D

 19 18  0  0  1  0  0  0  0  0999 V2000
    1.1787   -8.0297    3.5154 O   0  0  0  0  0  0  0  0  0  0  0  0
    0.9969   -8.9689    3.0048 C   0  0  2  0  0  0  0  0  0  0  0  0
    0.9976   -8.9567    1.6341 C   0  0  0  0  0  0  0  0  0  0  0  0
    1.6062   -9.9071    0.9292 C   0  0  0  0  0  0  0  0  0  0  0  0
    2.1191  -10.9757    1.6503 Cl  0  0  0  0  0  0  0  0  0  0  0  0
    1.6682   -9.7942   -0.5084 C   0  0  0  0  0  0  0  0  0  0  0  0
    1.4137   -8.4959   -1.1457 O   0  0  0  0  0  0  0  0  0  0  0  0
    0.5336   -9.9758    3.7876 C   0  0  0  0  0  0  0  0  0  0  0  0
    1.2986  -10.8811    4.3648 N   0  0  0  0  0  0  0  0  0  0  0  0
   -0.8128  -10.1255    4.0504 C   0  0  0  0  0  0  0  0  0  0  0  0
   -1.4120  -11.2189    4.2543 O   0  0  0  0  0  0  0  0  0  0  0  0
   -1.5471   -8.9037    4.2897 N   0  0  0  0  0  0  0  0  0  0  0  0
   -2.7557   -8.7882    4.7528 C   0  0  0  0  0  0  0  0  0  0  0  0
   -2.9599   -8.6452    6.1234 C   0  0  0  0  0  0  0  0  0  0  0  0
   -2.8754   -7.4088    6.5901 C   0  0  0  0  0  0  0  0  0  0  0  0
   -3.1696   -7.2504    7.8812 O   0  0  0  0  0  0  0  0  0  0  0  0
   -2.7678   -6.4095    5.8849 O   0  0  0  0  0  0  0  0  0  0  0  0
    1.4934   -6.7731    2.7412 C   0  0  0  0  0  0  0  0  0  0  0  0
    0.4856   -5.9226    2.5081 C   0  0  0  0  0  0  0  0  0  0  0  0
  2  1  1  1
  2  3  1  0
  3  4  2  3
  4  5  1  0
  4  6  1  0
  6  7  1  0
  2  8  1  0
  8  9  1  0
  8 10  1  0
 10 11  2  0
 10 12  1  0
 12 13  1  0
 13 14  1  0
 14 15  1  0
 15 16  1  0
 15 17  2  0
  1 18  1  0
 18 19  1  0
M  END

$$$$
No_765-/export/home/yangzhenyu/potential_scad_32_flow//YTHDC2/2024-12-06-03-22-00/
     RDKit          3D

 21 21  0  0  0  0  0  0  0  0999 V2000
    1.1787   -8.0297    3.5154 N   0  0  0  0  0  0  0  0  0  0  0  0
    0.8669   -7.0905    2.8589 C   0  0  0  0  0  0  0  0  0  0  0  0
    0.8842   -5.8387    3.2677 C   0  0  0  0  0  0  0  0  0  0  0  0
    1.2819   -9.4050    3.1259 C   0  0  0  0  0  0  0  0  0  0  0  0
    0.9577   -9.7285    2.0210 C   0  0  0  0  0  0  0  0  0  0  0  0
    0.5397   -8.8365    1.1063 C   0  0  0  0  0  0  0  0  0  0  0  0
    0.5474   -7.4800    1.4498 C   0  0  0  0  0  0  0  0  0  0  0  0
    0.4937   -6.5705    0.7005 C   0  0  0  0  0  0  0  0  0  0  0  0
    1.7183  -10.3866    4.2202 C   0  0  0  0  0  0  0  0  0  0  0  0
    2.1459  -11.7218    3.6943 O   0  0  0  0  0  0  0  0  0  0  0  0
   -0.1244   -5.0193    2.9465 O   0  0  0  0  0  0  0  0  0  0  0  0
    1.8783   -5.3090    3.9645 O   0  0  0  0  0  0  0  0  0  0  0  0
    0.2396   -9.2376   -0.2222 C   0  0  0  0  0  0  0  0  0  0  0  0
    0.9685   -9.0634   -1.2436 C   0  0  0  0  0  0  0  0  0  0  0  0
    2.3120   -9.3198   -0.9982 O   0  0  0  0  0  0  0  0  0  0  0  0
    0.6559   -8.9273   -2.3421 O   0  0  0  0  0  0  0  0  0  0  0  0
    1.0737  -12.6459    3.6164 C   0  0  0  0  0  0  0  0  0  0  0  0
    1.0976  -13.3368    2.2851 C   0  0  0  0  0  0  0  0  0  0  0  0
   -0.0172  -13.1989    1.7824 O   0  0  0  0  0  0  0  0  0  0  0  0
   -0.3972  -13.9421    1.2064 C   0  0  0  0  0  0  0  0  0  0  0  0
   -1.5732  -13.7009    0.4185 C   0  0  0  0  0  0  0  0  0  0  0  0
  2  3  1  0
  7  8  1  0
  4  9  1  0
  9 10  1  0
  3 11  2  0
  3 12  1  0
  6 13  1  0
 13 14  1  0
 14 15  1  0
 14 16  2  0
 10 17  1  0
 17 18  1  0
 18 19  1  0
 19 20  1  0
 20 21  1  0
  1  2  2  0
  2  7  1  0
  6  7  2  0
  5  6  1  0
  4  5  2  0
  1  4  1  0
M  END

$$$$
No_766-/export/home/yangzhenyu/potential_scad_32_flow//YTHDC2/2024-12-06-03-22-00/
     RDKit          3D

 19 20  0  0  1  0  0  0  0  0999 V2000
    1.1787   -8.0297    3.5154 C   0  0  0  0  0  0  0  0  0  0  0  0
    1.1048   -9.2215    3.2892 C   0  0  0  0  0  0  0  0  0  0  0  0
    1.2339   -9.7611    2.0189 C   0  0  0  0  0  0  0  0  0  0  0  0
    1.1954  -11.2312    1.8661 C   0  0  2  0  0  0  0  0  0  0  0  0
    1.2996  -11.5815    0.5387 C   0  0  0  0  0  0  0  0  0  0  0  0
    0.9523   -7.0603    4.0246 C   0  0  0  0  0  0  0  0  0  0  0  0
    1.4512  -10.7897   -0.4450 C   0  0  0  0  0  0  0  0  0  0  0  0
    1.6020   -9.4647   -0.2600 C   0  0  0  0  0  0  0  0  0  0  0  0
    1.4517   -8.9468    1.0157 C   0  0  0  0  0  0  0  0  0  0  0  0
    1.4823   -5.8330    3.7562 Br  0  0  0  0  0  0  0  0  0  0  0  0
    0.9713  -11.9807    2.9852 C   0  0  0  0  0  0  0  0  0  0  0  0
    1.4395  -13.3347    2.8187 C   0  0  0  0  0  0  0  0  0  0  0  0
    1.6575   -8.5994   -1.3962 O   0  0  0  0  0  0  0  0  0  0  0  0
    0.9785  -14.3792    3.6809 C   0  0  0  0  0  0  0  0  0  0  0  0
    1.3375  -15.7301    3.2680 O   0  0  0  0  0  0  0  0  0  0  0  0
    0.3300  -14.3071    4.5409 O   0  0  0  0  0  0  0  0  0  0  0  0
   -0.4706   -6.9297    4.4266 O   0  0  0  0  0  0  0  0  0  0  0  0
    0.6345  -10.2360    4.4376 O   0  0  0  0  0  0  0  0  0  0  0  0
    0.5327  -11.5224    4.1761 C   0  0  0  0  0  0  0  0  0  0  0  0
  1  2  1  0
  2  3  2  0
  3  4  1  0
  4  5  1  6
  1  6  1  0
  5  7  2  0
  7  8  1  0
  3  9  1  0
  8  9  2  0
  6 10  1  0
  4 11  1  0
 11 12  2  3
  8 13  1  0
 12 14  1  0
 14 15  2  0
 14 16  1  0
  6 17  2  0
  2 18  1  0
 11 19  1  0
 18 19  1  0
M  END

$$$$
No_767-/export/home/yangzhenyu/potential_scad_32_flow//YTHDC2/2024-12-06-03-22-00/
     RDKit          3D

 18 18  0  0  0  0  0  0  0  0999 V2000
    1.1787   -8.0297    3.5154 N   0  0  0  0  0  0  0  0  0  0  0  0
    1.0818   -9.0751    3.2053 C   0  0  0  0  0  0  0  0  0  0  0  0
    0.7576   -9.3725    1.9159 C   0  0  0  0  0  0  0  0  0  0  0  0
    0.7445  -10.8746    1.6491 C   0  0  0  0  0  0  0  0  0  0  0  0
    0.9910  -11.7526    2.6067 C   0  0  0  0  0  0  0  0  0  0  0  0
    1.4405  -11.4331    3.8064 C   0  0  0  0  0  0  0  0  0  0  0  0
    1.4304  -10.0463    4.1669 C   0  0  0  0  0  0  0  0  0  0  0  0
    1.1410   -6.8244    2.7961 C   0  0  0  0  0  0  0  0  0  0  0  0
    1.2073   -5.5154    3.2332 N   0  0  0  0  0  0  0  0  0  0  0  0
    1.2643   -6.8591    1.2564 O   0  0  0  0  0  0  0  0  0  0  0  0
    0.9649  -13.1990    2.3350 N   0  0  0  0  0  0  0  0  0  0  0  0
    1.6950  -14.0823    2.7759 C   0  0  0  0  0  0  0  0  0  0  0  0
    1.2970  -15.4620    2.5530 C   0  0  0  0  0  0  0  0  0  0  0  0
    2.3116  -16.4213    2.4317 O   0  0  0  0  0  0  0  0  0  0  0  0
    0.1544  -15.8562    2.4672 O   0  0  0  0  0  0  0  0  0  0  0  0
    0.3353  -11.3163    0.3495 C   0  0  0  0  0  0  0  0  0  0  0  0
   -1.0352  -11.0597    0.0466 O   0  0  0  0  0  0  0  0  0  0  0  0
   -1.3207  -10.3029   -0.8931 C   0  0  0  0  0  0  0  0  0  0  0  0
  1  2  1  0
  1  8  2  3
  8  9  1  0
  8 10  1  0
  5 11  1  0
 11 12  1  0
 12 13  1  0
 13 14  2  0
 13 15  1  0
  4 16  1  0
 16 17  1  0
 17 18  1  0
  2  3  2  0
  3  4  1  0
  4  5  2  0
  5  6  1  0
  6  7  2  0
  2  7  1  0
M  END

$$$$
No_768-/export/home/yangzhenyu/potential_scad_32_flow//YTHDC2/2024-12-06-03-22-00/
     RDKit          3D

 21 21  0  0  1  0  0  0  0  0999 V2000
    1.1787   -8.0297    3.5154 O   0  0  0  0  0  0  0  0  0  0  0  0
    0.9969   -8.9689    3.0048 C   0  0  0  0  0  0  0  0  0  0  0  0
    1.4315  -10.1310    3.5523 C   0  0  0  0  0  0  0  0  0  0  0  0
    1.3751  -11.3715    2.9098 C   0  0  1  0  0  0  0  0  0  0  0  0
    0.9638  -11.4041    1.6414 C   0  0  0  0  0  0  0  0  0  0  0  0
    0.5025  -10.3377    0.9928 C   0  0  0  0  0  0  0  0  0  0  0  0
    0.5777   -9.1031    1.6704 C   0  0  0  0  0  0  0  0  0  0  0  0
    0.1835   -7.8549    1.0870 C   0  0  0  0  0  0  0  0  0  0  0  0
    0.9471   -6.9764    0.7835 N   0  0  0  0  0  0  0  0  0  0  0  0
   -1.1335   -7.6393    0.7081 N   0  0  0  0  0  0  0  0  0  0  0  0
    1.8318  -12.6301    3.4687 C   0  0  0  0  0  0  0  0  0  0  0  0
    0.7990  -13.8147    3.3294 C   0  0  0  0  0  0  0  0  0  0  0  0
    0.8838  -14.5425    2.2259 C   0  0  0  0  0  0  0  0  0  0  0  0
    2.1149  -14.9599    1.6690 O   0  0  0  0  0  0  0  0  0  0  0  0
    0.1222  -15.8042    2.3089 O   0  0  0  0  0  0  0  0  0  0  0  0
   -1.0775   -6.4206    0.0220 C   0  0  0  0  0  0  0  0  0  0  0  0
   -2.3479   -5.9290   -0.4543 C   0  0  0  0  0  0  0  0  0  0  0  0
   -2.3676   -4.7008   -0.9544 C   0  0  0  0  0  0  0  0  0  0  0  0
   -1.2391   -3.8485   -0.8112 C   0  0  0  0  0  0  0  0  0  0  0  0
   -0.1690   -4.1907   -0.0777 C   0  0  0  0  0  0  0  0  0  0  0  0
    1.9324   -7.0722    0.9836 H   0  0  0  0  0  0  0  0  0  0  0  0
  1  2  2  0
  2  3  1  0
  4  5  1  0
  2  7  1  0
  6  7  1  0
  7  8  1  0
  8  9  2  0
  8 10  1  0
  4 11  1  6
 11 12  1  0
 12 13  1  0
 13 14  1  0
 13 15  2  0
 10 16  1  0
 16 17  1  0
 17 18  2  3
 18 19  1  0
 19 20  2  0
  3  4  1  0
  5  6  1  0
  9 21  1  0
M  END

$$$$
No_769-/export/home/yangzhenyu/potential_scad_32_flow//YTHDC2/2024-12-06-03-22-00/
     RDKit          3D

 19 19  0  0  1  0  0  0  0  0999 V2000
    1.1787   -8.0297    3.5154 P   0  0  0  0  0  0  0  0  0  0  0  0
    1.2274   -6.8896    2.8483 O   0  0  0  0  0  0  0  0  0  0  0  0
    0.9078   -9.1123    2.4798 O   0  0  0  0  0  0  0  0  0  0  0  0
    2.5068   -8.4651    4.0430 O   0  0  0  0  0  0  0  0  0  0  0  0
    1.0541   -6.6122    1.4349 C   0  0  0  0  0  0  0  0  0  0  0  0
    0.4218   -5.3484    1.2365 C   0  0  0  0  0  0  0  0  0  0  0  0
   -0.2753   -4.9758    2.2064 O   0  0  0  0  0  0  0  0  0  0  0  0
   -0.0007   -7.9126    4.3416 O   0  0  0  0  0  0  0  0  0  0  0  0
    0.7273   -4.5877    0.3561 O   0  0  0  0  0  0  0  0  0  0  0  0
   -1.8138   -4.8663    2.0772 C   0  0  0  0  0  0  0  0  0  0  0  0
   -2.4400   -5.7541    1.7404 C   0  0  2  0  0  0  0  0  0  0  0  0
   -2.8821   -6.6388    2.9157 C   0  0  1  0  0  0  0  0  0  0  0  0
   -2.6518   -7.8307    3.1476 C   0  0  0  0  0  0  0  0  0  0  0  0
   -2.6772   -8.5770    2.1813 C   0  0  0  0  0  0  0  0  0  0  0  0
   -2.4651   -8.1186    0.8421 C   0  0  0  0  0  0  0  0  0  0  0  0
   -2.3779   -6.7267    0.6461 C   0  0  0  0  0  0  0  0  0  0  0  0
   -2.1724   -6.2378   -0.5968 O   0  0  0  0  0  0  0  0  0  0  0  0
   -3.3407   -5.6950    3.9277 C   0  0  0  0  0  0  0  0  0  0  0  0
   -4.4497   -6.0033    4.5308 C   0  0  0  0  0  0  0  0  0  0  0  0
  1  2  1  0
  1  3  2  0
  1  4  1  0
  2  5  1  0
  5  6  1  0
  6  7  1  0
  1  8  1  0
  6  9  2  0
  7 10  1  0
 11 10  1  1
 11 12  1  0
 12 13  1  0
 13 14  1  0
 11 16  1  0
 15 16  1  0
 16 17  2  0
 12 18  1  1
 18 19  2  0
 14 15  1  0
M  END

$$$$
No_770-/export/home/yangzhenyu/potential_scad_32_flow//YTHDC2/2024-12-06-03-22-00/
     RDKit          3D

 20 20  0  0  1  0  0  0  0  0999 V2000
    1.1787   -8.0297    3.5154 F   0  0  0  0  0  0  0  0  0  0  0  0
    0.5277   -7.9922    2.7193 C   0  0  2  0  0  0  0  0  0  0  0  0
   -0.0323   -9.1169    2.3714 C   0  0  0  0  0  0  0  0  0  0  0  0
   -0.8430   -8.8671    1.2840 O   0  0  0  0  0  0  0  0  0  0  0  0
    0.3539  -10.2285    2.8022 C   0  0  0  0  0  0  0  0  0  0  0  0
    0.3435  -10.6771    3.8117 C   0  0  0  0  0  0  0  0  0  0  0  0
    1.2217   -6.6732    2.0396 C   0  0  0  0  0  0  0  0  0  0  0  0
    0.8122  -12.0169    4.2467 C   0  0  0  0  0  0  0  0  0  0  0  0
    1.3589  -12.7597    3.2842 C   0  0  2  0  0  0  0  0  0  0  0  0
    1.3569  -12.4343    1.9835 C   0  0  0  0  0  0  0  0  0  0  0  0
    0.9158  -11.1047    1.7204 C   0  0  0  0  0  0  0  0  0  0  0  0
    1.7301  -14.1174    3.5454 O   0  0  0  0  0  0  0  0  0  0  0  0
    1.1003   -5.5140    2.6048 O   0  0  0  0  0  0  0  0  0  0  0  0
    1.5345   -6.8443    0.8396 O   0  0  0  0  0  0  0  0  0  0  0  0
    1.0369  -10.5879    0.4616 O   0  0  0  0  0  0  0  0  0  0  0  0
    1.5662  -15.1394    2.6564 C   0  0  0  0  0  0  0  0  0  0  0  0
    0.4222  -15.8060    2.6168 C   0  0  0  0  0  0  0  0  0  0  0  0
   -0.4345  -15.5846    1.8904 C   0  0  0  0  0  0  0  0  0  0  0  0
   -0.1852  -15.7203    0.5281 C   0  0  0  0  0  0  0  0  0  0  0  0
   -1.0540  -15.2414   -0.4684 C   0  0  0  0  0  0  0  0  0  0  0  0
  2  1  1  1
  2  3  1  0
  3  4  2  0
  3  5  1  0
  5  6  1  0
  2  7  1  0
  8  9  1  0
  5 11  1  0
 10 11  1  0
  9 12  1  6
  7 13  1  0
  7 14  2  0
 11 15  2  0
 12 16  1  0
 16 17  1  0
 17 18  1  0
 18 19  1  0
 19 20  2  0
  6  8  1  0
  9 10  1  0
M  END

$$$$
No_771-/export/home/yangzhenyu/potential_scad_32_flow//YTHDC2/2024-12-06-03-22-00/
     RDKit          3D

 19 19  0  0  0  0  0  0  0  0999 V2000
    1.1787   -8.0297    3.5154 C   0  0  0  0  0  0  0  0  0  0  0  0
    1.1048   -9.2215    3.2892 C   0  0  0  0  0  0  0  0  0  0  0  0
    1.3627  -10.1721    4.3044 C   0  0  0  0  0  0  0  0  0  0  0  0
    1.7354  -11.4730    3.9023 C   0  0  0  0  0  0  0  0  0  0  0  0
    1.8080  -11.8127    2.7216 C   0  0  0  0  0  0  0  0  0  0  0  0
    1.5854  -11.0021    1.7249 C   0  0  0  0  0  0  0  0  0  0  0  0
    1.3573   -9.7389    1.9287 C   0  0  0  0  0  0  0  0  0  0  0  0
    1.1102   -8.8712    0.9017 C   0  0  0  0  0  0  0  0  0  0  0  0
    1.5724   -9.1697   -0.3048 C   0  0  0  0  0  0  0  0  0  0  0  0
    1.2378   -8.2159   -1.4226 Cl  0  0  0  0  0  0  0  0  0  0  0  0
    2.1006  -13.4089    2.3123 C   0  0  0  0  0  0  0  0  0  0  0  0
    2.2903  -13.6775    1.0645 O   0  0  0  0  0  0  0  0  0  0  0  0
    1.9489  -14.3217    3.1737 O   0  0  0  0  0  0  0  0  0  0  0  0
    0.8837   -7.0567    2.9319 O   0  0  0  0  0  0  0  0  0  0  0  0
    1.2600   -7.7273    4.8455 O   0  0  0  0  0  0  0  0  0  0  0  0
    2.5779  -10.0296   -0.5831 O   0  0  0  0  0  0  0  0  0  0  0  0
    1.9094  -15.6209    2.7710 C   0  0  0  0  0  0  0  0  0  0  0  0
    0.8065  -16.3331    2.8943 C   0  0  0  0  0  0  0  0  0  0  0  0
   -0.2292  -15.6964    3.0852 O   0  0  0  0  0  0  0  0  0  0  0  0
  1  2  1  0
  7  8  1  0
  8  9  2  3
  9 10  1  0
  5 11  1  0
 11 12  2  0
 11 13  1  0
  1 14  2  0
  1 15  1  0
  9 16  1  0
 13 17  1  0
 17 18  1  0
 18 19  1  0
  2  3  2  0
  3  4  1  0
  4  5  2  0
  5  6  1  0
  6  7  2  0
  2  7  1  0
M  END

$$$$
No_772-/export/home/yangzhenyu/potential_scad_32_flow//YTHDC2/2024-12-06-03-22-00/
     RDKit          3D

 19 19  0  0  0  0  0  0  0  0999 V2000
    1.1787   -8.0297    3.5154 C   0  0  0  0  0  0  0  0  0  0  0  0
    1.1048   -9.2215    3.2892 C   0  0  0  0  0  0  0  0  0  0  0  0
    1.3627  -10.1721    4.3044 C   0  0  0  0  0  0  0  0  0  0  0  0
    1.7354  -11.4730    3.9023 C   0  0  0  0  0  0  0  0  0  0  0  0
    1.8080  -11.8127    2.7216 C   0  0  0  0  0  0  0  0  0  0  0  0
    1.5854  -11.0021    1.7249 C   0  0  0  0  0  0  0  0  0  0  0  0
    1.3573   -9.7389    1.9287 C   0  0  0  0  0  0  0  0  0  0  0  0
    1.2865   -8.8078    0.9161 C   0  0  0  0  0  0  0  0  0  0  0  0
    1.6845   -9.1638   -0.2896 C   0  0  0  0  0  0  0  0  0  0  0  0
    2.0771  -13.2284    2.3629 C   0  0  0  0  0  0  0  0  0  0  0  0
    2.4409  -13.5750    1.0743 O   0  0  0  0  0  0  0  0  0  0  0  0
    1.7497  -14.2470    3.1345 O   0  0  0  0  0  0  0  0  0  0  0  0
    1.6328   -8.1274   -1.3704 O   0  0  0  0  0  0  0  0  0  0  0  0
    0.7522   -7.0891    3.0340 O   0  0  0  0  0  0  0  0  0  0  0  0
    1.4110  -15.4529    2.6468 C   0  0  0  0  0  0  0  0  0  0  0  0
    0.5189  -16.1768    3.4021 C   0  0  0  0  0  0  0  0  0  0  0  0
    0.2731  -17.4919    2.9467 C   0  0  0  0  0  0  0  0  0  0  0  0
    0.8818  -17.9053    1.9222 C   0  0  0  0  0  0  0  0  0  0  0  0
    1.7439  -17.1956    1.2129 C   0  0  0  0  0  0  0  0  0  0  0  0
  1  2  1  0
  7  8  1  0
  8  9  2  3
  5 10  1  0
 10 11  2  0
 10 12  1  0
  9 13  1  0
  1 14  2  0
 12 15  1  0
 15 16  1  0
 16 17  1  0
 17 18  1  0
 18 19  2  0
  2  3  2  0
  3  4  1  0
  4  5  2  0
  5  6  1  0
  6  7  2  0
  2  7  1  0
M  END

$$$$
No_773-/export/home/yangzhenyu/potential_scad_32_flow//YTHDC2/2024-12-06-03-22-00/
     RDKit          3D

 19 18  0  0  0  0  0  0  0  0999 V2000
    1.1787   -8.0297    3.5154 O   0  0  0  0  0  0  0  0  0  0  0  0
    0.9969   -8.9689    3.0048 C   0  0  0  0  0  0  0  0  0  0  0  0
    1.3055  -10.1056    3.6616 C   0  0  0  0  0  0  0  0  0  0  0  0
    2.1315  -10.4529    4.2438 C   0  0  0  0  0  0  0  0  0  0  0  0
    0.4484   -8.8156    1.7225 C   0  0  0  0  0  0  0  0  0  0  0  0
    0.5531   -9.6870    0.8856 C   0  0  0  0  0  0  0  0  0  0  0  0
    0.7278   -9.2920   -0.4701 C   0  0  0  0  0  0  0  0  0  0  0  0
    0.6258   -8.2639   -0.8326 O   0  0  0  0  0  0  0  0  0  0  0  0
    1.2651  -10.1553   -1.2956 O   0  0  0  0  0  0  0  0  0  0  0  0
    1.3045   -6.8120    3.0333 C   0  0  0  0  0  0  0  0  0  0  0  0
    0.3067  -11.3436    3.4191 C   0  0  0  0  0  0  0  0  0  0  0  0
    0.7152  -12.6094    3.7208 C   0  0  0  0  0  0  0  0  0  0  0  0
   -0.0039  -13.7324    3.2511 C   0  0  0  0  0  0  0  0  0  0  0  0
    0.3279  -14.1795    2.1354 C   0  0  0  0  0  0  0  0  0  0  0  0
   -0.3947  -14.0871    1.1987 C   0  0  0  0  0  0  0  0  0  0  0  0
   -1.6784  -13.6783    1.2452 C   0  0  0  0  0  0  0  0  0  0  0  0
   -2.3034  -12.8292    0.2596 C   0  0  0  0  0  0  0  0  0  0  0  0
   -1.5872  -12.8698   -1.0227 C   0  0  0  0  0  0  0  0  0  0  0  0
   -2.1923  -12.1208   -2.1026 C   0  0  0  0  0  0  0  0  0  0  0  0
  1  2  1  0
  2  3  1  0
  3  4  2  0
  2  5  1  0
  5  6  1  0
  6  7  1  0
  7  8  1  0
  7  9  2  0
  1 10  1  0
  3 11  1  0
 11 12  2  3
 12 13  1  0
 13 14  1  0
 14 15  1  0
 15 16  1  0
 16 17  2  3
 17 18  1  0
 18 19  1  0
M  END

$$$$
No_774-/export/home/yangzhenyu/potential_scad_32_flow//YTHDC2/2024-12-06-03-22-00/
     RDKit          3D

 20 21  0  0  0  0  0  0  0  0999 V2000
    1.1787   -8.0297    3.5154 O   0  0  0  0  0  0  0  0  0  0  0  0
    0.6747   -7.4019    2.7838 C   0  0  0  0  0  0  0  0  0  0  0  0
    0.7594   -8.0032    1.4295 C   0  0  0  0  0  0  0  0  0  0  0  0
    1.4743   -7.4398    0.6034 C   0  0  0  0  0  0  0  0  0  0  0  0
    1.8433   -8.4151   -0.4648 C   0  0  0  0  0  0  0  0  0  0  0  0
    1.3204   -9.5205   -0.5909 C   0  0  0  0  0  0  0  0  0  0  0  0
    0.4880  -10.0838    0.3555 C   0  0  0  0  0  0  0  0  0  0  0  0
    0.2363   -9.3226    1.4465 C   0  0  0  0  0  0  0  0  0  0  0  0
   -0.5984   -9.6542    2.4538 C   0  0  0  0  0  0  0  0  0  0  0  0
   -1.8465   -9.1558    2.6200 C   0  0  0  0  0  0  0  0  0  0  0  0
   -2.5053   -9.2941    3.9597 C   0  0  0  0  0  0  0  0  0  0  0  0
   -1.9129  -10.3019    4.7994 C   0  0  0  0  0  0  0  0  0  0  0  0
   -0.7104  -10.8797    4.5575 C   0  0  0  0  0  0  0  0  0  0  0  0
    0.0029  -10.6135    3.4707 C   0  0  0  0  0  0  0  0  0  0  0  0
    1.3483  -10.9819    3.3530 C   0  0  0  0  0  0  0  0  0  0  0  0
    1.8072  -12.1031    3.6389 N   0  0  0  0  0  0  0  0  0  0  0  0
    2.4516  -10.1341    2.9109 O   0  0  0  0  0  0  0  0  0  0  0  0
    0.1884   -6.1670    2.8610 O   0  0  0  0  0  0  0  0  0  0  0  0
    2.6867   -7.9636   -1.5696 O   0  0  0  0  0  0  0  0  0  0  0  0
    1.1917  -12.8301    3.9747 H   0  0  0  0  0  0  0  0  0  0  0  0
  1  2  1  0
  2  3  1  0
  8  9  1  0
 14 15  1  0
 15 16  2  0
 15 17  1  0
  2 18  2  0
  5 19  1  0
  3  4  2  0
  4  5  1  0
  5  6  2  0
  6  7  1  0
  7  8  2  0
  3  8  1  0
  9 10  2  0
 10 11  1  0
 11 12  2  0
 12 13  1  0
 13 14  2  0
  9 14  1  0
 16 20  1  0
M  END

$$$$
No_775-/export/home/yangzhenyu/potential_scad_32_flow//YTHDC2/2024-12-06-03-22-00/
     RDKit          3D

 18 18  0  0  1  0  0  0  0  0999 V2000
    1.1787   -8.0297    3.5154 C   0  0  0  0  0  0  0  0  0  0  0  0
    1.0491   -6.8434    2.9820 C   0  0  0  0  0  0  0  0  0  0  0  0
    1.9985   -8.9840    2.8958 C   0  0  2  0  0  0  0  0  0  0  0  0
    1.7297   -9.2108    1.6335 C   0  0  0  0  0  0  0  0  0  0  0  0
    1.7343   -8.0566    0.8408 C   0  0  2  0  0  0  0  0  0  0  0  0
    1.0269   -6.8892    1.4456 C   0  0  0  0  0  0  0  0  0  0  0  0
    2.0740   -7.9416   -0.3682 C   0  0  0  0  0  0  0  0  0  0  0  0
    1.3156   -7.8710   -1.3006 O   0  0  0  0  0  0  0  0  0  0  0  0
    3.3909   -8.2003   -0.7964 O   0  0  0  0  0  0  0  0  0  0  0  0
    2.3847  -10.1793    3.6507 C   0  0  0  0  0  0  0  0  0  0  0  0
    1.7518  -11.2962    3.7267 C   0  0  0  0  0  0  0  0  0  0  0  0
    2.2433  -12.4738    3.4240 C   0  0  0  0  0  0  0  0  0  0  0  0
    1.3105  -13.5717    3.1806 C   0  0  0  0  0  0  0  0  0  0  0  0
    0.1949  -13.2190    2.4652 C   0  0  0  0  0  0  0  0  0  0  0  0
    0.1929  -12.7355    1.2358 C   0  0  0  0  0  0  0  0  0  0  0  0
   -0.6767  -12.1309    0.5752 O   0  0  0  0  0  0  0  0  0  0  0  0
    1.3950  -13.0205    0.4698 O   0  0  0  0  0  0  0  0  0  0  0  0
    1.8842  -10.3991    0.9792 O   0  0  0  0  0  0  0  0  0  0  0  0
  1  2  1  0
  1  3  1  0
  3  4  1  0
  4  5  1  0
  2  6  1  0
  5  6  1  0
  5  7  1  6
  7  8  2  0
  7  9  1  0
  3 10  1  1
 10 11  1  0
 11 12  1  0
 12 13  1  0
 13 14  1  0
 14 15  1  0
 15 16  2  0
 15 17  1  0
  4 18  2  0
M  END

$$$$
No_776-/export/home/yangzhenyu/potential_scad_32_flow//YTHDC2/2024-12-06-03-22-00/
     RDKit          3D

 19 19  0  0  1  0  0  0  0  0999 V2000
    1.1787   -8.0297    3.5154 C   0  0  0  0  0  0  0  0  0  0  0  0
    1.1048   -9.2215    3.2892 C   0  0  0  0  0  0  0  0  0  0  0  0
    1.3627  -10.1721    4.3044 C   0  0  0  0  0  0  0  0  0  0  0  0
    1.7354  -11.4730    3.9024 C   0  0  0  0  0  0  0  0  0  0  0  0
    1.8080  -11.8127    2.7216 C   0  0  0  0  0  0  0  0  0  0  0  0
    1.5854  -11.0021    1.7249 C   0  0  0  0  0  0  0  0  0  0  0  0
    1.3573   -9.7389    1.9287 C   0  0  0  0  0  0  0  0  0  0  0  0
    1.2865   -8.8078    0.9161 C   0  0  0  0  0  0  0  0  0  0  0  0
    0.9210   -7.5140    1.1674 O   0  0  0  0  0  0  0  0  0  0  0  0
    1.4288   -9.1781   -0.4279 N   0  0  0  0  0  0  0  0  0  0  0  0
    2.0931  -13.2002    2.3123 C   0  0  0  0  0  0  0  0  0  0  0  0
    1.1669  -14.0262    1.6413 O   0  0  0  0  0  0  0  0  0  0  0  0
    3.1358  -13.8354    2.6522 P   0  0  1  0  0  0  0  0  0  0  0  0
    2.9504  -15.2306    2.7730 O   0  0  0  0  0  0  0  0  0  0  0  0
    4.2083  -13.7657    1.7253 O   0  0  0  0  0  0  0  0  0  0  0  0
    0.1169   -7.2094    3.6938 O   0  0  0  0  0  0  0  0  0  0  0  0
    2.3071   -7.1603    3.7576 O   0  0  0  0  0  0  0  0  0  0  0  0
    1.7308  -15.9698    3.0135 C   0  0  0  0  0  0  0  0  0  0  0  0
    1.4663  -17.2584    2.5989 C   0  0  0  0  0  0  0  0  0  0  0  0
  1  2  1  0
  7  8  1  0
  8  9  2  0
  8 10  1  0
  5 11  1  0
 11 12  2  0
 11 13  1  0
 13 14  1  6
 13 15  2  0
  1 16  1  0
  1 17  2  0
 14 18  1  0
 18 19  1  0
  2  3  2  0
  3  4  1  0
  4  5  2  0
  5  6  1  0
  6  7  2  0
  2  7  1  0
M  END

$$$$
No_777-/export/home/yangzhenyu/potential_scad_32_flow//YTHDC2/2024-12-06-03-22-00/
     RDKit          3D

 18 19  0  0  1  0  0  0  0  0999 V2000
    1.1787   -8.0297    3.5154 C   0  0  0  0  0  0  0  0  0  0  0  0
    1.1048   -9.2215    3.2892 C   0  0  0  0  0  0  0  0  0  0  0  0
    1.3627  -10.1721    4.3044 C   0  0  0  0  0  0  0  0  0  0  0  0
    1.7354  -11.4730    3.9023 C   0  0  0  0  0  0  0  0  0  0  0  0
    1.6166  -11.5515    2.5159 C   0  0  0  0  0  0  0  0  0  0  0  0
    1.4172  -10.6242    1.6178 C   0  0  0  0  0  0  0  0  0  0  0  0
    1.2598   -9.4423    1.9811 C   0  0  0  0  0  0  0  0  0  0  0  0
    1.0996   -7.0633    2.5049 C   0  0  1  0  0  0  0  0  0  0  0  0
    1.0991   -5.4983    2.7758 C   0  0  0  0  0  0  0  0  0  0  0  0
    1.1796   -7.4131    1.1870 C   0  0  0  0  0  0  0  0  0  0  0  0
    1.3771   -8.5583    0.9594 N   0  0  0  0  0  0  0  0  0  0  0  0
    1.3536   -6.5688    0.2050 O   0  0  0  0  0  0  0  0  0  0  0  0
    1.8608  -13.0666    2.1268 Cl  0  0  0  0  0  0  0  0  0  0  0  0
    2.0321   -5.0414    3.6687 O   0  0  0  0  0  0  0  0  0  0  0  0
    0.2769   -4.7597    2.1809 O   0  0  0  0  0  0  0  0  0  0  0  0
    1.5362   -9.0443   -0.4498 C   0  0  0  0  0  0  0  0  0  0  0  0
    0.4026   -9.0519   -1.1893 C   0  0  0  0  0  0  0  0  0  0  0  0
    2.6356   -8.5504   -1.0664 O   0  0  0  0  0  0  0  0  0  0  0  0
  1  2  1  0
  8  9  1  1
  8 10  1  0
  7 11  1  0
 10 11  1  0
 10 12  2  0
  5 13  1  0
  9 14  1  0
  9 15  2  0
 11 16  1  0
 16 17  1  0
 16 18  2  0
  1  8  1  0
  2  3  2  0
  3  4  1  0
  4  5  2  0
  5  6  1  0
  6  7  2  0
  2  7  1  0
M  END

$$$$
No_778-/export/home/yangzhenyu/potential_scad_32_flow//YTHDC2/2024-12-06-03-22-00/
     RDKit          3D

 17 17  0  0  1  0  0  0  0  0999 V2000
    1.1787   -8.0297    3.5154 C   0  0  0  0  0  0  0  0  0  0  0  0
    1.0491   -6.8434    2.9820 C   0  0  0  0  0  0  0  0  0  0  0  0
    0.9905   -9.0774    2.6527 C   0  0  0  0  0  0  0  0  0  0  0  0
    0.7897   -8.9519    1.3691 C   0  0  0  0  0  0  0  0  0  0  0  0
    0.7018   -7.7198    0.7892 C   0  0  0  0  0  0  0  0  0  0  0  0
    0.8918   -6.5957    1.6117 C   0  0  0  0  0  0  0  0  0  0  0  0
    1.0711  -10.4814    3.2282 C   0  0  1  0  0  0  0  0  0  0  0  0
    2.1432  -11.0138    3.5962 C   0  0  0  0  0  0  0  0  0  0  0  0
   -0.0912  -10.6996    4.1636 C   0  0  0  0  0  0  0  0  0  0  0  0
    0.8746   -5.2660    1.1123 O   0  0  0  0  0  0  0  0  0  0  0  0
    2.1063  -12.3842    3.8941 C   0  0  0  0  0  0  0  0  0  0  0  0
    2.0975  -13.2258    2.5869 C   0  0  2  0  0  0  0  0  0  0  0  0
    1.9495  -12.5461    1.3973 C   0  0  0  0  0  0  0  0  0  0  0  0
    2.0398  -14.5864    2.7649 C   0  0  0  0  0  0  0  0  0  0  0  0
    2.2349  -15.2699    1.6126 O   0  0  0  0  0  0  0  0  0  0  0  0
    0.8879  -12.8404    0.5971 O   0  0  0  0  0  0  0  0  0  0  0  0
    1.7533  -15.2370    3.8521 N   0  0  0  0  0  0  0  0  0  0  0  0
  3  7  1  0
  7  8  1  0
  7  9  1  1
  6 10  1  0
  8 11  1  0
 12 11  1  1
 12 13  1  0
 12 14  1  0
 14 15  2  0
 13 16  2  0
 14 17  1  0
  1  2  2  0
  2  6  1  0
  5  6  2  0
  4  5  1  0
  3  4  2  0
  1  3  1  0
M  END

$$$$
No_779-/export/home/yangzhenyu/potential_scad_32_flow//YTHDC2/2024-12-06-03-22-00/
     RDKit          3D

 20 21  0  0  1  0  0  0  0  0999 V2000
    1.1787   -8.0297    3.5154 C   0  0  0  0  0  0  0  0  0  0  0  0
    1.0491   -6.8434    2.9820 C   0  0  0  0  0  0  0  0  0  0  0  0
    0.0950   -8.8404    3.2292 C   0  0  0  0  0  0  0  0  0  0  0  0
    0.0602  -10.1764    3.8231 C   0  0  0  0  0  0  0  0  0  0  0  0
    0.2248   -6.3830    2.0648 C   0  0  0  0  0  0  0  0  0  0  0  0
   -0.6745   -7.2322    1.6857 C   0  0  0  0  0  0  0  0  0  0  0  0
   -0.7374   -8.4992    2.1291 C   0  0  0  0  0  0  0  0  0  0  0  0
   -0.0634  -11.3436    3.0593 C   0  0  1  0  0  0  0  0  0  0  0  0
    1.1680  -12.2553    3.1335 C   0  0  0  0  0  0  0  0  0  0  0  0
    1.0829  -13.4805    2.5593 C   0  0  0  0  0  0  0  0  0  0  0  0
   -0.0285  -13.9314    2.0450 C   0  0  0  0  0  0  0  0  0  0  0  0
   -1.1302  -13.1818    1.9575 C   0  0  0  0  0  0  0  0  0  0  0  0
   -1.1471  -11.9271    2.5039 C   0  0  0  0  0  0  0  0  0  0  0  0
    0.4774   -4.8900    1.4114 O   0  0  0  0  0  0  0  0  0  0  0  0
    2.3010  -14.2626    2.5648 C   0  0  0  0  0  0  0  0  0  0  0  0
   -2.3739  -11.2733    2.6298 O   0  0  0  0  0  0  0  0  0  0  0  0
    2.4039  -15.1704    1.5995 O   0  0  0  0  0  0  0  0  0  0  0  0
    3.1756  -14.2272    3.4495 O   0  0  0  0  0  0  0  0  0  0  0  0
    1.2021   -4.1029    2.0941 C   0  0  0  0  0  0  0  0  0  0  0  0
   -0.1903  -10.1003    5.1644 O   0  0  0  0  0  0  0  0  0  0  0  0
  3  4  1  0
  8  4  1  1
  8  9  1  0
 10 11  1  0
  8 13  1  0
 12 13  1  0
  5 14  1  0
 10 15  1  0
 13 16  2  0
 15 17  2  0
 15 18  1  0
 14 19  1  0
  4 20  2  0
  9 10  1  0
 11 12  1  0
  1  2  2  0
  2  5  1  0
  5  6  2  0
  6  7  1  0
  3  7  2  0
  1  3  1  0
M  END

$$$$
No_780-/export/home/yangzhenyu/potential_scad_32_flow//YTHDC2/2024-12-06-03-22-00/
     RDKit          3D

 15 15  0  0  1  0  0  0  0  0999 V2000
    1.1787   -8.0297    3.5154 C   0  0  0  0  0  0  0  0  0  0  0  0
    1.0491   -6.8434    2.9820 C   0  0  0  0  0  0  0  0  0  0  0  0
    1.9985   -8.9840    2.8958 C   0  0  2  0  0  0  0  0  0  0  0  0
    1.7297   -9.2108    1.6335 C   0  0  0  0  0  0  0  0  0  0  0  0
    1.7343   -8.0566    0.8408 C   0  0  2  0  0  0  0  0  0  0  0  0
    1.0269   -6.8892    1.4456 N   0  0  0  0  0  0  0  0  0  0  0  0
    1.7997   -8.0213   -0.4463 N   0  0  0  0  0  0  0  0  0  0  0  0
    2.0351  -10.3271    3.5875 C   0  0  0  0  0  0  0  0  0  0  0  0
    2.9074  -10.5056    4.5197 O   0  0  0  0  0  0  0  0  0  0  0  0
    1.4668  -11.3899    3.1524 O   0  0  0  0  0  0  0  0  0  0  0  0
    0.8575   -5.6375    3.3852 O   0  0  0  0  0  0  0  0  0  0  0  0
    2.1062   -9.0449   -1.1888 C   0  0  0  0  0  0  0  0  0  0  0  0
    3.4289   -9.1462   -1.5443 F   0  0  0  0  0  0  0  0  0  0  0  0
    1.3969   -9.7318   -1.5180 O   0  0  0  0  0  0  0  0  0  0  0  0
    2.0803  -10.2973    1.0627 O   0  0  0  0  0  0  0  0  0  0  0  0
  1  2  1  0
  1  3  1  0
  3  4  1  0
  4  5  1  0
  2  6  1  0
  5  6  1  0
  5  7  1  6
  3  8  1  1
  8  9  1  0
  8 10  2  0
  2 11  2  0
  7 12  1  0
 12 13  1  0
 12 14  2  0
  4 15  2  0
M  END

$$$$
No_781-/export/home/yangzhenyu/potential_scad_32_flow//YTHDC2/2024-12-06-03-22-00/
     RDKit          3D

 18 17  0  0  1  0  0  0  0  0999 V2000
    1.1787   -8.0297    3.5154 I   0  0  0  0  0  0  0  0  0  0  0  0
    0.4528   -9.3028    2.7351 C   0  0  0  0  0  0  0  0  0  0  0  0
   -0.3808   -9.4304    1.9900 C   0  0  0  0  0  0  0  0  0  0  0  0
   -1.0179   -8.4534    1.3614 C   0  0  0  0  0  0  0  0  0  0  0  0
   -2.0520   -8.2692    0.9516 O   0  0  0  0  0  0  0  0  0  0  0  0
   -0.0666   -7.6029    0.4740 N   0  0  0  0  0  0  0  0  0  0  0  0
    1.2652  -10.6064    3.2317 C   0  0  2  0  0  0  0  0  0  0  0  0
    1.4536  -10.9493    4.4573 C   0  0  0  0  0  0  0  0  0  0  0  0
    1.8353  -11.3366    2.1841 C   0  0  0  0  0  0  0  0  0  0  0  0
    1.9010  -12.5809    2.1429 C   0  0  0  0  0  0  0  0  0  0  0  0
    2.2918  -13.3720    0.9621 C   0  0  0  0  0  0  0  0  0  0  0  0
    1.9783  -13.2077   -0.0670 O   0  0  0  0  0  0  0  0  0  0  0  0
    3.2307  -14.2777    1.1821 O   0  0  0  0  0  0  0  0  0  0  0  0
    0.3974  -11.4873    5.0656 O   0  0  0  0  0  0  0  0  0  0  0  0
    2.6127  -10.7992    5.0225 O   0  0  0  0  0  0  0  0  0  0  0  0
    1.2904   -8.0420    0.3347 C   0  0  0  0  0  0  0  0  0  0  0  0
    2.3844   -7.5253    0.8025 C   0  0  0  0  0  0  0  0  0  0  0  0
    1.4837   -9.0931   -0.6449 C   0  0  0  0  0  0  0  0  0  0  0  0
  1  2  1  0
  2  3  1  0
  3  4  1  0
  4  5  2  0
  4  6  1  0
  7  2  1  1
  7  8  1  0
  7  9  1  0
  9 10  2  3
 10 11  1  0
 11 12  2  0
 11 13  1  0
  8 14  1  0
  8 15  2  0
  6 16  1  0
 16 17  1  0
 16 18  1  0
M  END

$$$$
No_782-/export/home/yangzhenyu/potential_scad_32_flow//YTHDC2/2024-12-06-03-22-00/
     RDKit          3D

 19 20  0  0  1  0  0  0  0  0999 V2000
    1.1787   -8.0297    3.5154 C   0  0  0  0  0  0  0  0  0  0  0  0
    1.0491   -6.8434    2.9820 C   0  0  0  0  0  0  0  0  0  0  0  0
    0.9905   -9.0774    2.6527 C   0  0  1  0  0  0  0  0  0  0  0  0
    0.7897   -8.9519    1.3691 C   0  0  0  0  0  0  0  0  0  0  0  0
    0.7018   -7.7198    0.7892 C   0  0  0  0  0  0  0  0  0  0  0  0
    0.8918   -6.5957    1.6117 C   0  0  0  0  0  0  0  0  0  0  0  0
    1.0998  -10.4710    3.2437 C   0  0  1  0  0  0  0  0  0  0  0  0
    0.0472  -11.2546    3.3963 C   0  0  1  0  0  0  0  0  0  0  0  0
    0.1622  -12.5732    3.4140 N   0  0  0  0  0  0  0  0  0  0  0  0
    1.4724  -12.9272    3.0350 C   0  0  2  0  0  0  0  0  0  0  0  0
    2.2320  -12.3907    2.5169 C   0  0  0  0  0  0  0  0  0  0  0  0
    2.2268  -10.9939    2.5145 C   0  0  0  0  0  0  0  0  0  0  0  0
    1.3636  -14.4647    2.9106 C   0  0  0  0  0  0  0  0  0  0  0  0
    0.9135   -5.2644    1.1708 O   0  0  0  0  0  0  0  0  0  0  0  0
    0.4564  -15.2798    3.4229 O   0  0  0  0  0  0  0  0  0  0  0  0
    2.5660  -15.0532    2.6308 O   0  0  0  0  0  0  0  0  0  0  0  0
    1.3948   -5.6717    3.7701 O   0  0  0  0  0  0  0  0  0  0  0  0
   -1.1274  -10.6426    4.1925 C   0  0  0  0  0  0  0  0  0  0  0  0
    3.2484  -10.2593    2.0984 O   0  0  0  0  0  0  0  0  0  0  0  0
  1  2  1  0
  3  4  1  6
  2  6  1  0
  5  6  1  0
  3  7  1  0
  7  8  1  0
  9 10  1  0
  7 12  1  6
 11 12  1  0
 10 13  1  6
  6 14  2  0
 13 15  1  0
 13 16  2  0
  2 17  2  0
  8 18  1  1
 12 19  2  0
  1  3  1  0
  4  5  1  0
  8  9  1  0
 10 11  1  0
M  END

$$$$
No_783-/export/home/yangzhenyu/potential_scad_32_flow//YTHDC2/2024-12-06-03-22-00/
     RDKit          3D

 18 18  0  0  1  0  0  0  0  0999 V2000
    1.1787   -8.0297    3.5154 C   0  0  0  0  0  0  0  0  0  0  0  0
    1.0491   -6.8434    2.9820 C   0  0  0  0  0  0  0  0  0  0  0  0
    0.9905   -9.0774    2.6527 C   0  0  0  0  0  0  0  0  0  0  0  0
    0.7897   -8.9519    1.3691 C   0  0  0  0  0  0  0  0  0  0  0  0
    0.7018   -7.7198    0.7892 C   0  0  0  0  0  0  0  0  0  0  0  0
    0.8918   -6.5957    1.6117 C   0  0  0  0  0  0  0  0  0  0  0  0
    1.0711  -10.4814    3.2282 C   0  0  2  0  0  0  0  0  0  0  0  0
    2.1432  -11.0138    3.5962 C   0  0  2  0  0  0  0  0  0  0  0  0
   -0.0553  -11.2345    3.2840 Cl  0  0  0  0  0  0  0  0  0  0  0  0
    3.0722  -10.2320    4.5407 N   0  0  0  0  0  0  0  0  0  0  0  0
    0.8442   -5.2869    1.1049 O   0  0  0  0  0  0  0  0  0  0  0  0
    4.0301  -11.0858    5.2402 C   0  0  0  0  0  0  0  0  0  0  0  0
    4.9999  -11.3946    4.5508 O   0  0  0  0  0  0  0  0  0  0  0  0
    1.1803   -4.2007    1.8786 C   0  0  0  0  0  0  0  0  0  0  0  0
    2.7214  -12.1100    3.1801 C   0  0  0  0  0  0  0  0  0  0  0  0
    2.6535  -12.3413    1.8178 C   0  0  0  0  0  0  0  0  0  0  0  0
    2.3286  -11.3198    0.9321 O   0  0  0  0  0  0  0  0  0  0  0  0
    2.8173  -13.5219    1.2603 O   0  0  0  0  0  0  0  0  0  0  0  0
  3  7  1  0
  7  8  1  0
  7  9  1  6
  8 10  1  0
  6 11  1  0
 10 12  1  0
 12 13  2  0
 11 14  1  0
  8 15  1  6
 15 16  1  0
 16 17  2  0
 16 18  1  0
  1  2  2  0
  2  6  1  0
  5  6  2  0
  4  5  1  0
  3  4  2  0
  1  3  1  0
M  END

$$$$
No_784-/export/home/yangzhenyu/potential_scad_32_flow//YTHDC2/2024-12-06-03-22-00/
     RDKit          3D

 17 17  0  0  1  0  0  0  0  0999 V2000
    1.1787   -8.0297    3.5154 C   0  0  0  0  0  0  0  0  0  0  0  0
    1.0491   -6.8434    2.9820 C   0  0  0  0  0  0  0  0  0  0  0  0
    1.9985   -8.9840    2.8958 C   0  0  2  0  0  0  0  0  0  0  0  0
    1.7297   -9.2108    1.6335 C   0  0  0  0  0  0  0  0  0  0  0  0
    1.7343   -8.0566    0.8408 C   0  0  0  0  0  0  0  0  0  0  0  0
    1.0269   -6.8892    1.4456 C   0  0  0  0  0  0  0  0  0  0  0  0
    2.0740   -7.9416   -0.3682 O   0  0  0  0  0  0  0  0  0  0  0  0
    2.2757  -10.2253    3.6437 C   0  0  0  0  0  0  0  0  0  0  0  0
    3.1941  -10.3695    4.4607 O   0  0  0  0  0  0  0  0  0  0  0  0
    1.6809  -11.3252    3.2859 O   0  0  0  0  0  0  0  0  0  0  0  0
    0.8364   -5.6529    3.4915 O   0  0  0  0  0  0  0  0  0  0  0  0
    1.0442   -5.6721    0.8623 O   0  0  0  0  0  0  0  0  0  0  0  0
    1.8169  -10.3228    0.9463 O   0  0  0  0  0  0  0  0  0  0  0  0
    3.4324  -11.5670    5.1991 C   0  0  0  0  0  0  0  0  0  0  0  0
    4.9706  -11.3012    5.3407 C   0  0  0  0  0  0  0  0  0  0  0  0
    5.5869  -10.1276    5.2490 O   0  0  0  0  0  0  0  0  0  0  0  0
    6.3255   -9.9913    4.1449 C   0  0  0  0  0  0  0  0  0  0  0  0
  1  2  1  0
  1  3  1  0
  3  4  1  0
  4  5  1  0
  2  6  1  0
  5  6  1  0
  5  7  2  0
  3  8  1  1
  8  9  1  0
  8 10  2  0
  2 11  2  0
  6 12  2  0
  4 13  2  0
  9 14  1  0
 14 15  1  0
 15 16  1  0
 16 17  1  0
M  END

$$$$
No_785-/export/home/yangzhenyu/potential_scad_32_flow//YTHDC2/2024-12-06-03-22-00/
     RDKit          3D

 18 19  0  0  1  0  0  0  0  0999 V2000
    1.1787   -8.0297    3.5154 C   0  0  0  0  0  0  0  0  0  0  0  0
    1.1048   -9.2215    3.2892 C   0  0  0  0  0  0  0  0  0  0  0  0
    1.3627  -10.1721    4.3044 C   0  0  0  0  0  0  0  0  0  0  0  0
    1.7354  -11.4730    3.9023 C   0  0  0  0  0  0  0  0  0  0  0  0
    1.8080  -11.8127    2.7216 C   0  0  0  0  0  0  0  0  0  0  0  0
    1.5854  -11.0021    1.7249 C   0  0  0  0  0  0  0  0  0  0  0  0
    1.3573   -9.7389    1.9287 C   0  0  0  0  0  0  0  0  0  0  0  0
    1.8368   -8.7825    1.1219 Cl  0  0  0  0  0  0  0  0  0  0  0  0
    1.9885  -13.2929    2.4199 C   0  0  2  0  0  0  0  0  0  0  0  0
    1.5871  -14.2040    3.3421 C   0  0  0  0  0  0  0  0  0  0  0  0
    1.5268  -15.5937    3.0206 C   0  0  0  0  0  0  0  0  0  0  0  0
    2.0844  -15.9182    1.7682 C   0  0  0  0  0  0  0  0  0  0  0  0
    2.6948  -15.0885    1.0379 C   0  0  0  0  0  0  0  0  0  0  0  0
    2.5982  -13.7441    1.3048 C   0  0  0  0  0  0  0  0  0  0  0  0
    0.5799   -7.0881    2.9528 O   0  0  0  0  0  0  0  0  0  0  0  0
    2.9788  -12.8575    0.4478 O   0  0  0  0  0  0  0  0  0  0  0  0
    2.0741   -7.4410    4.3841 O   0  0  0  0  0  0  0  0  0  0  0  0
    0.9330  -16.4403    3.9969 O   0  0  0  0  0  0  0  0  0  0  0  0
  1  2  1  0
  7  8  1  0
  9  5  1  1
  9 10  1  0
 11 12  1  0
  9 14  1  0
 13 14  1  0
  1 15  2  0
 14 16  2  0
  1 17  1  0
 11 18  1  0
 10 11  1  0
 12 13  1  0
  2  3  2  0
  3  4  1  0
  4  5  2  0
  5  6  1  0
  6  7  2  0
  2  7  1  0
M  END

$$$$
No_786-/export/home/yangzhenyu/potential_scad_32_flow//YTHDC2/2024-12-06-03-22-00/
     RDKit          3D

 18 19  0  0  1  0  0  0  0  0999 V2000
    1.1787   -8.0297    3.5154 O   0  0  0  0  0  0  0  0  0  0  0  0
    0.6747   -7.4019    2.7838 C   0  0  0  0  0  0  0  0  0  0  0  0
    0.7594   -8.0032    1.4295 C   0  0  1  0  0  0  0  0  0  0  0  0
    1.4743   -7.4398    0.6034 C   0  0  0  0  0  0  0  0  0  0  0  0
    1.8433   -8.4151   -0.4648 C   0  0  0  0  0  0  0  0  0  0  0  0
    1.3279   -9.6577   -0.0923 C   0  0  0  0  0  0  0  0  0  0  0  0
    0.7557   -9.3951    1.2403 C   0  0  2  0  0  0  0  0  0  0  0  0
   -0.5735  -10.0217    1.4522 C   0  0  0  0  0  0  0  0  0  0  0  0
   -0.6730  -11.1965    1.8258 C   0  0  0  0  0  0  0  0  0  0  0  0
   -1.7174  -11.9925    2.1024 S   0  0  0  0  0  0  0  0  0  0  0  0
   -2.8186  -10.6237    2.0767 C   0  0  0  0  0  0  0  0  0  0  0  0
   -1.8445   -9.5385    1.6644 C   0  0  0  0  0  0  0  0  0  0  0  0
    2.8715   -8.3049   -1.2950 O   0  0  0  0  0  0  0  0  0  0  0  0
    0.8066  -12.2904    1.6922 C   0  0  0  0  0  0  0  0  0  0  0  0
    1.7233  -12.2638    2.5829 S   0  0  0  0  0  0  0  0  0  0  0  0
    1.1523  -11.2775    3.7251 C   0  0  0  0  0  0  0  0  0  0  0  0
    0.9214  -12.9902    0.4888 O   0  0  0  0  0  0  0  0  0  0  0  0
    0.1476   -6.3605    3.0649 O   0  0  0  0  0  0  0  0  0  0  0  0
  1  2  1  0
  3  2  1  1
  3  4  1  0
  4  5  1  0
  5  6  1  0
  3  7  1  0
  6  7  1  0
  7  8  1  6
  8  9  2  0
  9 10  1  0
 10 11  1  0
  8 12  1  0
 11 12  2  0
  5 13  2  0
  9 14  1  0
 14 15  1  0
 15 16  1  0
 14 17  2  0
  2 18  2  0
M  END

$$$$
No_787-/export/home/yangzhenyu/potential_scad_32_flow//YTHDC2/2024-12-06-03-22-00/
     RDKit          3D

 18 18  0  0  0  0  0  0  0  0999 V2000
    1.1787   -8.0297    3.5154 C   0  0  0  0  0  0  0  0  0  0  0  0
    1.1048   -9.2215    3.2892 C   0  0  0  0  0  0  0  0  0  0  0  0
    1.3627  -10.1721    4.3044 C   0  0  0  0  0  0  0  0  0  0  0  0
    1.7354  -11.4730    3.9023 C   0  0  0  0  0  0  0  0  0  0  0  0
    1.8080  -11.8127    2.7216 C   0  0  0  0  0  0  0  0  0  0  0  0
    1.5854  -11.0021    1.7249 C   0  0  0  0  0  0  0  0  0  0  0  0
    1.3573   -9.7389    1.9287 C   0  0  0  0  0  0  0  0  0  0  0  0
    1.2865   -8.8078    0.9161 C   0  0  0  0  0  0  0  0  0  0  0  0
    1.6845   -9.1638   -0.2896 O   0  0  0  0  0  0  0  0  0  0  0  0
    1.1989   -7.4617    1.0956 O   0  0  0  0  0  0  0  0  0  0  0  0
    2.0675  -13.2115    2.3139 C   0  0  0  0  0  0  0  0  0  0  0  0
    2.4513  -13.5870    1.0849 O   0  0  0  0  0  0  0  0  0  0  0  0
    2.0125  -14.1963    3.2102 O   0  0  0  0  0  0  0  0  0  0  0  0
    2.2866   -7.3427    3.3864 O   0  0  0  0  0  0  0  0  0  0  0  0
    0.1174   -7.3768    3.7980 O   0  0  0  0  0  0  0  0  0  0  0  0
    1.9969  -15.5276    2.7275 C   0  0  0  0  0  0  0  0  0  0  0  0
    0.8523  -16.2060    2.8754 C   0  0  0  0  0  0  0  0  0  0  0  0
   -0.1710  -15.6165    3.0610 C   0  0  0  0  0  0  0  0  0  0  0  0
  1  2  1  0
  7  8  1  0
  8  9  2  0
  8 10  1  0
  5 11  1  0
 11 12  2  0
 11 13  1  0
  1 14  1  0
  1 15  2  0
 13 16  1  0
 16 17  1  0
 17 18  2  0
  2  3  2  0
  3  4  1  0
  4  5  2  0
  5  6  1  0
  6  7  2  0
  2  7  1  0
M  END

$$$$
No_788-/export/home/yangzhenyu/potential_scad_32_flow//YTHDC2/2024-12-06-03-22-00/
     RDKit          3D

 18 19  0  0  0  0  0  0  0  0999 V2000
    1.1787   -8.0297    3.5154 O   0  0  0  0  0  0  0  0  0  0  0  0
    0.6747   -7.4019    2.7838 C   0  0  0  0  0  0  0  0  0  0  0  0
    0.5570   -6.0797    2.8560 C   0  0  0  0  0  0  0  0  0  0  0  0
   -0.2158   -5.3007    2.0284 C   0  0  0  0  0  0  0  0  0  0  0  0
   -0.8260   -5.9169    1.0290 C   0  0  0  0  0  0  0  0  0  0  0  0
   -0.6925   -7.2407    0.8216 C   0  0  0  0  0  0  0  0  0  0  0  0
    0.1645   -8.0156    1.6621 C   0  0  0  0  0  0  0  0  0  0  0  0
    1.0017   -8.8762    1.1985 C   0  0  0  0  0  0  0  0  0  0  0  0
    0.7367   -9.8563    0.4265 C   0  0  0  0  0  0  0  0  0  0  0  0
    1.5554  -10.9036    0.0332 C   0  0  0  0  0  0  0  0  0  0  0  0
    1.8105  -11.8158    1.1586 C   0  0  0  0  0  0  0  0  0  0  0  0
    1.9761  -11.1510    2.3767 C   0  0  0  0  0  0  0  0  0  0  0  0
    1.6071   -9.7371    2.4279 C   0  0  0  0  0  0  0  0  0  0  0  0
    2.3410  -13.0645    1.0838 Cl  0  0  0  0  0  0  0  0  0  0  0  0
   -1.8336   -5.0854    0.0447 O   0  0  0  0  0  0  0  0  0  0  0  0
   -2.7073   -5.7924   -0.5258 C   0  0  0  0  0  0  0  0  0  0  0  0
   -3.7460   -5.9911    0.0104 O   0  0  0  0  0  0  0  0  0  0  0  0
   -2.4863   -5.9659   -1.8941 O   0  0  0  0  0  0  0  0  0  0  0  0
  1  2  1  0
  7  8  1  0
 11 14  1  0
  5 15  1  0
 15 16  1  0
 16 17  2  0
 16 18  1  0
  2  3  2  0
  3  4  1  0
  4  5  2  0
  5  6  1  0
  6  7  2  0
  2  7  1  0
  8  9  2  0
  9 10  1  0
 10 11  2  0
 11 12  1  0
 12 13  2  0
  8 13  1  0
M  END

$$$$
No_789-/export/home/yangzhenyu/potential_scad_32_flow//YTHDC2/2024-12-06-03-22-00/
     RDKit          3D

 14 14  0  0  1  0  0  0  0  0999 V2000
    1.1787   -8.0297    3.5154 O   0  0  0  0  0  0  0  0  0  0  0  0
    0.6747   -7.4019    2.7838 C   0  0  0  0  0  0  0  0  0  0  0  0
    0.7594   -8.0032    1.4295 C   0  0  0  0  0  0  0  0  0  0  0  0
    0.3459   -9.1500    1.3581 C   0  0  2  0  0  0  0  0  0  0  0  0
    1.1876  -10.0065    2.0240 Cl  0  0  0  0  0  0  0  0  0  0  0  0
    0.3133   -9.4772   -0.2389 C   0  0  0  0  0  0  0  0  0  0  0  0
   -1.1490   -8.8454   -0.6187 C   0  0  1  0  0  0  0  0  0  0  0  0
   -2.0731   -8.8588    0.2352 C   0  0  0  0  0  0  0  0  0  0  0  0
   -2.8785   -7.7443    0.3377 C   0  0  0  0  0  0  0  0  0  0  0  0
   -2.7463   -6.7144   -0.5553 C   0  0  0  0  0  0  0  0  0  0  0  0
   -1.8182   -6.7898   -1.5959 C   0  0  0  0  0  0  0  0  0  0  0  0
   -1.0073   -7.8472   -1.6430 C   0  0  0  0  0  0  0  0  0  0  0  0
   -0.2301   -7.9660   -2.6824 O   0  0  0  0  0  0  0  0  0  0  0  0
    0.7690   -5.9441    2.9145 O   0  0  0  0  0  0  0  0  0  0  0  0
  1  2  1  0
  2  3  1  0
  3  4  1  0
  4  5  1  1
  4  6  1  0
  7  6  1  1
  7  8  1  0
  9 10  1  0
  7 12  1  0
 11 12  1  0
 12 13  2  0
  2 14  2  0
  8  9  1  0
 10 11  1  0
M  END

$$$$
No_790-/export/home/yangzhenyu/potential_scad_32_flow//YTHDC2/2024-12-06-03-22-00/
     RDKit          3D

 18 17  0  0  1  0  0  0  0  0999 V2000
    1.1787   -8.0297    3.5154 C   0  0  0  0  0  0  0  0  0  0  0  0
    1.0491   -6.8434    2.9820 C   0  0  0  0  0  0  0  0  0  0  0  0
    1.9985   -8.9840    2.8958 C   0  0  0  0  0  0  0  0  0  0  0  0
    1.1814  -10.1889    2.5497 C   0  0  0  0  0  0  0  0  0  0  0  0
    0.9817  -11.1388    2.8133 C   0  0  2  0  0  0  0  0  0  0  0  0
    1.6854  -11.5768    4.1035 C   0  0  0  0  0  0  0  0  0  0  0  0
    0.2240   -6.7837    1.8683 C   0  0  0  0  0  0  0  0  0  0  0  0
   -0.4631   -5.8738    1.7449 O   0  0  0  0  0  0  0  0  0  0  0  0
    0.4078   -7.6161    0.8671 O   0  0  0  0  0  0  0  0  0  0  0  0
    0.9823  -12.3034    1.9930 C   0  0  0  0  0  0  0  0  0  0  0  0
    1.1897  -13.5702    2.4787 C   0  0  0  0  0  0  0  0  0  0  0  0
    1.0371  -14.5969    1.6062 N   0  0  0  0  0  0  0  0  0  0  0  0
    1.9321  -15.5548    1.5565 C   0  0  0  0  0  0  0  0  0  0  0  0
    1.5796  -16.8215    1.2836 O   0  0  0  0  0  0  0  0  0  0  0  0
    3.2112  -15.4768    2.1526 O   0  0  0  0  0  0  0  0  0  0  0  0
    0.4734  -12.0891    0.7630 O   0  0  0  0  0  0  0  0  0  0  0  0
    2.7294  -10.6726    4.6038 C   0  0  0  0  0  0  0  0  0  0  0  0
    3.8491  -11.4257    5.2734 O   0  0  0  0  0  0  0  0  0  0  0  0
  1  2  1  0
  1  3  1  0
  3  4  1  0
  5  4  1  6
  5  6  1  0
  2  7  1  0
  7  8  2  0
  7  9  1  0
  5 10  1  0
 10 11  1  0
 11 12  1  0
 12 13  1  0
 13 14  2  0
 13 15  1  0
 10 16  2  0
  6 17  1  0
 17 18  1  0
M  END

$$$$
No_791-/export/home/yangzhenyu/potential_scad_32_flow//YTHDC2/2024-12-06-03-22-00/
     RDKit          3D

 19 19  0  0  1  0  0  0  0  0999 V2000
    1.1787   -8.0297    3.5154 C   0  0  0  0  0  0  0  0  0  0  0  0
    1.0491   -6.8434    2.9820 C   0  0  0  0  0  0  0  0  0  0  0  0
    0.0950   -8.8404    3.2292 C   0  0  2  0  0  0  0  0  0  0  0  0
    0.0828  -10.0362    3.8292 C   0  0  0  0  0  0  0  0  0  0  0  0
    0.8098   -6.7254    1.5846 C   0  0  0  0  0  0  0  0  0  0  0  0
   -0.1071   -7.5527    1.1332 C   0  0  2  0  0  0  0  0  0  0  0  0
   -0.1598   -8.8387    1.7096 C   0  0  0  0  0  0  0  0  0  0  0  0
    0.9275  -10.9681    3.7170 Br  0  0  0  0  0  0  0  0  0  0  0  0
   -0.8050   -7.2943    0.0896 C   0  0  0  0  0  0  0  0  0  0  0  0
   -1.6229   -6.2927   -0.1634 C   0  0  1  0  0  0  0  0  0  0  0  0
   -1.7533   -5.2627    0.6453 C   0  0  0  0  0  0  0  0  0  0  0  0
   -2.1913   -5.9950   -1.4322 C   0  0  0  0  0  0  0  0  0  0  0  0
   -0.5652   -8.1557   -1.0306 O   0  0  0  0  0  0  0  0  0  0  0  0
   -3.1869   -6.7207   -1.8193 C   0  0  0  0  0  0  0  0  0  0  0  0
   -3.0489   -7.2762   -3.0864 C   0  0  0  0  0  0  0  0  0  0  0  0
   -2.8686   -8.5121   -3.3637 C   0  0  0  0  0  0  0  0  0  0  0  0
   -1.9725   -9.0820   -4.2200 C   0  0  0  0  0  0  0  0  0  0  0  0
   -1.5360   -8.2149   -5.2585 C   0  0  0  0  0  0  0  0  0  0  0  0
   -1.6643   -6.7887   -5.1283 C   0  0  0  0  0  0  0  0  0  0  0  0
  1  2  1  0
  1  3  1  0
  3  4  1  6
  2  5  1  0
  5  6  1  0
  3  7  1  0
  6  7  1  0
  4  8  1  0
  6  9  1  6
  9 10  1  0
 10 11  1  6
 10 12  1  0
  9 13  2  0
 12 14  1  0
 14 15  1  0
 15 16  1  0
 16 17  2  3
 17 18  1  0
 18 19  2  0
M  END

$$$$
No_792-/export/home/yangzhenyu/potential_scad_32_flow//YTHDC2/2024-12-06-03-22-00/
     RDKit          3D

 18 18  0  0  0  0  0  0  0  0999 V2000
    1.1787   -8.0297    3.5154 C   0  0  0  0  0  0  0  0  0  0  0  0
    1.1048   -9.2215    3.2892 C   0  0  0  0  0  0  0  0  0  0  0  0
    1.2339   -9.7611    2.0189 C   0  0  0  0  0  0  0  0  0  0  0  0
    1.3583   -9.0036    0.9764 C   0  0  0  0  0  0  0  0  0  0  0  0
    1.5394   -7.6373    1.2201 C   0  0  0  0  0  0  0  0  0  0  0  0
    1.4604   -7.0971    2.3874 C   0  0  0  0  0  0  0  0  0  0  0  0
    1.1370  -11.2343    1.8498 C   0  0  0  0  0  0  0  0  0  0  0  0
    0.5574  -11.6045    0.6168 O   0  0  0  0  0  0  0  0  0  0  0  0
    1.7188  -12.0517    2.5966 N   0  0  0  0  0  0  0  0  0  0  0  0
    1.6737  -13.4543    2.3389 C   0  0  0  0  0  0  0  0  0  0  0  0
    0.6462  -14.1406    3.0682 C   0  0  0  0  0  0  0  0  0  0  0  0
    0.8128  -15.5876    2.8820 O   0  0  0  0  0  0  0  0  0  0  0  0
   -0.2635  -13.6945    3.5864 O   0  0  0  0  0  0  0  0  0  0  0  0
    1.4747   -5.6627    2.6432 Br  0  0  0  0  0  0  0  0  0  0  0  0
    1.8783  -13.7334    0.9849 C   0  0  0  0  0  0  0  0  0  0  0  0
    1.6012   -9.4959   -0.5409 N   0  0  0  0  0  0  0  0  0  0  0  0
    0.9558  -14.0031    0.2550 O   0  0  0  0  0  0  0  0  0  0  0  0
    3.1623  -13.8573    0.6472 O   0  0  0  0  0  0  0  0  0  0  0  0
  3  7  1  0
  7  8  2  0
  7  9  1  0
  9 10  1  0
 10 11  1  0
 11 12  2  0
 11 13  1  0
  6 14  1  0
 10 15  1  0
  4 16  1  0
 15 17  2  0
 15 18  1  0
  1  2  2  0
  2  3  1  0
  3  4  2  0
  4  5  1  0
  5  6  2  0
  1  6  1  0
M  END

$$$$
No_793-/export/home/yangzhenyu/potential_scad_32_flow//YTHDC2/2024-12-06-03-22-00/
     RDKit          3D

 19 20  0  0  0  0  0  0  0  0999 V2000
    1.1787   -8.0297    3.5154 C   0  0  0  0  0  0  0  0  0  0  0  0
    1.0491   -6.8434    2.9820 C   0  0  0  0  0  0  0  0  0  0  0  0
    0.0950   -8.8404    3.2292 C   0  0  0  0  0  0  0  0  0  0  0  0
   -0.9173   -8.4596    2.5152 C   0  0  0  0  0  0  0  0  0  0  0  0
   -1.0331   -7.2162    2.0653 C   0  0  0  0  0  0  0  0  0  0  0  0
   -0.0105   -6.3168    2.3081 C   0  0  0  0  0  0  0  0  0  0  0  0
    0.0485   -4.9783    1.8782 C   0  0  0  0  0  0  0  0  0  0  0  0
   -0.4744   -4.1559    2.2381 C   0  0  0  0  0  0  0  0  0  0  0  0
   -0.3956   -2.6830    1.7790 C   0  0  0  0  0  0  0  0  0  0  0  0
    0.2012  -10.4491    3.7547 C   0  0  0  0  0  0  0  0  0  0  0  0
   -0.9520  -11.1415    3.5324 O   0  0  0  0  0  0  0  0  0  0  0  0
    1.1453  -10.7387    4.5169 O   0  0  0  0  0  0  0  0  0  0  0  0
    0.3873   -2.7213    0.5406 C   0  0  0  0  0  0  0  0  0  0  0  0
    0.9186   -3.6818   -0.0585 C   0  0  0  0  0  0  0  0  0  0  0  0
    0.8417   -4.8994    0.5898 C   0  0  0  0  0  0  0  0  0  0  0  0
    0.4860   -1.3308   -0.1121 O   0  0  0  0  0  0  0  0  0  0  0  0
   -0.5784   -0.6330   -0.4581 C   0  0  0  0  0  0  0  0  0  0  0  0
   -0.5584    0.5320    0.0438 C   0  0  0  0  0  0  0  0  0  0  0  0
   -0.0224    0.7232    1.3306 C   0  0  0  0  0  0  0  0  0  0  0  0
  6  7  1  0
  3 10  1  0
 10 11  2  0
 10 12  1  0
 13 16  1  0
 16 17  1  0
 17 18  1  0
 18 19  1  0
  1  2  2  0
  2  6  1  0
  5  6  2  0
  4  5  1  0
  3  4  2  0
  1  3  1  0
  7  8  2  0
  8  9  1  0
  9 13  2  0
 13 14  1  0
 14 15  2  0
  7 15  1  0
M  END

$$$$
No_794-/export/home/yangzhenyu/potential_scad_32_flow//YTHDC2/2024-12-06-03-22-00/
     RDKit          3D

 20 21  0  0  1  0  0  0  0  0999 V2000
    1.1787   -8.0297    3.5154 C   0  0  0  0  0  0  0  0  0  0  0  0
    1.0491   -6.8434    2.9820 C   0  0  0  0  0  0  0  0  0  0  0  0
    0.9905   -9.0774    2.6527 C   0  0  0  0  0  0  0  0  0  0  0  0
    1.1655  -10.4663    3.1286 C   0  0  0  0  0  0  0  0  0  0  0  0
    1.2197  -11.4898    2.5831 C   0  0  0  0  0  0  0  0  0  0  0  0
    1.0589  -11.4458    1.1293 C   0  0  0  0  0  0  0  0  0  0  0  0
    0.9638  -10.3069    0.4651 C   0  0  0  0  0  0  0  0  0  0  0  0
    0.9191   -9.0789    1.1942 C   0  0  0  0  0  0  0  0  0  0  0  0
    0.9103   -7.8220    0.6974 C   0  0  0  0  0  0  0  0  0  0  0  0
    1.3276   -5.6490    3.6106 C   0  0  0  0  0  0  0  0  0  0  0  0
    1.0461   -6.6823    1.5047 C   0  0  0  0  0  0  0  0  0  0  0  0
    1.4095  -13.0390    3.2363 C   0  0  1  0  0  0  0  0  0  0  0  0
    0.2160  -13.8283    3.0762 Cl  0  0  0  0  0  0  0  0  0  0  0  0
    0.7841   -7.5934   -0.4995 C   0  0  0  0  0  0  0  0  0  0  0  0
    1.6392   -8.0560   -1.4579 O   0  0  0  0  0  0  0  0  0  0  0  0
   -0.2846   -7.1533   -1.0603 O   0  0  0  0  0  0  0  0  0  0  0  0
    1.5868   -4.5844    3.3671 O   0  0  0  0  0  0  0  0  0  0  0  0
    2.7122  -13.6331    2.6730 C   0  0  0  0  0  0  0  0  0  0  0  0
    2.4719  -14.8112    1.9084 C   0  0  0  0  0  0  0  0  0  0  0  0
    2.7097  -16.0274    2.6599 O   0  0  0  0  0  0  0  0  0  0  0  0
  2 10  1  0
  5 12  1  0
 12 13  1  6
  9 14  1  0
 14 15  1  0
 14 16  2  0
 10 17  2  0
 12 18  1  0
 18 19  1  0
 19 20  1  0
  1  2  2  0
  2 11  1  0
  9 11  2  0
  8  9  1  0
  1  3  1  0
  3  4  2  0
  4  5  1  0
  5  6  2  0
  6  7  1  0
  7  8  2  0
  3  8  1  0
M  END

$$$$
No_795-/export/home/yangzhenyu/potential_scad_32_flow//YTHDC2/2024-12-06-03-22-00/
     RDKit          3D

 19 19  0  0  1  0  0  0  0  0999 V2000
    1.1787   -8.0297    3.5154 O   0  0  0  0  0  0  0  0  0  0  0  0
    0.6747   -7.4019    2.7838 C   0  0  1  0  0  0  0  0  0  0  0  0
    0.5570   -6.0797    2.8560 C   0  0  0  0  0  0  0  0  0  0  0  0
    1.6734   -5.4651    3.4094 C   0  0  0  0  0  0  0  0  0  0  0  0
    1.4143   -9.4928    3.3921 C   0  0  0  0  0  0  0  0  0  0  0  0
    1.2094  -10.0943    2.2496 C   0  0  0  0  0  0  0  0  0  0  0  0
    0.6517   -9.2915    1.2230 C   0  0  0  0  0  0  0  0  0  0  0  0
    0.4740   -7.9290    1.4411 C   0  0  0  0  0  0  0  0  0  0  0  0
    1.5495  -11.5538    2.1189 C   0  0  0  0  0  0  0  0  0  0  0  0
    1.6572  -12.0091    0.8576 N   0  0  0  0  0  0  0  0  0  0  0  0
    1.7844  -12.2625    3.1662 O   0  0  0  0  0  0  0  0  0  0  0  0
   -0.1550   -7.3188    0.4439 C   0  0  0  0  0  0  0  0  0  0  0  0
   -0.6439   -7.8613   -0.5744 C   0  0  0  0  0  0  0  0  0  0  0  0
   -1.2611   -7.2624   -1.7774 C   0  0  0  0  0  0  0  0  0  0  0  0
   -1.7547   -5.9428   -1.5709 O   0  0  0  0  0  0  0  0  0  0  0  0
   -1.6189   -7.8443   -2.7970 O   0  0  0  0  0  0  0  0  0  0  0  0
    1.4839   -3.9357    3.4688 O   0  0  0  0  0  0  0  0  0  0  0  0
    1.8775  -13.4350    0.7850 C   0  0  0  0  0  0  0  0  0  0  0  0
    1.1414  -14.1852    1.6332 C   0  0  0  0  0  0  0  0  0  0  0  0
  1  2  1  0
  2  3  1  6
  3  4  1  0
  1  5  1  0
  5  6  2  0
  6  7  1  0
  2  8  1  0
  7  8  2  0
  6  9  1  0
  9 10  1  0
  9 11  2  0
  8 12  1  0
 12 13  2  3
 13 14  1  0
 14 15  2  0
 14 16  1  0
  4 17  1  0
 10 18  1  0
 18 19  1  0
M  END

$$$$
No_796-/export/home/yangzhenyu/potential_scad_32_flow//YTHDC2/2024-12-06-03-22-00/
     RDKit          3D

 18 19  0  0  1  0  0  0  0  0999 V2000
    1.1787   -8.0297    3.5154 N   0  0  0  0  0  0  0  0  0  0  0  0
    1.0818   -9.0751    3.2053 C   0  0  0  0  0  0  0  0  0  0  0  0
    0.6776   -9.2823    1.8784 C   0  0  2  0  0  0  0  0  0  0  0  0
    0.5533  -10.6278    1.4387 C   0  0  2  0  0  0  0  0  0  0  0  0
    1.1574   -7.0177    2.4629 C   0  0  0  0  0  0  0  0  0  0  0  0
    0.8432   -7.9571    1.2929 C   0  0  2  0  0  0  0  0  0  0  0  0
   -0.5257  -10.8784    0.8289 O   0  0  0  0  0  0  0  0  0  0  0  0
    0.6686   -7.5636    0.1833 C   0  0  0  0  0  0  0  0  0  0  0  0
   -0.5448   -7.1798   -0.1309 C   0  0  0  0  0  0  0  0  0  0  0  0
    1.2836  -10.1941    4.1871 C   0  0  0  0  0  0  0  0  0  0  0  0
    0.3240  -11.1615    4.3741 C   0  0  0  0  0  0  0  0  0  0  0  0
    1.0517  -11.6143    2.1660 C   0  0  0  0  0  0  0  0  0  0  0  0
    0.3543  -12.1504    3.2580 C   0  0  1  0  0  0  0  0  0  0  0  0
    1.3897   -5.7750    2.4053 O   0  0  0  0  0  0  0  0  0  0  0  0
    1.5978   -7.9097   -0.7746 C   0  0  0  0  0  0  0  0  0  0  0  0
    2.8797   -8.3057   -0.4654 C   0  0  0  0  0  0  0  0  0  0  0  0
    0.7778  -13.5256    3.6559 C   0  0  0  0  0  0  0  0  0  0  0  0
    0.1580  -14.5971    3.1656 C   0  0  0  0  0  0  0  0  0  0  0  0
  1  2  2  0
  3  2  1  1
  3  4  1  0
  1  5  1  0
  3  6  1  0
  5  6  1  0
  4  7  1  1
  6  8  1  1
  8  9  2  0
  2 10  1  0
 10 11  1  0
  4 12  1  0
 11 13  1  0
 12 13  1  0
  5 14  2  0
  8 15  1  0
 15 16  2  0
 13 17  1  1
 17 18  1  0
M  END

$$$$
No_797-/export/home/yangzhenyu/potential_scad_32_flow//YTHDC2/2024-12-06-03-22-00/
     RDKit          3D

 21 21  0  0  1  0  0  0  0  0999 V2000
    1.1787   -8.0297    3.5154 C   0  0  0  0  0  0  0  0  0  0  0  0
    1.1048   -9.2215    3.2892 C   0  0  0  0  0  0  0  0  0  0  0  0
    1.2339   -9.7611    2.0189 C   0  0  0  0  0  0  0  0  0  0  0  0
    1.4306   -8.9466    1.1170 F   0  0  0  0  0  0  0  0  0  0  0  0
    1.1524  -11.1862    1.7868 C   0  0  0  0  0  0  0  0  0  0  0  0
    1.5307  -12.1376    2.6324 C   0  0  0  0  0  0  0  0  0  0  0  0
    1.4115  -13.4357    2.2066 C   0  0  2  0  0  0  0  0  0  0  0  0
    1.8041  -14.4571    2.9924 C   0  0  2  0  0  0  0  0  0  0  0  0
    1.7228  -15.8153    2.5871 F   0  0  0  0  0  0  0  0  0  0  0  0
    0.7856   -7.0336    2.6630 C   0  0  1  0  0  0  0  0  0  0  0  0
   -0.1064   -7.2489    1.6698 C   0  0  0  0  0  0  0  0  0  0  0  0
   -0.9157   -6.2308    1.5854 C   0  0  0  0  0  0  0  0  0  0  0  0
   -0.7550   -4.9428    2.1773 C   0  0  1  0  0  0  0  0  0  0  0  0
    0.3338   -4.7765    3.0005 C   0  0  0  0  0  0  0  0  0  0  0  0
    1.1419   -5.7970    3.2791 C   0  0  0  0  0  0  0  0  0  0  0  0
    1.1895  -14.8898    4.0351 N   0  0  0  0  0  0  0  0  0  0  0  0
   -1.4451   -3.7538    1.7598 O   0  0  0  0  0  0  0  0  0  0  0  0
    0.5381   -3.4406    3.5669 O   0  0  0  0  0  0  0  0  0  0  0  0
    2.0956   -5.5525    4.2205 O   0  0  0  0  0  0  0  0  0  0  0  0
    1.2409  -13.6147    0.8839 C   0  0  0  0  0  0  0  0  0  0  0  0
    0.8136  -14.6622    0.3862 C   0  0  0  0  0  0  0  0  0  0  0  0
  1  2  1  0
  2  3  2  3
  3  4  1  0
  3  5  1  0
  5  6  2  3
  6  7  1  0
  7  8  1  0
  8  9  1  0
 10 11  1  0
 12 13  1  0
 10 15  1  0
 14 15  1  0
  8 16  1  1
 13 17  1  6
 14 18  1  0
 15 19  2  0
  7 20  1  6
 20 21  2  0
 10  1  1  1
 11 12  1  0
 13 14  1  0
M  END

$$$$
No_798-/export/home/yangzhenyu/potential_scad_32_flow//YTHDC2/2024-12-06-03-22-00/
     RDKit          3D

 19 20  0  0  1  0  0  0  0  0999 V2000
    1.1787   -8.0297    3.5154 C   0  0  0  0  0  0  0  0  0  0  0  0
    1.1048   -9.2215    3.2892 C   0  0  0  0  0  0  0  0  0  0  0  0
    1.2339   -9.7611    2.0189 C   0  0  0  0  0  0  0  0  0  0  0  0
    1.3583   -9.0036    0.9764 C   0  0  0  0  0  0  0  0  0  0  0  0
    1.5996   -7.6362    1.1311 C   0  0  0  0  0  0  0  0  0  0  0  0
    1.4830   -7.0928    2.3626 C   0  0  0  0  0  0  0  0  0  0  0  0
    1.4898   -5.7274    2.6199 C   0  0  0  0  0  0  0  0  0  0  0  0
    1.1681  -11.2222    1.8390 C   0  0  1  0  0  0  0  0  0  0  0  0
    0.7145  -11.5870    0.5424 N   0  0  0  0  0  0  0  0  0  0  0  0
    1.6013  -12.0513    2.6406 C   0  0  0  0  0  0  0  0  0  0  0  0
    1.9227  -11.8602    3.8690 C   0  0  0  0  0  0  0  0  0  0  0  0
    1.8285  -13.4500    2.1193 C   0  0  0  0  0  0  0  0  0  0  0  0
    1.7084  -13.6759    0.7982 C   0  0  0  0  0  0  0  0  0  0  0  0
    1.0094  -12.7635    0.0969 C   0  0  0  0  0  0  0  0  0  0  0  0
    2.3805  -14.4256    2.9531 O   0  0  0  0  0  0  0  0  0  0  0  0
    1.7019   -5.1629    3.8563 O   0  0  0  0  0  0  0  0  0  0  0  0
    1.3213   -4.8277    1.6644 O   0  0  0  0  0  0  0  0  0  0  0  0
    0.1882  -13.1687   -0.9211 O   0  0  0  0  0  0  0  0  0  0  0  0
    1.6134   -9.4393   -0.3074 O   0  0  0  0  0  0  0  0  0  0  0  0
  6  7  1  0
  8  3  1  6
  8  9  1  0
  8 10  1  0
 10 11  2  0
 10 12  1  0
 12 13  1  0
  9 14  1  0
 13 14  1  0
 12 15  2  0
  7 16  1  0
  7 17  2  0
 14 18  2  0
  4 19  1  0
  1  2  2  0
  2  3  1  0
  3  4  2  0
  4  5  1  0
  5  6  2  0
  1  6  1  0
M  END

$$$$
No_799-/export/home/yangzhenyu/potential_scad_32_flow//YTHDC2/2024-12-06-03-22-00/
     RDKit          3D

 18 18  0  0  1  0  0  0  0  0999 V2000
    1.1787   -8.0297    3.5154 C   0  0  0  0  0  0  0  0  0  0  0  0
    1.0491   -6.8434    2.9820 C   0  0  0  0  0  0  0  0  0  0  0  0
    0.0950   -8.8404    3.2292 N   0  0  0  0  0  0  0  0  0  0  0  0
    0.7571   -6.7649    1.5728 C   0  0  0  0  0  0  0  0  0  0  0  0
   -0.1535   -7.5901    1.1767 C   0  0  2  0  0  0  0  0  0  0  0  0
   -0.0410   -8.8994    1.6454 C   0  0  0  0  0  0  0  0  0  0  0  0
    0.1213  -10.2512    3.7860 C   0  0  2  0  0  0  0  0  0  0  0  0
   -0.0945  -11.3254    3.0151 C   0  0  0  0  0  0  0  0  0  0  0  0
    0.5050  -11.7808    2.2458 Cl  0  0  0  0  0  0  0  0  0  0  0  0
    1.1219   -5.6331    0.9638 O   0  0  0  0  0  0  0  0  0  0  0  0
   -1.4945  -11.9136    3.3961 O   0  0  0  0  0  0  0  0  0  0  0  0
    0.2333  -10.1946    5.1277 C   0  0  0  0  0  0  0  0  0  0  0  0
   -0.8322   -7.3253    0.0655 C   0  0  0  0  0  0  0  0  0  0  0  0
   -0.6446   -7.9796   -1.1048 C   0  0  0  0  0  0  0  0  0  0  0  0
    0.2799   -8.8539   -1.2633 C   0  0  0  0  0  0  0  0  0  0  0  0
   -1.4241   -7.8278   -2.2030 C   0  0  0  0  0  0  0  0  0  0  0  0
   -1.3090   -8.5640   -3.3599 O   0  0  0  0  0  0  0  0  0  0  0  0
   -2.4810   -6.8924   -2.3729 O   0  0  0  0  0  0  0  0  0  0  0  0
  1  2  1  0
  1  3  1  0
  2  4  1  0
  4  5  1  0
  3  6  1  0
  5  6  1  0
  3  7  1  0
  7  8  1  0
  8  9  1  0
  4 10  2  0
  8 11  2  0
  7 12  1  1
  5 13  1  6
 13 14  1  0
 14 15  1  0
 14 16  1  0
 16 17  2  0
 16 18  1  0
M  END

$$$$
No_800-/export/home/yangzhenyu/potential_scad_32_flow//YTHDC2/2024-12-06-03-22-00/
     RDKit          3D

 18 18  0  0  1  0  0  0  0  0999 V2000
    1.1787   -8.0297    3.5154 C   0  0  0  0  0  0  0  0  0  0  0  0
    1.0491   -6.8434    2.9820 C   0  0  2  0  0  0  0  0  0  0  0  0
    0.9905   -9.0774    2.6527 C   0  0  0  0  0  0  0  0  0  0  0  0
    0.7897   -8.9519    1.3691 C   0  0  0  0  0  0  0  0  0  0  0  0
    0.7018   -7.7198    0.7892 C   0  0  0  0  0  0  0  0  0  0  0  0
    0.8918   -6.5957    1.6117 C   0  0  0  0  0  0  0  0  0  0  0  0
    1.0600  -10.5680    3.3321 C   0  0  1  0  0  0  0  0  0  0  0  0
   -0.1041  -11.1772    3.5150 C   0  0  0  0  0  0  0  0  0  0  0  0
   -0.1608  -12.4876    3.3268 O   0  0  0  0  0  0  0  0  0  0  0  0
   -1.3032  -10.4605    3.5103 O   0  0  0  0  0  0  0  0  0  0  0  0
    0.8387   -5.2694    1.1572 O   0  0  0  0  0  0  0  0  0  0  0  0
    2.0761  -11.3719    2.8079 C   0  0  0  0  0  0  0  0  0  0  0  0
    2.0709  -11.3391    1.4776 C   0  0  0  0  0  0  0  0  0  0  0  0
    1.5618  -12.6185    1.0029 O   0  0  0  0  0  0  0  0  0  0  0  0
    2.8459  -10.8847    0.5667 O   0  0  0  0  0  0  0  0  0  0  0  0
    1.4184   -5.7013    3.7929 C   0  0  0  0  0  0  0  0  0  0  0  0
    0.6259   -4.6286    3.8767 N   0  0  0  0  0  0  0  0  0  0  0  0
    1.3223   -3.3525    3.8668 C   0  0  0  0  0  0  0  0  0  0  0  0
  1  2  1  0
  3  4  1  0
  2  6  1  0
  5  6  1  0
  3  7  1  0
  7  8  1  0
  8  9  1  0
  8 10  2  0
  6 11  2  0
  7 12  1  6
 12 13  1  0
 13 14  1  0
 13 15  2  0
  2 16  1  6
 16 17  1  0
 17 18  1  0
  1  3  1  0
  4  5  1  0
M  END

$$$$
No_801-/export/home/yangzhenyu/potential_scad_32_flow//YTHDC2/2024-12-06-03-22-00/
     RDKit          3D

 19 19  0  0  1  0  0  0  0  0999 V2000
    1.1787   -8.0297    3.5154 C   0  0  0  0  0  0  0  0  0  0  0  0
    1.0491   -6.8434    2.9820 C   0  0  0  0  0  0  0  0  0  0  0  0
    1.9985   -8.9840    2.8958 C   0  0  2  0  0  0  0  0  0  0  0  0
    1.7297   -9.2108    1.6335 C   0  0  0  0  0  0  0  0  0  0  0  0
    1.7343   -8.0566    0.8408 N   0  0  0  0  0  0  0  0  0  0  0  0
    1.4526   -6.5789    1.8710 C   0  0  0  0  0  0  0  0  0  0  0  0
    1.8694  -10.5003    3.4472 C   0  0  0  0  0  0  0  0  0  0  0  0
    1.1915  -11.4208    2.9839 N   0  0  0  0  0  0  0  0  0  0  0  0
    1.4346  -12.7472    3.2114 C   0  0  0  0  0  0  0  0  0  0  0  0
    1.4183  -13.6726    2.2155 C   0  0  0  0  0  0  0  0  0  0  0  0
    1.7430  -14.9804    2.2600 O   0  0  0  0  0  0  0  0  0  0  0  0
    1.6735  -13.1154    0.9198 O   0  0  0  0  0  0  0  0  0  0  0  0
    1.1487   -5.6120    1.0018 O   0  0  0  0  0  0  0  0  0  0  0  0
    2.0691  -10.1157    0.7725 O   0  0  0  0  0  0  0  0  0  0  0  0
    2.2727  -10.5662    4.8231 O   0  0  0  0  0  0  0  0  0  0  0  0
    0.8356   -5.7232    3.6277 O   0  0  0  0  0  0  0  0  0  0  0  0
    1.1105  -13.2541    4.3063 O   0  0  0  0  0  0  0  0  0  0  0  0
    1.8845   -7.8288   -0.4774 C   0  0  0  0  0  0  0  0  0  0  0  0
    1.0398   -7.6606   -1.2195 C   0  0  0  0  0  0  0  0  0  0  0  0
  1  2  1  0
  1  3  1  0
  3  4  1  0
  4  5  1  0
  2  6  1  0
  5  6  1  0
  3  7  1  1
  7  8  1  0
  8  9  1  0
  9 10  1  0
 10 11  2  0
 10 12  1  0
  6 13  2  0
  4 14  2  0
  7 15  2  0
  2 16  2  0
  9 17  2  0
  5 18  1  0
 18 19  2  0
M  END

$$$$
No_802-/export/home/yangzhenyu/potential_scad_32_flow//YTHDC2/2024-12-06-03-22-00/
     RDKit          3D

 19 19  0  0  1  0  0  0  0  0999 V2000
    1.1787   -8.0297    3.5154 O   0  0  0  0  0  0  0  0  0  0  0  0
    0.6747   -7.4019    2.7838 S   0  0  0  0  0  0  0  0  0  0  0  0
    1.2053   -7.9241    1.4359 C   0  0  0  0  0  0  0  0  0  0  0  0
   -0.9177   -7.5236    2.6797 C   0  0  0  0  0  0  0  0  0  0  0  0
    1.2859   -9.2439    1.1902 C   0  0  1  0  0  0  0  0  0  0  0  0
    1.1233  -10.1647    1.9458 C   0  0  0  0  0  0  0  0  0  0  0  0
    1.2362  -11.5437    1.4165 C   0  0  2  0  0  0  0  0  0  0  0  0
    0.7577  -12.0058    0.4329 C   0  0  0  0  0  0  0  0  0  0  0  0
    1.0307   -5.9265    2.9688 O   0  0  0  0  0  0  0  0  0  0  0  0
    1.2660   -9.5112   -0.3327 C   0  0  0  0  0  0  0  0  0  0  0  0
    0.8747  -10.8988   -0.6637 C   0  0  0  0  0  0  0  0  0  0  0  0
    1.4030   -8.7251   -1.1772 O   0  0  0  0  0  0  0  0  0  0  0  0
    1.1269  -12.8089    2.6716 C   0  0  0  0  0  0  0  0  0  0  0  0
    0.2769  -13.7704    2.4614 C   0  0  0  0  0  0  0  0  0  0  0  0
    0.7884  -15.0988    2.8111 C   0  0  0  0  0  0  0  0  0  0  0  0
    0.9337  -16.0486    2.0189 C   0  0  0  0  0  0  0  0  0  0  0  0
    1.7495  -17.2878    2.4194 C   0  0  0  0  0  0  0  0  0  0  0  0
    2.1972  -17.4429    3.6696 C   0  0  0  0  0  0  0  0  0  0  0  0
    1.8230  -16.5119    4.5866 C   0  0  0  0  0  0  0  0  0  0  0  0
  1  2  2  0
  2  3  1  0
  2  4  1  0
  5  3  1  6
  6  7  1  0
  2  9  2  0
  5 10  1  0
  8 11  1  0
 10 11  1  0
 10 12  2  0
  7 13  1  1
 13 14  1  0
 14 15  1  0
 15 16  1  0
 16 17  2  3
 17 18  1  0
 18 19  2  0
  5  6  1  0
  7  8  1  0
M  END

$$$$
No_803-/export/home/yangzhenyu/potential_scad_32_flow//YTHDC2/2024-12-06-03-22-00/
     RDKit          3D

 17 17  0  0  0  0  0  0  0  0999 V2000
    1.1787   -8.0297    3.5154 C   0  0  0  0  0  0  0  0  0  0  0  0
    1.1048   -9.2215    3.2892 C   0  0  0  0  0  0  0  0  0  0  0  0
    1.3627  -10.1721    4.3044 C   0  0  0  0  0  0  0  0  0  0  0  0
    1.7354  -11.4730    3.9023 C   0  0  0  0  0  0  0  0  0  0  0  0
    1.8080  -11.8127    2.7216 C   0  0  0  0  0  0  0  0  0  0  0  0
    1.5854  -11.0021    1.7249 C   0  0  0  0  0  0  0  0  0  0  0  0
    1.3573   -9.7389    1.9287 C   0  0  0  0  0  0  0  0  0  0  0  0
    1.2865   -8.8078    0.9161 C   0  0  0  0  0  0  0  0  0  0  0  0
    1.6845   -9.1638   -0.2896 C   0  0  0  0  0  0  0  0  0  0  0  0
    2.0771  -13.2284    2.3629 O   0  0  0  0  0  0  0  0  0  0  0  0
    1.6800   -8.1274   -1.3872 O   0  0  0  0  0  0  0  0  0  0  0  0
    2.2369   -7.2025    3.6243 O   0  0  0  0  0  0  0  0  0  0  0  0
   -0.0270   -7.4263    3.6494 N   0  0  0  0  0  0  0  0  0  0  0  0
    1.9115  -13.7686    1.1001 C   0  0  0  0  0  0  0  0  0  0  0  0
    0.6118  -13.8872    0.7621 C   0  0  0  0  0  0  0  0  0  0  0  0
    0.0774  -14.7483    0.7881 C   0  0  0  0  0  0  0  0  0  0  0  0
    0.5559  -15.9576    1.1377 C   0  0  0  0  0  0  0  0  0  0  0  0
  1  2  1  0
  7  8  1  0
  8  9  2  3
  5 10  1  0
  9 11  1  0
  1 12  2  0
  1 13  1  0
 10 14  1  0
 14 15  1  0
 15 16  1  0
 16 17  1  0
  2  3  2  0
  3  4  1  0
  4  5  2  0
  5  6  1  0
  6  7  2  0
  2  7  1  0
M  END

$$$$
No_804-/export/home/yangzhenyu/potential_scad_32_flow//YTHDC2/2024-12-06-03-22-00/
     RDKit          3D

 19 19  0  0  1  0  0  0  0  0999 V2000
    1.1787   -8.0297    3.5154 C   0  0  0  0  0  0  0  0  0  0  0  0
    1.0491   -6.8434    2.9820 C   0  0  0  0  0  0  0  0  0  0  0  0
    1.9985   -8.9840    2.8958 C   0  0  0  0  0  0  0  0  0  0  0  0
    1.1815  -10.1889    2.5497 C   0  0  1  0  0  0  0  0  0  0  0  0
    0.3496  -10.1352    1.6537 C   0  0  0  0  0  0  0  0  0  0  0  0
    0.2726  -10.8443    0.9221 C   0  0  1  0  0  0  0  0  0  0  0  0
    0.8884  -12.2473    1.0851 C   0  0  0  0  0  0  0  0  0  0  0  0
    1.9321  -12.4155    1.9755 C   0  0  0  0  0  0  0  0  0  0  0  0
    2.0858  -11.2296    2.8823 C   0  0  0  0  0  0  0  0  0  0  0  0
    1.8300   -5.7480    3.3547 C   0  0  0  0  0  0  0  0  0  0  0  0
    1.5174   -4.5271    2.7470 C   0  0  0  0  0  0  0  0  0  0  0  0
    1.0001   -3.5306    3.5854 O   0  0  0  0  0  0  0  0  0  0  0  0
    2.7872  -11.3633    4.0256 O   0  0  0  0  0  0  0  0  0  0  0  0
    1.3677   -4.3787    1.5292 O   0  0  0  0  0  0  0  0  0  0  0  0
   -0.7348  -11.0221   -0.1738 O   0  0  0  0  0  0  0  0  0  0  0  0
   -1.6522  -11.8590   -0.3161 C   0  0  0  0  0  0  0  0  0  0  0  0
   -1.7030  -12.4267   -1.4764 C   0  0  0  0  0  0  0  0  0  0  0  0
   -2.5510  -12.7925   -1.8718 C   0  0  0  0  0  0  0  0  0  0  0  0
   -3.7953  -12.9574   -1.1357 C   0  0  0  0  0  0  0  0  0  0  0  0
  1  2  1  0
  1  3  1  0
  4  3  1  6
  4  5  1  0
  6  7  1  0
  4  9  1  0
  8  9  1  0
  2 10  1  0
 10 11  1  0
 11 12  1  0
  9 13  2  0
 11 14  2  0
  6 15  1  1
 15 16  1  0
 16 17  1  0
 17 18  2  3
 18 19  1  0
  5  6  1  0
  7  8  1  0
M  END

$$$$
No_805-/export/home/yangzhenyu/potential_scad_32_flow//YTHDC2/2024-12-06-03-22-00/
     RDKit          3D

 18 18  0  0  0  0  0  0  0  0999 V2000
    1.1787   -8.0297    3.5154 C   0  0  0  0  0  0  0  0  0  0  0  0
    1.1048   -9.2215    3.2892 C   0  0  0  0  0  0  0  0  0  0  0  0
    1.3627  -10.1721    4.3044 C   0  0  0  0  0  0  0  0  0  0  0  0
    1.7354  -11.4730    3.9023 C   0  0  0  0  0  0  0  0  0  0  0  0
    1.8080  -11.8127    2.7216 C   0  0  0  0  0  0  0  0  0  0  0  0
    1.5854  -11.0021    1.7249 C   0  0  0  0  0  0  0  0  0  0  0  0
    1.3573   -9.7389    1.9287 C   0  0  0  0  0  0  0  0  0  0  0  0
    1.1102   -8.8712    0.9017 C   0  0  0  0  0  0  0  0  0  0  0  0
    1.5724   -9.1697   -0.3048 C   0  0  0  0  0  0  0  0  0  0  0  0
    1.2378   -8.2159   -1.4226 O   0  0  0  0  0  0  0  0  0  0  0  0
    2.0610  -13.2069    2.3284 C   0  0  0  0  0  0  0  0  0  0  0  0
    1.9011  -14.2479    3.1770 O   0  0  0  0  0  0  0  0  0  0  0  0
    2.4416  -13.5042    1.0763 O   0  0  0  0  0  0  0  0  0  0  0  0
    0.1264   -7.2182    3.3811 O   0  0  0  0  0  0  0  0  0  0  0  0
    2.2149   -7.2230    3.9004 O   0  0  0  0  0  0  0  0  0  0  0  0
    2.3998  -10.0515   -0.6393 O   0  0  0  0  0  0  0  0  0  0  0  0
    1.5053  -15.4431    2.6761 C   0  0  0  0  0  0  0  0  0  0  0  0
    0.1458  -15.7187    2.7524 C   0  0  0  0  0  0  0  0  0  0  0  0
  1  2  1  0
  7  8  1  0
  8  9  2  3
  9 10  1  0
  5 11  1  0
 11 12  1  0
 11 13  2  0
  1 14  2  0
  1 15  1  0
  9 16  1  0
 12 17  1  0
 17 18  1  0
  2  3  2  0
  3  4  1  0
  4  5  2  0
  5  6  1  0
  6  7  2  0
  2  7  1  0
M  END

$$$$
No_806-/export/home/yangzhenyu/potential_scad_32_flow//YTHDC2/2024-12-06-03-22-00/
     RDKit          3D

 20 21  0  0  1  0  0  0  0  0999 V2000
    1.1787   -8.0297    3.5154 C   0  0  0  0  0  0  0  0  0  0  0  0
    1.1048   -9.2215    3.2892 C   0  0  0  0  0  0  0  0  0  0  0  0
    1.3627  -10.1721    4.3044 C   0  0  0  0  0  0  0  0  0  0  0  0
    1.0682  -11.5187    4.0618 C   0  0  0  0  0  0  0  0  0  0  0  0
    0.6332  -11.9655    2.9682 C   0  0  0  0  0  0  0  0  0  0  0  0
    0.4776  -11.1308    1.9203 C   0  0  0  0  0  0  0  0  0  0  0  0
    0.7470   -9.8274    2.0368 C   0  0  0  0  0  0  0  0  0  0  0  0
    1.0387   -7.0301    2.5175 C   0  0  2  0  0  0  0  0  0  0  0  0
    0.9130   -7.5288    1.2013 C   0  0  0  0  0  0  0  0  0  0  0  0
    0.7893   -8.7979    0.9542 C   0  0  2  0  0  0  0  0  0  0  0  0
    0.5241   -9.2578   -0.2817 C   0  0  2  0  0  0  0  0  0  0  0  0
    1.2450   -9.2169   -1.2769 Cl  0  0  0  0  0  0  0  0  0  0  0  0
   -0.9194   -9.3717   -0.5387 P   0  0  0  0  0  0  0  0  0  0  0  0
   -1.9480   -9.4899    0.4859 O   0  0  0  0  0  0  0  0  0  0  0  0
   -1.5253   -8.0314   -1.2873 O   0  0  0  0  0  0  0  0  0  0  0  0
   -1.3604  -10.4247   -1.5636 O   0  0  0  0  0  0  0  0  0  0  0  0
    0.5271  -13.3710    2.7090 Cl  0  0  0  0  0  0  0  0  0  0  0  0
    1.3505   -5.6117    2.7265 C   0  0  0  0  0  0  0  0  0  0  0  0
    0.7022   -6.6538    0.2890 O   0  0  0  0  0  0  0  0  0  0  0  0
    1.0026   -4.7258    1.8892 O   0  0  0  0  0  0  0  0  0  0  0  0
  1  2  1  0
  8  9  1  0
  7 10  1  0
 10  9  1  1
 10 11  1  0
 11 12  1  6
 11 13  1  0
 13 14  1  0
 13 15  2  0
 13 16  1  0
  5 17  1  0
  8 18  1  6
  9 19  2  0
 18 20  2  0
  1  8  1  0
  2  3  2  0
  3  4  1  0
  4  5  2  0
  5  6  1  0
  6  7  2  0
  2  7  1  0
M  END

$$$$
No_807-/export/home/yangzhenyu/potential_scad_32_flow//YTHDC2/2024-12-06-03-22-00/
     RDKit          3D

 19 19  0  0  1  0  0  0  0  0999 V2000
    1.1787   -8.0297    3.5154 C   0  0  0  0  0  0  0  0  0  0  0  0
    1.0491   -6.8434    2.9820 C   0  0  0  0  0  0  0  0  0  0  0  0
    1.9985   -8.9840    2.8958 C   0  0  2  0  0  0  0  0  0  0  0  0
    1.7297   -9.2108    1.6335 C   0  0  0  0  0  0  0  0  0  0  0  0
    1.7343   -8.0566    0.8408 C   0  0  2  0  0  0  0  0  0  0  0  0
    1.0269   -6.8892    1.4456 C   0  0  1  0  0  0  0  0  0  0  0  0
    2.0740   -7.9416   -0.3682 C   0  0  0  0  0  0  0  0  0  0  0  0
    1.3156   -7.8710   -1.3006 O   0  0  0  0  0  0  0  0  0  0  0  0
    3.3909   -8.2003   -0.7964 Cl  0  0  0  0  0  0  0  0  0  0  0  0
    1.9748  -10.3584    3.6087 C   0  0  0  0  0  0  0  0  0  0  0  0
    2.9721  -10.5498    4.4499 O   0  0  0  0  0  0  0  0  0  0  0  0
    1.3547  -11.4481    3.2701 O   0  0  0  0  0  0  0  0  0  0  0  0
    0.9156   -5.6715    3.5301 O   0  0  0  0  0  0  0  0  0  0  0  0
    0.0407   -6.1735    0.9971 C   0  0  0  0  0  0  0  0  0  0  0  0
   -1.2250   -6.6768    0.7435 C   0  0  0  0  0  0  0  0  0  0  0  0
   -2.2332   -5.7685    0.0872 C   0  0  0  0  0  0  0  0  0  0  0  0
   -2.4162   -5.9514   -1.1723 C   0  0  0  0  0  0  0  0  0  0  0  0
   -2.3656   -7.0456   -1.8298 C   0  0  0  0  0  0  0  0  0  0  0  0
   -2.4753   -7.0041   -3.2421 C   0  0  0  0  0  0  0  0  0  0  0  0
  1  2  1  0
  1  3  1  0
  3  4  1  0
  4  5  1  0
  2  6  1  0
  5  6  1  0
  5  7  1  6
  7  8  2  0
  7  9  1  0
  3 10  1  1
 10 11  2  0
 10 12  1  0
  2 13  2  0
  6 14  1  1
 14 15  2  3
 15 16  1  0
 16 17  1  0
 17 18  2  3
 18 19  1  0
M  END

$$$$
No_808-/export/home/yangzhenyu/potential_scad_32_flow//YTHDC2/2024-12-06-03-22-00/
     RDKit          3D

 16 17  0  0  1  0  0  0  0  0999 V2000
    1.1787   -8.0297    3.5154 Br  0  0  0  0  0  0  0  0  0  0  0  0
    0.6869   -7.2306    2.5437 C   0  0  0  0  0  0  0  0  0  0  0  0
    0.3636   -5.8926    2.7538 C   0  0  0  0  0  0  0  0  0  0  0  0
   -0.7561   -5.4307    2.1669 C   0  0  0  0  0  0  0  0  0  0  0  0
   -1.1583   -6.0117    0.9662 C   0  0  0  0  0  0  0  0  0  0  0  0
   -0.7776   -7.2045    0.6580 C   0  0  0  0  0  0  0  0  0  0  0  0
    0.1180   -7.7868    1.3197 C   0  0  0  0  0  0  0  0  0  0  0  0
    0.4183   -9.1323    1.0404 C   0  0  0  0  0  0  0  0  0  0  0  0
    0.4132   -9.5495   -0.1236 C   0  0  1  0  0  0  0  0  0  0  0  0
   -0.0669   -8.6245   -1.2388 C   0  0  0  0  0  0  0  0  0  0  0  0
   -0.8022   -7.5251   -0.7500 C   0  0  0  0  0  0  0  0  0  0  0  0
   -1.6772   -6.8877   -1.5833 O   0  0  0  0  0  0  0  0  0  0  0  0
   -0.2238   -8.9899   -2.4056 O   0  0  0  0  0  0  0  0  0  0  0  0
    1.0325  -10.8753   -0.6156 O   0  0  0  0  0  0  0  0  0  0  0  0
    1.6248  -11.4544    0.6506 C   0  0  0  0  0  0  0  0  0  0  0  0
    1.0993  -12.8122    0.9154 C   0  0  0  0  0  0  0  0  0  0  0  0
  1  2  1  0
  7  8  1  0
  9 10  1  0
  6 11  1  0
 10 11  1  0
 11 12  2  0
 10 13  2  0
  9 14  1  6
 14 15  1  0
 15 16  1  0
  8  9  1  0
  2  3  2  0
  3  4  1  0
  4  5  2  0
  5  6  1  0
  6  7  2  0
  2  7  1  0
M  END

$$$$
No_809-/export/home/yangzhenyu/potential_scad_32_flow//YTHDC2/2024-12-06-03-22-00/
     RDKit          3D

 20 20  0  0  1  0  0  0  0  0999 V2000
    1.1787   -8.0297    3.5154 O   0  0  0  0  0  0  0  0  0  0  0  0
    0.6747   -7.4019    2.7838 C   0  0  0  0  0  0  0  0  0  0  0  0
    0.7594   -8.0032    1.4295 C   0  0  0  0  0  0  0  0  0  0  0  0
    0.3459   -9.1500    1.3581 C   0  0  1  0  0  0  0  0  0  0  0  0
   -0.4155   -9.6726    2.0241 C   0  0  0  0  0  0  0  0  0  0  0  0
   -0.6245  -11.1539    1.8966 C   0  0  0  0  0  0  0  0  0  0  0  0
   -1.5032  -11.8084    2.6986 C   0  0  0  0  0  0  0  0  0  0  0  0
   -2.1840  -11.0531    3.7940 C   0  0  0  0  0  0  0  0  0  0  0  0
   -1.8431   -9.7376    3.9852 C   0  0  0  0  0  0  0  0  0  0  0  0
   -0.9778   -9.0945    3.1671 C   0  0  0  0  0  0  0  0  0  0  0  0
    0.9579   -9.7605    0.0197 N   0  0  0  0  0  0  0  0  0  0  0  0
    1.0534   -7.0820    0.4742 O   0  0  0  0  0  0  0  0  0  0  0  0
    0.5027   -6.0544    3.1003 O   0  0  0  0  0  0  0  0  0  0  0  0
   -2.4799   -9.1438    5.1981 Cl  0  0  0  0  0  0  0  0  0  0  0  0
    2.2281  -10.4063    0.1220 C   0  0  0  0  0  0  0  0  0  0  0  0
    2.7739  -10.1422    1.4771 C   0  0  0  0  0  0  0  0  0  0  0  0
    2.4258  -11.2143    2.4292 C   0  0  0  0  0  0  0  0  0  0  0  0
    2.1309  -12.4782    2.1670 C   0  0  0  0  0  0  0  0  0  0  0  0
    1.8725  -13.4597    2.9812 C   0  0  0  0  0  0  0  0  0  0  0  0
    1.6782  -14.7744    2.4878 C   0  0  0  0  0  0  0  0  0  0  0  0
  1  2  1  0
  2  3  1  0
  3  4  1  0
  4 11  1  6
  3 12  2  0
  2 13  2  0
  9 14  1  0
 11 15  1  0
 15 16  1  0
 16 17  1  0
 17 18  1  0
 18 19  1  0
 19 20  1  0
  4  5  1  0
  5  6  2  0
  6  7  1  0
  7  8  2  0
  8  9  1  0
  9 10  2  0
  5 10  1  0
M  END

$$$$
No_810-/export/home/yangzhenyu/potential_scad_32_flow//YTHDC2/2024-12-06-03-22-00/
     RDKit          3D

 19 20  0  0  1  0  0  0  0  0999 V2000
    1.1787   -8.0297    3.5154 O   0  0  0  0  0  0  0  0  0  0  0  0
    0.6747   -7.4019    2.7838 C   0  0  0  0  0  0  0  0  0  0  0  0
    0.7594   -8.0032    1.4295 C   0  0  1  0  0  0  0  0  0  0  0  0
    0.3459   -9.1500    1.3581 C   0  0  2  0  0  0  0  0  0  0  0  0
    1.1876  -10.0065    2.0240 C   0  0  0  0  0  0  0  0  0  0  0  0
    1.2267   -9.5257    3.5507 C   0  0  1  0  0  0  0  0  0  0  0  0
    1.9919  -10.3918    4.3814 C   0  0  0  0  0  0  0  0  0  0  0  0
    1.3664  -11.6452    4.6708 N   0  0  0  0  0  0  0  0  0  0  0  0
    0.2231   -6.9500    0.4909 C   0  0  0  0  0  0  0  0  0  0  0  0
   -0.3654   -7.4004   -0.5368 N   0  0  0  0  0  0  0  0  0  0  0  0
   -0.5058   -8.6836   -0.7793 C   0  0  0  0  0  0  0  0  0  0  0  0
   -0.0558   -9.6248    0.0579 C   0  0  0  0  0  0  0  0  0  0  0  0
   -0.9816   -9.1197   -2.0105 O   0  0  0  0  0  0  0  0  0  0  0  0
    1.3387  -11.2750    1.8576 O   0  0  0  0  0  0  0  0  0  0  0  0
    1.0663   -6.0544    2.9487 O   0  0  0  0  0  0  0  0  0  0  0  0
    3.1080  -10.1765    4.9506 O   0  0  0  0  0  0  0  0  0  0  0  0
   -0.1427  -10.9820   -0.2493 O   0  0  0  0  0  0  0  0  0  0  0  0
    0.1593  -11.9762    4.1659 C   0  0  0  0  0  0  0  0  0  0  0  0
   -0.0351  -13.2116    3.6792 C   0  0  0  0  0  0  0  0  0  0  0  0
  1  2  1  0
  2  3  1  0
  3  4  1  0
  4  5  1  6
  1  6  1  0
  5  6  1  0
  6  7  1  6
  7  8  1  0
  3  9  1  6
 10 11  1  0
  4 12  1  0
 11 12  1  0
 11 13  2  0
  5 14  2  0
  2 15  2  0
  7 16  2  0
 12 17  2  0
  8 18  2  3
 18 19  1  0
  9 10  1  0
M  END

$$$$
No_811-/export/home/yangzhenyu/potential_scad_32_flow//YTHDC2/2024-12-06-03-22-00/
     RDKit          3D

 19 19  0  0  1  0  0  0  0  0999 V2000
    1.1787   -8.0297    3.5154 C   0  0  0  0  0  0  0  0  0  0  0  0
    1.0491   -6.8434    2.9820 C   0  0  0  0  0  0  0  0  0  0  0  0
    1.9985   -8.9840    2.8958 C   0  0  0  0  0  0  0  0  0  0  0  0
    1.9135  -10.3404    3.6266 C   0  0  2  0  0  0  0  0  0  0  0  0
    2.2847  -10.5440    4.7936 C   0  0  0  0  0  0  0  0  0  0  0  0
    1.7595   -5.7666    3.2682 C   0  0  0  0  0  0  0  0  0  0  0  0
    1.5624   -5.2729    4.3530 O   0  0  0  0  0  0  0  0  0  0  0  0
    1.4928  -11.4148    2.8776 C   0  0  2  0  0  0  0  0  0  0  0  0
    1.4269  -12.6226    3.4938 C   0  0  0  0  0  0  0  0  0  0  0  0
    0.4281  -13.0752    3.5619 C   0  0  0  0  0  0  0  0  0  0  0  0
   -0.7323  -12.4727    2.9601 C   0  0  0  0  0  0  0  0  0  0  0  0
   -2.0451  -13.1402    2.9305 C   0  0  0  0  0  0  0  0  0  0  0  0
   -2.1497  -14.4312    2.9452 C   0  0  0  0  0  0  0  0  0  0  0  0
   -3.5077  -14.8772    3.0853 C   0  0  0  0  0  0  0  0  0  0  0  0
   -4.5300  -13.9692    3.0560 C   0  0  0  0  0  0  0  0  0  0  0  0
   -4.3278  -12.6323    2.9923 C   0  0  0  0  0  0  0  0  0  0  0  0
   -3.0547  -12.1424    3.0020 C   0  0  0  0  0  0  0  0  0  0  0  0
    1.3614  -11.3033    1.5764 C   0  0  0  0  0  0  0  0  0  0  0  0
    0.2306  -11.4458    0.9110 C   0  0  0  0  0  0  0  0  0  0  0  0
  1  2  1  0
  1  3  1  0
  3  4  1  0
  4  5  1  6
  2  6  1  0
  6  7  1  0
  4  8  1  0
  8  9  1  0
  9 10  2  3
 10 11  1  0
 11 12  1  0
  8 18  1  6
 18 19  1  0
 12 13  2  0
 13 14  1  0
 14 15  2  0
 15 16  1  0
 16 17  2  0
 12 17  1  0
M  END

$$$$
No_812-/export/home/yangzhenyu/potential_scad_32_flow//YTHDC2/2024-12-06-03-22-00/
     RDKit          3D

 20 20  0  0  0  0  0  0  0  0999 V2000
    1.1787   -8.0297    3.5154 F   0  0  0  0  0  0  0  0  0  0  0  0
    0.9085   -8.9213    2.9287 C   0  0  0  0  0  0  0  0  0  0  0  0
    1.3284  -10.0674    3.4978 C   0  0  0  0  0  0  0  0  0  0  0  0
    1.1423  -11.3164    2.7763 C   0  0  0  0  0  0  0  0  0  0  0  0
    0.7524  -11.2218    1.5110 C   0  0  0  0  0  0  0  0  0  0  0  0
    0.3984  -10.1517    0.9083 C   0  0  0  0  0  0  0  0  0  0  0  0
    0.4799   -8.9022    1.6379 C   0  0  0  0  0  0  0  0  0  0  0  0
   -0.2847   -7.8360    1.1457 C   0  0  0  0  0  0  0  0  0  0  0  0
    0.3740   -6.6656    0.9093 O   0  0  0  0  0  0  0  0  0  0  0  0
   -1.6363   -7.6445    1.3096 N   0  0  0  0  0  0  0  0  0  0  0  0
    1.5614  -12.5465    3.3369 C   0  0  0  0  0  0  0  0  0  0  0  0
    2.6091  -13.0681    3.3264 N   0  0  0  0  0  0  0  0  0  0  0  0
    0.4176  -13.3495    3.5572 O   0  0  0  0  0  0  0  0  0  0  0  0
   -2.3058   -6.5560    0.5646 C   0  0  0  0  0  0  0  0  0  0  0  0
   -2.7044   -6.6600   -0.7000 C   0  0  0  0  0  0  0  0  0  0  0  0
   -2.5790   -7.8511   -1.3107 C   0  0  0  0  0  0  0  0  0  0  0  0
   -1.6023   -7.8561   -2.3790 C   0  0  0  0  0  0  0  0  0  0  0  0
   -1.6679   -8.0979   -3.4345 O   0  0  0  0  0  0  0  0  0  0  0  0
   -0.2934   -8.2670   -1.8778 O   0  0  0  0  0  0  0  0  0  0  0  0
    3.4264  -12.5537    3.0306 H   0  0  0  0  0  0  0  0  0  0  0  0
  1  2  1  0
  7  8  1  0
  8  9  2  0
  8 10  1  0
  4 11  1  0
 11 12  2  0
 11 13  1  0
 10 14  1  0
 14 15  1  0
 15 16  1  0
 16 17  1  0
 17 18  2  0
 17 19  1  0
  2  3  2  0
  3  4  1  0
  4  5  2  0
  5  6  1  0
  6  7  2  0
  2  7  1  0
 12 20  1  0
M  END

$$$$
No_813-/export/home/yangzhenyu/potential_scad_32_flow//YTHDC2/2024-12-06-03-22-00/
     RDKit          3D

 19 19  0  0  0  0  0  0  0  0999 V2000
    1.1787   -8.0297    3.5154 Cl  0  0  0  0  0  0  0  0  0  0  0  0
    0.7279   -9.0023    2.8722 C   0  0  0  0  0  0  0  0  0  0  0  0
   -0.0117   -8.9271    1.8829 C   0  0  0  0  0  0  0  0  0  0  0  0
   -0.2543  -10.1657    1.2408 C   0  0  0  0  0  0  0  0  0  0  0  0
    0.0020  -11.3985    1.5577 C   0  0  0  0  0  0  0  0  0  0  0  0
    0.9301  -11.4970    2.6344 C   0  0  0  0  0  0  0  0  0  0  0  0
    1.3031  -10.3535    3.2942 C   0  0  0  0  0  0  0  0  0  0  0  0
    2.1347  -10.5317    4.3636 C   0  0  0  0  0  0  0  0  0  0  0  0
    2.9067  -11.5315    4.6588 O   0  0  0  0  0  0  0  0  0  0  0  0
   -0.4944   -7.8014    1.2803 C   0  0  0  0  0  0  0  0  0  0  0  0
   -1.6636   -7.2970    1.6001 O   0  0  0  0  0  0  0  0  0  0  0  0
    0.1771   -7.0689    0.4529 O   0  0  0  0  0  0  0  0  0  0  0  0
    1.4079  -13.0604    3.0501 C   0  0  0  0  0  0  0  0  0  0  0  0
    0.3684  -13.7632    3.2762 O   0  0  0  0  0  0  0  0  0  0  0  0
    2.6130  -13.3037    2.8874 O   0  0  0  0  0  0  0  0  0  0  0  0
    2.2489   -9.5340    5.3402 O   0  0  0  0  0  0  0  0  0  0  0  0
   -1.1960  -10.1193   -0.0067 C   0  0  0  0  0  0  0  0  0  0  0  0
   -0.5925   -9.6951   -1.2775 C   0  0  0  0  0  0  0  0  0  0  0  0
   -1.4373   -9.6656   -2.3707 Cl  0  0  0  0  0  0  0  0  0  0  0  0
  1  2  1  0
  7  8  1  0
  8  9  2  0
  3 10  1  0
 10 11  2  0
 10 12  1  0
  6 13  1  0
 13 14  2  0
 13 15  1  0
  8 16  1  0
  4 17  1  0
 17 18  1  0
 18 19  1  0
  2  3  2  0
  3  4  1  0
  4  5  2  0
  5  6  1  0
  6  7  2  0
  2  7  1  0
M  END

$$$$
No_814-/export/home/yangzhenyu/potential_scad_32_flow//YTHDC2/2024-12-06-03-22-00/
     RDKit          3D

 13 13  0  0  0  0  0  0  0  0999 V2000
    1.1787   -8.0297    3.5154 C   0  0  0  0  0  0  0  0  0  0  0  0
    1.1048   -9.2215    3.2892 Cl  0  0  0  0  0  0  0  0  0  0  0  0
    1.1053   -7.0623    2.3233 C   0  0  0  0  0  0  0  0  0  0  0  0
    0.9916   -5.7309    2.4267 C   0  0  0  0  0  0  0  0  0  0  0  0
    0.8878   -5.1247    1.0062 C   0  0  0  0  0  0  0  0  0  0  0  0
    0.4966   -5.7952    0.1189 C   0  0  0  0  0  0  0  0  0  0  0  0
    0.4308   -7.0588    0.1452 C   0  0  0  0  0  0  0  0  0  0  0  0
    0.1401   -7.7580   -1.0716 C   0  0  0  0  0  0  0  0  0  0  0  0
    0.8438   -7.7895    1.2029 N   0  0  0  0  0  0  0  0  0  0  0  0
   -0.6787   -7.4171   -1.9435 Cl  0  0  0  0  0  0  0  0  0  0  0  0
    0.7496   -9.0863   -1.1429 O   0  0  0  0  0  0  0  0  0  0  0  0
    0.7902   -3.2907    1.2099 Br  0  0  0  0  0  0  0  0  0  0  0  0
    1.2916   -5.0155    3.5655 Cl  0  0  0  0  0  0  0  0  0  0  0  0
  1  2  1  0
  1  3  1  0
  7  8  1  0
  8 10  1  0
  8 11  2  0
  5 12  1  0
  4 13  1  0
  3  4  2  0
  4  5  1  0
  5  6  2  0
  6  7  1  0
  7  9  2  0
  3  9  1  0
M  END

$$$$
No_815-/export/home/yangzhenyu/potential_scad_32_flow//YTHDC2/2024-12-06-03-22-00/
     RDKit          3D

 18 20  0  0  0  0  0  0  0  0999 V2000
    1.1787   -8.0297    3.5154 O   0  0  0  0  0  0  0  0  0  0  0  0
    0.6747   -7.4019    2.7838 C   0  0  0  0  0  0  0  0  0  0  0  0
    0.7594   -8.0032    1.4295 C   0  0  0  0  0  0  0  0  0  0  0  0
    0.3459   -9.1500    1.3581 C   0  0  0  0  0  0  0  0  0  0  0  0
    1.1876  -10.0065    2.0239 C   0  0  0  0  0  0  0  0  0  0  0  0
    1.2267   -9.5257    3.5507 C   0  0  0  0  0  0  0  0  0  0  0  0
    1.6039  -10.3725    4.5012 C   0  0  0  0  0  0  0  0  0  0  0  0
    2.1546  -11.6410    3.9991 C   0  0  0  0  0  0  0  0  0  0  0  0
    1.9186  -12.0910    2.7762 C   0  0  0  0  0  0  0  0  0  0  0  0
    1.4531  -11.2329    1.8163 C   0  0  0  0  0  0  0  0  0  0  0  0
    2.2201  -13.4369    2.5108 C   0  0  0  0  0  0  0  0  0  0  0  0
    1.4461  -14.1853    1.8836 O   0  0  0  0  0  0  0  0  0  0  0  0
    2.7574  -14.2315    3.4860 O   0  0  0  0  0  0  0  0  0  0  0  0
    0.9037   -7.0247    0.5215 C   0  0  0  0  0  0  0  0  0  0  0  0
    1.1238   -7.4404   -0.5589 C   0  0  0  0  0  0  0  0  0  0  0  0
    0.6707   -9.5072   -0.1530 N   0  0  0  0  0  0  0  0  0  0  0  0
    1.3723   -6.7764   -1.6234 N   0  0  0  0  0  0  0  0  0  0  0  0
    0.8917   -8.8662   -0.9450 C   0  0  0  0  0  0  0  0  0  0  0  0
  1  2  1  0
  2  3  1  0
  4  5  1  0
  1  6  1  0
  9 11  1  0
 11 12  2  0
 11 13  1  0
 15 17  1  0
  5  6  2  0
  6  7  1  0
  7  8  2  0
  8  9  1  0
  9 10  2  0
  5 10  1  0
  3  4  2  0
  4 16  1  0
 16 18  2  0
 15 18  1  0
 14 15  2  0
  3 14  1  0
M  END

$$$$
No_816-/export/home/yangzhenyu/potential_scad_32_flow//YTHDC2/2024-12-06-03-22-00/
     RDKit          3D

 19 19  0  0  1  0  0  0  0  0999 V2000
    1.1787   -8.0297    3.5154 C   0  0  0  0  0  0  0  0  0  0  0  0
    1.0491   -6.8434    2.9820 C   0  0  0  0  0  0  0  0  0  0  0  0
    1.9985   -8.9840    2.8958 C   0  0  2  0  0  0  0  0  0  0  0  0
    1.7297   -9.2108    1.6335 C   0  0  0  0  0  0  0  0  0  0  0  0
    1.7343   -8.0566    0.8408 C   0  0  2  0  0  0  0  0  0  0  0  0
    1.0269   -6.8892    1.4456 C   0  0  0  0  0  0  0  0  0  0  0  0
    1.7596   -8.0979   -0.4723 C   0  0  0  0  0  0  0  0  0  0  0  0
    2.7309   -8.8718   -1.0817 O   0  0  0  0  0  0  0  0  0  0  0  0
    1.1072   -7.7284   -1.3405 O   0  0  0  0  0  0  0  0  0  0  0  0
    2.3879  -10.1707    3.6502 C   0  0  0  0  0  0  0  0  0  0  0  0
    3.1781  -10.1783    4.5843 O   0  0  0  0  0  0  0  0  0  0  0  0
    2.2202  -11.4415    3.1175 O   0  0  0  0  0  0  0  0  0  0  0  0
    0.8919   -5.6506    3.4948 C   0  0  0  0  0  0  0  0  0  0  0  0
   -0.0035   -4.7964    3.2280 O   0  0  0  0  0  0  0  0  0  0  0  0
    1.8514   -5.1260    4.3222 Cl  0  0  0  0  0  0  0  0  0  0  0  0
    1.1037  -12.2319    3.5443 C   0  0  0  0  0  0  0  0  0  0  0  0
    1.1611  -13.5814    2.9767 C   0  0  0  0  0  0  0  0  0  0  0  0
    0.2072  -14.4151    3.1779 C   0  0  0  0  0  0  0  0  0  0  0  0
    0.4152  -15.8077    3.1134 C   0  0  0  0  0  0  0  0  0  0  0  0
  1  2  1  0
  1  3  1  0
  3  4  1  0
  4  5  1  0
  2  6  1  0
  5  6  1  0
  5  7  1  6
  7  8  1  0
  7  9  2  0
  3 10  1  1
 10 11  2  0
 10 12  1  0
  2 13  1  0
 13 14  2  0
 13 15  1  0
 12 16  1  0
 16 17  1  0
 17 18  1  0
 18 19  2  0
M  END

$$$$
No_817-/export/home/yangzhenyu/potential_scad_32_flow//YTHDC2/2024-12-06-03-22-00/
     RDKit          3D

 21 21  0  0  1  0  0  0  0  0999 V2000
    1.1787   -8.0297    3.5154 C   0  0  0  0  0  0  0  0  0  0  0  0
    1.1048   -9.2215    3.2892 C   0  0  0  0  0  0  0  0  0  0  0  0
    1.2339   -9.7611    2.0189 C   0  0  0  0  0  0  0  0  0  0  0  0
    1.3583   -9.0036    0.9764 P   0  0  1  0  0  0  0  0  0  0  0  0
    1.6220   -7.4900    1.8076 O   0  0  0  0  0  0  0  0  0  0  0  0
    2.5906   -9.0390    0.1653 O   0  0  0  0  0  0  0  0  0  0  0  0
    0.2042   -8.8152    0.1978 O   0  0  0  0  0  0  0  0  0  0  0  0
    1.0513  -11.2206    1.8821 C   0  0  0  0  0  0  0  0  0  0  0  0
    0.5313  -12.1111    2.6782 C   0  0  0  0  0  0  0  0  0  0  0  0
    0.5532  -13.5277    2.2489 O   0  0  0  0  0  0  0  0  0  0  0  0
    0.2147  -13.8225    1.1703 C   0  0  0  0  0  0  0  0  0  0  0  0
    0.9907  -14.7341    0.5494 C   0  0  2  0  0  0  0  0  0  0  0  0
    2.1501  -14.9029    0.8547 C   0  0  1  0  0  0  0  0  0  0  0  0
    3.0342  -13.9013    1.2116 C   0  0  0  0  0  0  0  0  0  0  0  0
    0.5400  -15.2964   -0.6829 C   0  0  0  0  0  0  0  0  0  0  0  0
   -0.7125  -15.7455   -0.7412 O   0  0  0  0  0  0  0  0  0  0  0  0
    1.3137  -15.9526   -1.5923 O   0  0  0  0  0  0  0  0  0  0  0  0
    1.0465   -9.8912    4.5012 Br  0  0  0  0  0  0  0  0  0  0  0  0
    2.1593  -15.8539    2.2125 C   0  0  0  0  0  0  0  0  0  0  0  0
    2.8513  -17.0311    2.1598 O   0  0  0  0  0  0  0  0  0  0  0  0
    2.7431  -17.9448    3.1559 C   0  0  0  0  0  0  0  0  0  0  0  0
  1  2  1  0
  2  3  2  0
  3  4  1  0
  1  5  1  0
  4  5  1  0
  4  6  1  6
  4  7  2  0
  3  8  1  0
  8  9  1  0
  9 10  1  0
 10 11  1  0
 12 11  1  6
 12 13  1  0
 13 14  1  1
 12 15  1  0
 15 16  1  0
 15 17  2  0
  2 18  1  0
 13 19  1  0
 19 20  1  0
 20 21  1  0
M  END

$$$$
No_818-/export/home/yangzhenyu/potential_scad_32_flow//YTHDC2/2024-12-06-03-22-00/
     RDKit          3D

 19 20  0  0  0  0  0  0  0  0999 V2000
    1.1787   -8.0297    3.5154 C   0  0  0  0  0  0  0  0  0  0  0  0
    1.1048   -9.2215    3.2892 C   0  0  0  0  0  0  0  0  0  0  0  0
    1.2339   -9.7611    2.0189 C   0  0  0  0  0  0  0  0  0  0  0  0
    1.1954  -11.2312    1.8661 C   0  0  0  0  0  0  0  0  0  0  0  0
    1.5546  -12.1691    2.7931 C   0  0  0  0  0  0  0  0  0  0  0  0
    0.5849   -7.0929    2.5729 C   0  0  0  0  0  0  0  0  0  0  0  0
    0.5567   -7.6699    1.1955 C   0  0  0  0  0  0  0  0  0  0  0  0
    0.0649   -6.8296    0.1818 C   0  0  0  0  0  0  0  0  0  0  0  0
    0.8107   -9.0372    0.9151 C   0  0  0  0  0  0  0  0  0  0  0  0
    1.5586  -13.5137    2.3904 C   0  0  0  0  0  0  0  0  0  0  0  0
    1.2637  -13.9397    1.2138 C   0  0  0  0  0  0  0  0  0  0  0  0
    1.0457  -13.0390    0.2259 C   0  0  0  0  0  0  0  0  0  0  0  0
    0.9813  -11.6807    0.5334 C   0  0  0  0  0  0  0  0  0  0  0  0
   -0.3974   -7.5395   -0.9129 O   0  0  0  0  0  0  0  0  0  0  0  0
    0.1368   -5.5941    0.1251 O   0  0  0  0  0  0  0  0  0  0  0  0
    2.0319  -14.5589    3.6007 Cl  0  0  0  0  0  0  0  0  0  0  0  0
    0.6451   -5.7272    2.8274 P   0  0  0  0  0  0  0  0  0  0  0  0
   -0.7437   -5.2245    2.9323 O   0  0  0  0  0  0  0  0  0  0  0  0
    1.3889   -5.2934    4.0986 O   0  0  0  0  0  0  0  0  0  0  0  0
  3  4  1  0
  7  8  1  0
  8 14  2  0
  8 15  1  0
 10 16  1  0
  6 17  1  0
 17 18  1  0
 17 19  1  0
  4  5  2  0
  5 10  1  0
 10 11  2  0
 11 12  1  0
 12 13  2  0
  4 13  1  0
  1  2  2  0
  2  3  1  0
  3  9  2  0
  7  9  1  0
  6  7  2  0
  1  6  1  0
M  END

$$$$
No_819-/export/home/yangzhenyu/potential_scad_32_flow//YTHDC2/2024-12-06-03-22-00/
     RDKit          3D

 18 19  0  0  0  0  0  0  0  0999 V2000
    1.1787   -8.0297    3.5154 N   0  0  0  0  0  0  0  0  0  0  0  0
    0.8669   -7.0905    2.8589 C   0  0  0  0  0  0  0  0  0  0  0  0
    0.8842   -5.8387    3.2677 C   0  0  0  0  0  0  0  0  0  0  0  0
    1.2819   -9.4050    3.1259 C   0  0  0  0  0  0  0  0  0  0  0  0
    0.9982   -9.6626    1.9545 C   0  0  0  0  0  0  0  0  0  0  0  0
    0.5558   -8.8018    1.0884 C   0  0  0  0  0  0  0  0  0  0  0  0
    0.5593   -7.4405    1.4307 C   0  0  0  0  0  0  0  0  0  0  0  0
    1.6913  -10.3654    4.1426 C   0  0  0  0  0  0  0  0  0  0  0  0
    0.0871   -6.5299    0.6417 C   0  0  0  0  0  0  0  0  0  0  0  0
    2.8562  -10.6215    4.5524 O   0  0  0  0  0  0  0  0  0  0  0  0
    0.6898  -11.1730    4.5880 O   0  0  0  0  0  0  0  0  0  0  0  0
   -0.9170   -6.8368   -0.2481 N   0  0  0  0  0  0  0  0  0  0  0  0
    0.5344   -5.3092    0.5845 N   0  0  0  0  0  0  0  0  0  0  0  0
    0.9847   -4.7651    3.1506 C   0  0  0  0  0  0  0  0  0  0  0  0
    0.1653   -9.2223   -0.3547 C   0  0  0  0  0  0  0  0  0  0  0  0
   -0.7978   -8.0745   -0.8028 C   0  0  0  0  0  0  0  0  0  0  0  0
   -1.2598   -8.3994   -2.1210 C   0  0  0  0  0  0  0  0  0  0  0  0
   -0.7288   -7.5353   -3.1341 N   0  0  0  0  0  0  0  0  0  0  0  0
  2  3  1  0
  4  8  1  0
  8 10  1  0
  8 11  2  0
  9 13  1  0
  3 14  3  0
 16 17  1  0
 17 18  1  0
  7  9  2  0
  9 12  1  0
 12 16  2  0
 15 16  1  0
  6 15  2  0
  1  2  2  0
  2  7  1  0
  6  7  1  0
  5  6  1  0
  4  5  2  0
  1  4  1  0
M  END

$$$$
No_820-/export/home/yangzhenyu/potential_scad_32_flow//YTHDC2/2024-12-06-03-22-00/
     RDKit          3D

 18 18  0  0  0  0  0  0  0  0999 V2000
    1.1787   -8.0297    3.5154 C   0  0  0  0  0  0  0  0  0  0  0  0
    1.1048   -9.2215    3.2892 C   0  0  0  0  0  0  0  0  0  0  0  0
    1.4683  -10.2314    4.1915 C   0  0  0  0  0  0  0  0  0  0  0  0
    0.8445   -6.9865    2.5175 C   0  0  0  0  0  0  0  0  0  0  0  0
    0.3587   -7.3973    1.3953 C   0  0  0  0  0  0  0  0  0  0  0  0
    0.1901   -8.6971    1.0711 C   0  0  0  0  0  0  0  0  0  0  0  0
    0.5759   -9.6648    1.9442 C   0  0  0  0  0  0  0  0  0  0  0  0
    2.7321  -10.4989    4.4285 N   0  0  0  0  0  0  0  0  0  0  0  0
   -0.0809   -6.4842    0.4148 C   0  0  0  0  0  0  0  0  0  0  0  0
   -1.0018   -6.8321   -0.4347 O   0  0  0  0  0  0  0  0  0  0  0  0
    0.2278   -5.2154    0.4235 O   0  0  0  0  0  0  0  0  0  0  0  0
    0.5492  -11.3242    4.2181 O   0  0  0  0  0  0  0  0  0  0  0  0
    3.0972  -11.5030    5.2815 N   0  0  0  0  0  0  0  0  0  0  0  0
    1.0906   -5.6129    2.9273 O   0  0  0  0  0  0  0  0  0  0  0  0
    0.4457  -11.0348    1.6030 F   0  0  0  0  0  0  0  0  0  0  0  0
    4.4243  -11.1407    5.7463 C   0  0  0  0  0  0  0  0  0  0  0  0
   -0.6843   -4.1866    0.2504 C   0  0  0  0  0  0  0  0  0  0  0  0
   -0.3521   -2.8790    1.0074 C   0  0  0  0  0  0  0  0  0  0  0  0
  2  3  1  0
  3  8  1  0
  5  9  1  0
  9 10  2  0
  9 11  1  0
  3 12  2  0
  8 13  1  0
  4 14  1  0
  7 15  1  0
 13 16  1  0
 11 17  1  0
 17 18  1  0
  1  2  2  0
  2  7  1  0
  6  7  2  0
  5  6  1  0
  4  5  2  0
  1  4  1  0
M  END

$$$$
No_821-/export/home/yangzhenyu/potential_scad_32_flow//YTHDC2/2024-12-06-03-22-00/
     RDKit          3D

 18 18  0  0  0  0  0  0  0  0999 V2000
    1.1787   -8.0297    3.5154 C   0  0  0  0  0  0  0  0  0  0  0  0
    1.1048   -9.2215    3.2892 C   0  0  0  0  0  0  0  0  0  0  0  0
    1.3627  -10.1721    4.3044 C   0  0  0  0  0  0  0  0  0  0  0  0
    1.7354  -11.4730    3.9023 C   0  0  0  0  0  0  0  0  0  0  0  0
    1.8080  -11.8127    2.7216 C   0  0  0  0  0  0  0  0  0  0  0  0
    1.5854  -11.0021    1.7249 C   0  0  0  0  0  0  0  0  0  0  0  0
    1.3573   -9.7389    1.9287 C   0  0  0  0  0  0  0  0  0  0  0  0
    1.2865   -8.8078    0.9161 C   0  0  0  0  0  0  0  0  0  0  0  0
    0.9210   -7.5140    1.1674 O   0  0  0  0  0  0  0  0  0  0  0  0
    1.4288   -9.1781   -0.4279 C   0  0  0  0  0  0  0  0  0  0  0  0
    2.6473   -9.2507   -0.8883 O   0  0  0  0  0  0  0  0  0  0  0  0
    0.5373   -9.9247   -0.9525 O   0  0  0  0  0  0  0  0  0  0  0  0
    2.0807  -13.2300    2.3679 O   0  0  0  0  0  0  0  0  0  0  0  0
    1.7758  -14.2751    3.0066 C   0  0  0  0  0  0  0  0  0  0  0  0
    0.4434  -14.5575    3.0148 C   0  0  0  0  0  0  0  0  0  0  0  0
   -0.2682  -14.0560    1.9779 O   0  0  0  0  0  0  0  0  0  0  0  0
    0.0460  -15.6762    3.6035 O   0  0  0  0  0  0  0  0  0  0  0  0
    2.5068   -7.3784    3.6700 O   0  0  0  0  0  0  0  0  0  0  0  0
  1  2  1  0
  7  8  1  0
  8  9  2  0
  8 10  1  0
 10 11  1  0
 10 12  2  0
  5 13  1  0
 13 14  1  0
 14 15  1  0
 15 16  2  0
 15 17  1  0
  1 18  1  0
  2  3  2  0
  3  4  1  0
  4  5  2  0
  5  6  1  0
  6  7  2  0
  2  7  1  0
M  END

$$$$
No_822-/export/home/yangzhenyu/potential_scad_32_flow//YTHDC2/2024-12-06-03-22-00/
     RDKit          3D

 18 18  0  0  1  0  0  0  0  0999 V2000
    1.1787   -8.0297    3.5154 C   0  0  0  0  0  0  0  0  0  0  0  0
    1.1048   -9.2215    3.2892 F   0  0  0  0  0  0  0  0  0  0  0  0
    2.1516   -7.3031    2.6108 C   0  0  2  0  0  0  0  0  0  0  0  0
    1.4984   -5.9916    2.2868 C   0  0  0  0  0  0  0  0  0  0  0  0
    1.3392   -4.9645    3.1377 O   0  0  0  0  0  0  0  0  0  0  0  0
    1.0251   -5.7769    1.1330 Cl  0  0  0  0  0  0  0  0  0  0  0  0
    1.5333   -8.0054    4.7641 F   0  0  0  0  0  0  0  0  0  0  0  0
   -0.1036   -7.5442    3.3110 O   0  0  0  0  0  0  0  0  0  0  0  0
    0.9490   -3.8510    2.9882 C   0  0  2  0  0  0  0  0  0  0  0  0
    1.8032   -2.7627    2.7408 C   0  0  0  0  0  0  0  0  0  0  0  0
    1.7133   -1.6375    3.2360 C   0  0  0  0  0  0  0  0  0  0  0  0
    0.9432   -1.6479    4.4752 C   0  0  0  0  0  0  0  0  0  0  0  0
   -0.1597   -2.4610    4.6272 C   0  0  0  0  0  0  0  0  0  0  0  0
    0.0558   -3.7545    4.1171 C   0  0  0  0  0  0  0  0  0  0  0  0
    2.6456   -3.0122    1.7109 O   0  0  0  0  0  0  0  0  0  0  0  0
    2.2626   -7.9616    1.3853 Cl  0  0  0  0  0  0  0  0  0  0  0  0
   -1.0526   -4.4323    4.0956 O   0  0  0  0  0  0  0  0  0  0  0  0
   -0.9895   -2.2437    5.5755 O   0  0  0  0  0  0  0  0  0  0  0  0
  1  2  1  0
  1  3  1  0
  3  4  1  0
  4  5  1  0
  4  6  1  0
  1  7  1  0
  1  8  1  0
  9  5  1  1
  9 10  1  0
 10 11  1  0
 11 12  1  0
 12 13  1  0
  9 14  1  0
 13 14  1  0
 10 15  2  0
  3 16  1  6
 14 17  2  0
 13 18  2  0
M  END

$$$$
No_823-/export/home/yangzhenyu/potential_scad_32_flow//YTHDC2/2024-12-06-03-22-00/
     RDKit          3D

 19 19  0  0  1  0  0  0  0  0999 V2000
    1.1787   -8.0297    3.5154 C   0  0  0  0  0  0  0  0  0  0  0  0
    1.0491   -6.8434    2.9820 C   0  0  0  0  0  0  0  0  0  0  0  0
    1.9985   -8.9840    2.8958 C   0  0  2  0  0  0  0  0  0  0  0  0
    1.7297   -9.2108    1.6335 C   0  0  0  0  0  0  0  0  0  0  0  0
    1.7343   -8.0566    0.8408 C   0  0  2  0  0  0  0  0  0  0  0  0
    1.0269   -6.8892    1.4456 P   0  0  1  0  0  0  0  0  0  0  0  0
   -0.4144   -6.9270    0.9929 O   0  0  0  0  0  0  0  0  0  0  0  0
    2.3681  -10.1615    3.6858 C   0  0  0  0  0  0  0  0  0  0  0  0
    1.6386  -11.2844    3.7636 C   0  0  0  0  0  0  0  0  0  0  0  0
    2.1469  -12.4450    3.3872 C   0  0  0  0  0  0  0  0  0  0  0  0
    1.0815  -13.4874    3.2355 C   0  0  0  0  0  0  0  0  0  0  0  0
    1.4863  -14.8326    2.7343 N   0  0  0  0  0  0  0  0  0  0  0  0
    0.6724  -15.8297    2.8465 N   0  0  0  0  0  0  0  0  0  0  0  0
    1.2842  -17.0008    2.6099 C   0  0  0  0  0  0  0  0  0  0  0  0
    2.5813  -16.9372    2.2732 O   0  0  0  0  0  0  0  0  0  0  0  0
    0.7562  -18.2034    2.8985 C   0  0  0  0  0  0  0  0  0  0  0  0
    1.3536   -5.4725    0.8378 O   0  0  0  0  0  0  0  0  0  0  0  0
    1.4714   -8.3418   -0.6479 C   0  0  0  0  0  0  0  0  0  0  0  0
    0.2375   -8.6957   -0.9490 O   0  0  0  0  0  0  0  0  0  0  0  0
  1  2  1  0
  1  3  1  0
  3  4  1  0
  4  5  1  0
  2  6  1  0
  5  6  1  0
  6  7  1  1
  3  8  1  1
  8  9  1  0
  9 10  1  0
 10 11  1  0
 11 12  1  0
 12 13  1  0
 13 14  2  3
 14 15  1  0
 14 16  1  0
  6 17  2  0
  5 18  1  6
 18 19  2  0
M  END

$$$$
No_824-/export/home/yangzhenyu/potential_scad_32_flow//YTHDC2/2024-12-06-03-22-00/
     RDKit          3D

 21 23  0  0  1  0  0  0  0  0999 V2000
    1.1787   -8.0297    3.5154 C   0  0  0  0  0  0  0  0  0  0  0  0
    1.0491   -6.8434    2.9820 C   0  0  0  0  0  0  0  0  0  0  0  0
    0.0950   -8.8404    3.2292 C   0  0  0  0  0  0  0  0  0  0  0  0
   -0.7663   -8.2602    2.4375 C   0  0  0  0  0  0  0  0  0  0  0  0
   -0.3589   -6.8665    2.1913 C   0  0  2  0  0  0  0  0  0  0  0  0
    0.1214  -10.2270    3.6107 C   0  0  0  0  0  0  0  0  0  0  0  0
    1.0989  -10.9131    4.0683 N   0  0  0  0  0  0  0  0  0  0  0  0
   -1.1849  -10.7460    3.8759 N   0  0  0  0  0  0  0  0  0  0  0  0
    0.8919  -12.2188    4.3130 C   0  0  0  0  0  0  0  0  0  0  0  0
   -0.5660  -12.1585    4.0209 C   0  0  0  0  0  0  0  0  0  0  0  0
   -0.4937   -6.1535    1.1280 C   0  0  0  0  0  0  0  0  0  0  0  0
   -0.2647   -4.8315    1.0738 N   0  0  0  0  0  0  0  0  0  0  0  0
   -1.1252   -6.5957    0.0280 C   0  0  0  0  0  0  0  0  0  0  0  0
   -1.0015   -7.8851   -0.3937 C   0  0  0  0  0  0  0  0  0  0  0  0
   -2.0103   -8.3600   -1.1173 C   0  0  0  0  0  0  0  0  0  0  0  0
   -2.8234   -7.4766   -1.8831 C   0  0  0  0  0  0  0  0  0  0  0  0
   -2.7841   -6.2022   -1.6670 C   0  0  0  0  0  0  0  0  0  0  0  0
   -1.9137   -5.6913   -0.7173 C   0  0  0  0  0  0  0  0  0  0  0  0
   -1.7554   -4.3563   -0.4244 C   0  0  0  0  0  0  0  0  0  0  0  0
   -2.4551   -3.3800   -1.2600 C   0  0  0  0  0  0  0  0  0  0  0  0
    0.1310   -4.3544    1.8712 H   0  0  0  0  0  0  0  0  0  0  0  0
  1  2  1  0
  1  3  2  0
  3  4  1  0
  2  5  1  0
  4  5  1  0
  3  6  1  0
  6  7  2  0
  6  8  1  0
  7  9  1  0
  8 10  1  0
  9 10  2  0
  5 11  1  6
 11 12  2  0
 11 13  1  0
 18 19  1  0
 19 20  1  0
 13 14  2  0
 14 15  1  0
 15 16  2  0
 16 17  1  0
 17 18  2  0
 13 18  1  0
 12 21  1  0
M  END

$$$$
No_825-/export/home/yangzhenyu/potential_scad_32_flow//YTHDC2/2024-12-06-03-22-00/
     RDKit          3D

 19 19  0  0  1  0  0  0  0  0999 V2000
    1.1787   -8.0297    3.5154 C   0  0  0  0  0  0  0  0  0  0  0  0
    1.1048   -9.2215    3.2892 C   0  0  0  0  0  0  0  0  0  0  0  0
    1.3627  -10.1721    4.3044 C   0  0  0  0  0  0  0  0  0  0  0  0
    2.3720  -10.8948    4.2468 C   0  0  0  0  0  0  0  0  0  0  0  0
    1.0579   -7.0441    2.4219 C   0  0  0  0  0  0  0  0  0  0  0  0
    0.8578   -7.4970    1.1686 C   0  0  0  0  0  0  0  0  0  0  0  0
    0.7382   -8.7683    0.8754 C   0  0  0  0  0  0  0  0  0  0  0  0
    0.8882   -9.7347    1.9238 C   0  0  0  0  0  0  0  0  0  0  0  0
    0.9437  -11.0299    1.7005 C   0  0  0  0  0  0  0  0  0  0  0  0
   -0.0869  -11.8512    1.8957 O   0  0  0  0  0  0  0  0  0  0  0  0
    2.0237  -11.5609    1.0147 O   0  0  0  0  0  0  0  0  0  0  0  0
    1.1947   -5.5992    2.6899 Cl  0  0  0  0  0  0  0  0  0  0  0  0
    3.5311  -10.3887    5.0592 O   0  0  0  0  0  0  0  0  0  0  0  0
    2.2921  -12.2592    4.2180 O   0  0  0  0  0  0  0  0  0  0  0  0
    0.5371   -9.3194   -0.3835 O   0  0  0  0  0  0  0  0  0  0  0  0
   -0.7849   -9.1098   -1.0887 C   0  0  1  0  0  0  0  0  0  0  0  0
   -1.7608   -9.1476   -0.1951 C   0  0  0  0  0  0  0  0  0  0  0  0
   -0.6818   -8.8836   -2.3260 C   0  0  0  0  0  0  0  0  0  0  0  0
   -1.4181   -8.6248   -2.9748 O   0  0  0  0  0  0  0  0  0  0  0  0
  2  3  1  0
  3  4  1  0
  8  9  1  0
  9 10  2  0
  9 11  1  0
  5 12  1  0
  4 13  1  0
  4 14  2  0
  7 15  1  0
 15 16  1  0
 16 17  1  1
 16 18  1  0
 18 19  2  0
  1  2  2  0
  2  8  1  0
  7  8  2  0
  6  7  1  0
  5  6  2  0
  1  5  1  0
M  END

$$$$
No_826-/export/home/yangzhenyu/potential_scad_32_flow//YTHDC2/2024-12-06-03-22-00/
     RDKit          3D

 18 18  0  0  1  0  0  0  0  0999 V2000
    1.1787   -8.0297    3.5154 C   0  0  0  0  0  0  0  0  0  0  0  0
    1.0491   -6.8434    2.9820 C   0  0  0  0  0  0  0  0  0  0  0  0
    0.0950   -8.8404    3.2292 C   0  0  0  0  0  0  0  0  0  0  0  0
   -0.9173   -8.4596    2.5152 C   0  0  0  0  0  0  0  0  0  0  0  0
   -1.0331   -7.2162    2.0653 C   0  0  0  0  0  0  0  0  0  0  0  0
   -0.0105   -6.3168    2.3081 C   0  0  0  0  0  0  0  0  0  0  0  0
    0.1465  -10.2446    3.6981 C   0  0  0  0  0  0  0  0  0  0  0  0
    1.2433  -10.8239    4.0166 N   0  0  0  0  0  0  0  0  0  0  0  0
   -1.0428  -10.8341    4.0017 O   0  0  0  0  0  0  0  0  0  0  0  0
    2.4686  -10.6236    3.8047 C   0  0  2  0  0  0  0  0  0  0  0  0
   -0.0798   -5.0147    1.8279 C   0  0  0  0  0  0  0  0  0  0  0  0
   -0.7617   -4.1632    2.3108 P   0  0  0  0  0  0  0  0  0  0  0  0
   -0.5900   -3.5233    3.0948 O   0  0  0  0  0  0  0  0  0  0  0  0
   -1.1950   -3.0705    1.0537 O   0  0  0  0  0  0  0  0  0  0  0  0
   -2.4073   -4.6961    2.4928 O   0  0  0  0  0  0  0  0  0  0  0  0
    2.7498  -10.7851    2.4171 C   0  0  0  0  0  0  0  0  0  0  0  0
    3.4123  -11.4560    4.7546 C   0  0  0  0  0  0  0  0  0  0  0  0
    4.3251  -10.3346    5.5019 O   0  0  0  0  0  0  0  0  0  0  0  0
  3  7  1  0
  7  8  1  0
  7  9  2  0
  8 10  1  0
  6 11  1  0
 11 12  1  0
 12 13  1  0
 12 14  2  0
 12 15  1  0
 10 16  1  6
 10 17  1  0
 17 18  1  0
  1  2  2  0
  2  6  1  0
  5  6  2  0
  4  5  1  0
  3  4  2  0
  1  3  1  0
M  END

$$$$
No_827-/export/home/yangzhenyu/potential_scad_32_flow//YTHDC2/2024-12-06-03-22-00/
     RDKit          3D

 16 16  0  0  1  0  0  0  0  0999 V2000
    1.1787   -8.0297    3.5154 C   0  0  0  0  0  0  0  0  0  0  0  0
    1.0491   -6.8434    2.9820 C   0  0  1  0  0  0  0  0  0  0  0  0
    1.9985   -8.9840    2.8958 C   0  0  2  0  0  0  0  0  0  0  0  0
    1.7297   -9.2108    1.6335 C   0  0  0  0  0  0  0  0  0  0  0  0
    1.7343   -8.0566    0.8408 C   0  0  2  0  0  0  0  0  0  0  0  0
    1.0269   -6.8892    1.4456 C   0  0  0  0  0  0  0  0  0  0  0  0
    1.7596   -8.0979   -0.4723 C   0  0  0  0  0  0  0  0  0  0  0  0
    1.8128   -9.1679   -1.0978 O   0  0  0  0  0  0  0  0  0  0  0  0
    2.3759  -10.1811    3.6380 C   0  0  0  0  0  0  0  0  0  0  0  0
    1.7467  -10.4246    4.8084 O   0  0  0  0  0  0  0  0  0  0  0  0
    3.4522  -10.8372    3.4130 N   0  0  0  0  0  0  0  0  0  0  0  0
    1.7875   -7.2645   -1.2582 O   0  0  0  0  0  0  0  0  0  0  0  0
    0.7893   -5.6730    3.5034 C   0  0  0  0  0  0  0  0  0  0  0  0
   -0.2401   -4.8248    3.0922 O   0  0  0  0  0  0  0  0  0  0  0  0
    1.9077   -4.7967    4.0189 O   0  0  0  0  0  0  0  0  0  0  0  0
    0.6436   -5.8730    0.7784 O   0  0  0  0  0  0  0  0  0  0  0  0
  1  2  1  0
  1  3  1  0
  3  4  1  0
  4  5  1  0
  2  6  1  0
  5  6  1  0
  5  7  1  6
  7  8  1  0
  3  9  1  1
  9 10  2  0
  9 11  1  0
  7 12  2  0
  2 13  1  1
 13 14  2  0
 13 15  1  0
  6 16  2  0
M  END

$$$$
No_828-/export/home/yangzhenyu/potential_scad_32_flow//YTHDC2/2024-12-06-03-22-00/
     RDKit          3D

 19 20  0  0  0  0  0  0  0  0999 V2000
    1.1787   -8.0297    3.5154 Cl  0  0  0  0  0  0  0  0  0  0  0  0
    0.7279   -9.0023    2.8722 C   0  0  0  0  0  0  0  0  0  0  0  0
   -0.0117   -8.9271    1.8829 C   0  0  0  0  0  0  0  0  0  0  0  0
   -0.2543  -10.1657    1.2408 C   0  0  0  0  0  0  0  0  0  0  0  0
    0.0020  -11.3985    1.5577 C   0  0  0  0  0  0  0  0  0  0  0  0
    0.9301  -11.4970    2.6344 C   0  0  0  0  0  0  0  0  0  0  0  0
    1.3031  -10.3535    3.2942 C   0  0  0  0  0  0  0  0  0  0  0  0
    1.8497  -10.5890    4.5227 C   0  0  0  0  0  0  0  0  0  0  0  0
    2.4274  -11.9025    4.8054 N   0  0  0  0  0  0  0  0  0  0  0  0
   -1.1210  -10.1329   -0.0595 I   0  0  0  0  0  0  0  0  0  0  0  0
    1.2291  -12.8559    3.0193 C   0  0  0  0  0  0  0  0  0  0  0  0
    2.0874  -12.9745    4.1736 C   0  0  0  0  0  0  0  0  0  0  0  0
    0.8596  -14.0138    2.3691 C   0  0  0  0  0  0  0  0  0  0  0  0
    1.1165  -15.1726    2.8785 N   0  0  0  0  0  0  0  0  0  0  0  0
    0.7631  -14.0074    1.0948 O   0  0  0  0  0  0  0  0  0  0  0  0
    0.9416  -16.4702    2.3575 C   0  0  0  0  0  0  0  0  0  0  0  0
    1.3036  -17.5959    3.1576 C   0  0  0  0  0  0  0  0  0  0  0  0
    0.6343  -18.1581    3.9515 C   0  0  0  0  0  0  0  0  0  0  0  0
    1.1673  -19.1849    4.8444 C   0  0  0  0  0  0  0  0  0  0  0  0
  1  2  1  0
  4 10  1  0
 11 13  1  0
 13 14  1  0
 13 15  2  0
 14 16  1  0
 16 17  1  0
 17 18  1  0
 18 19  2  0
  2  3  2  0
  3  4  1  0
  4  5  2  0
  5  6  1  0
  2  7  1  0
  6  7  2  0
  7  8  1  0
  8  9  2  0
  9 12  1  0
 11 12  2  0
  6 11  1  0
M  END

$$$$
No_829-/export/home/yangzhenyu/potential_scad_32_flow//YTHDC2/2024-12-06-03-22-00/
     RDKit          3D

 20 20  0  0  1  0  0  0  0  0999 V2000
    1.1787   -8.0297    3.5154 O   0  0  0  0  0  0  0  0  0  0  0  0
    0.9969   -8.9689    3.0048 C   0  0  0  0  0  0  0  0  0  0  0  0
    1.3055  -10.1056    3.6616 C   0  0  0  0  0  0  0  0  0  0  0  0
    1.1249  -11.3503    3.0941 C   0  0  0  0  0  0  0  0  0  0  0  0
    0.6932  -11.4484    1.8586 C   0  0  0  0  0  0  0  0  0  0  0  0
    0.5498  -10.3736    1.0579 C   0  0  0  0  0  0  0  0  0  0  0  0
    0.7643   -9.1185    1.6383 C   0  0  0  0  0  0  0  0  0  0  0  0
    0.5937   -7.8467    1.0482 C   0  0  0  0  0  0  0  0  0  0  0  0
    1.5294   -7.0230    1.0749 O   0  0  0  0  0  0  0  0  0  0  0  0
   -0.4082   -7.5594    0.2790 O   0  0  0  0  0  0  0  0  0  0  0  0
    1.1857  -12.6455    3.8343 Cl  0  0  0  0  0  0  0  0  0  0  0  0
    0.4679  -12.6494    1.0448 I   0  0  0  0  0  0  0  0  0  0  0  0
    0.1761  -10.3283   -0.4836 P   0  0  2  0  0  0  0  0  0  0  0  0
   -1.0688   -9.1778   -0.4626 O   0  0  0  0  0  0  0  0  0  0  0  0
   -0.3794  -11.4988   -0.9020 O   0  0  0  0  0  0  0  0  0  0  0  0
    1.2882   -9.7816   -1.2607 O   0  0  0  0  0  0  0  0  0  0  0  0
    1.6377  -10.0247    5.0073 Cl  0  0  0  0  0  0  0  0  0  0  0  0
   -2.1552   -9.6228   -1.4072 C   0  0  0  0  0  0  0  0  0  0  0  0
   -3.3114   -9.7608   -0.8783 C   0  0  0  0  0  0  0  0  0  0  0  0
   -3.7453  -10.7937   -0.6657 O   0  0  0  0  0  0  0  0  0  0  0  0
  1  2  1  0
  7  8  1  0
  8  9  1  0
  8 10  2  0
  4 11  1  0
  5 12  1  0
  6 13  1  0
 13 14  1  0
 13 15  1  6
 13 16  2  0
  3 17  1  0
 14 18  1  0
 18 19  1  0
 19 20  2  0
  2  3  2  0
  3  4  1  0
  4  5  2  0
  5  6  1  0
  6  7  2  0
  2  7  1  0
M  END

$$$$
No_830-/export/home/yangzhenyu/potential_scad_32_flow//YTHDC2/2024-12-06-03-22-00/
     RDKit          3D

 20 21  0  0  1  0  0  0  0  0999 V2000
    1.1787   -8.0297    3.5154 O   0  0  0  0  0  0  0  0  0  0  0  0
    0.9969   -8.9689    3.0048 C   0  0  1  0  0  0  0  0  0  0  0  0
    0.9976   -8.9567    1.6341 C   0  0  1  0  0  0  0  0  0  0  0  0
    0.7663   -7.7728    1.0082 C   0  0  2  0  0  0  0  0  0  0  0  0
    0.5873   -6.9953    1.8663 C   0  0  0  0  0  0  0  0  0  0  0  0
    0.7676   -7.0281    3.0128 C   0  0  0  0  0  0  0  0  0  0  0  0
    0.5174   -7.7086   -0.2229 C   0  0  0  0  0  0  0  0  0  0  0  0
    1.2312   -8.4882   -1.1909 C   0  0  0  0  0  0  0  0  0  0  0  0
    1.3391  -10.1317    1.0057 C   0  0  0  0  0  0  0  0  0  0  0  0
    1.5217  -11.3266    1.4601 C   0  0  0  0  0  0  0  0  0  0  0  0
    1.7867  -11.3876    2.8506 C   0  0  1  0  0  0  0  0  0  0  0  0
    1.5705  -10.2073    3.6462 C   0  0  0  0  0  0  0  0  0  0  0  0
    2.0733  -12.5827    3.5127 C   0  0  0  0  0  0  0  0  0  0  0  0
   -0.4518   -6.9451   -0.6631 O   0  0  0  0  0  0  0  0  0  0  0  0
    1.0148  -13.4740    3.6180 C   0  0  0  0  0  0  0  0  0  0  0  0
    1.2216  -14.8469    3.1400 O   0  0  0  0  0  0  0  0  0  0  0  0
    0.2872  -15.7665    3.0949 C   0  0  0  0  0  0  0  0  0  0  0  0
    1.7974  -10.3115    4.8908 O   0  0  0  0  0  0  0  0  0  0  0  0
    0.6610  -16.6978    2.2894 C   0  0  0  0  0  0  0  0  0  0  0  0
    2.2114  -16.9448    2.1338 C   0  0  0  0  0  0  0  0  0  0  0  0
  2  1  1  1
  2  3  1  0
  3  4  1  0
  4  5  1  0
  1  6  1  0
  5  6  1  0
  4  7  1  6
  7  8  1  0
  3  9  1  1
 10 11  1  0
  2 12  1  0
 11 12  1  0
 11 13  1  1
  7 14  2  0
 13 15  1  0
 15 16  1  0
 16 17  1  0
 12 18  2  0
 17 19  1  0
 19 20  1  0
  9 10  1  0
M  END

$$$$
No_831-/export/home/yangzhenyu/potential_scad_32_flow//YTHDC2/2024-12-06-03-22-00/
     RDKit          3D

 18 18  0  0  1  0  0  0  0  0999 V2000
    1.1787   -8.0297    3.5154 C   0  0  0  0  0  0  0  0  0  0  0  0
    1.0491   -6.8434    2.9820 C   0  0  1  0  0  0  0  0  0  0  0  0
    0.9905   -9.0774    2.6527 C   0  0  0  0  0  0  0  0  0  0  0  0
    0.7897   -8.9519    1.3691 C   0  0  0  0  0  0  0  0  0  0  0  0
    0.7018   -7.7198    0.7892 C   0  0  0  0  0  0  0  0  0  0  0  0
    1.4312   -5.5794    3.7443 O   0  0  0  0  0  0  0  0  0  0  0  0
    0.9501   -6.6506    1.5469 C   0  0  0  0  0  0  0  0  0  0  0  0
    1.0197  -10.4509    3.2467 C   0  0  0  0  0  0  0  0  0  0  0  0
    1.1165  -11.6003    2.4673 C   0  0  2  0  0  0  0  0  0  0  0  0
    0.4199  -12.6361    2.8518 C   0  0  0  0  0  0  0  0  0  0  0  0
    1.0895  -13.8794    2.9572 C   0  0  0  0  0  0  0  0  0  0  0  0
    1.0387  -14.7134    1.8079 C   0  0  0  0  0  0  0  0  0  0  0  0
    0.9200   -5.3461    1.1221 O   0  0  0  0  0  0  0  0  0  0  0  0
    1.8771  -15.8954    1.8887 O   0  0  0  0  0  0  0  0  0  0  0  0
   -0.2537  -15.2843    1.5642 O   0  0  0  0  0  0  0  0  0  0  0  0
    1.3222  -10.5636    4.6002 O   0  0  0  0  0  0  0  0  0  0  0  0
    2.5006  -12.0291    2.0982 C   0  0  0  0  0  0  0  0  0  0  0  0
    2.5868  -11.7613    0.5487 C   0  0  0  0  0  0  0  0  0  0  0  0
  1  2  1  0
  3  4  1  0
  2  6  1  6
  2  7  1  0
  5  7  1  0
  3  8  1  0
  8  9  1  0
  9 10  1  1
 10 11  1  0
 11 12  1  0
  7 13  2  0
 12 14  1  0
 12 15  2  0
  8 16  2  0
  9 17  1  0
 17 18  1  0
  1  3  1  0
  4  5  1  0
M  END

$$$$
No_832-/export/home/yangzhenyu/potential_scad_32_flow//YTHDC2/2024-12-06-03-22-00/
     RDKit          3D

 20 20  0  0  1  0  0  0  0  0999 V2000
    1.1787   -8.0297    3.5154 C   0  0  0  0  0  0  0  0  0  0  0  0
    1.0491   -6.8434    2.9820 C   0  0  0  0  0  0  0  0  0  0  0  0
    0.9905   -9.0774    2.6527 C   0  0  0  0  0  0  0  0  0  0  0  0
    0.7897   -8.9519    1.3691 C   0  0  0  0  0  0  0  0  0  0  0  0
    0.7018   -7.7198    0.7892 C   0  0  0  0  0  0  0  0  0  0  0  0
    0.8918   -6.5957    1.6117 C   0  0  0  0  0  0  0  0  0  0  0  0
    1.0998  -10.4710    3.2437 C   0  0  1  0  0  0  0  0  0  0  0  0
    0.0472  -11.2546    3.3963 Cl  0  0  0  0  0  0  0  0  0  0  0  0
    0.8786   -5.2744    1.2014 C   0  0  0  0  0  0  0  0  0  0  0  0
    2.2883  -11.3205    2.8094 C   0  0  0  0  0  0  0  0  0  0  0  0
    1.5813   -4.3542    1.8762 O   0  0  0  0  0  0  0  0  0  0  0  0
   -0.0869   -4.7854    0.5061 O   0  0  0  0  0  0  0  0  0  0  0  0
    2.4960  -11.0878    1.5738 C   0  0  0  0  0  0  0  0  0  0  0  0
    3.0608  -11.7250    3.7421 O   0  0  0  0  0  0  0  0  0  0  0  0
    1.1469   -3.0494    2.2532 C   0  0  2  0  0  0  0  0  0  0  0  0
    1.5691   -2.0269    1.7538 C   0  0  0  0  0  0  0  0  0  0  0  0
    2.2146   -2.0093    0.8423 O   0  0  0  0  0  0  0  0  0  0  0  0
    0.8204   -0.8401    2.1197 O   0  0  0  0  0  0  0  0  0  0  0  0
    0.5131   -3.1254    3.4831 C   0  0  0  0  0  0  0  0  0  0  0  0
   -0.7746   -3.0716    3.6865 N   0  0  0  0  0  0  0  0  0  0  0  0
  3  7  1  0
  7  8  1  6
  6  9  1  0
  7 10  1  0
  9 11  1  0
  9 12  2  0
 10 13  2  0
 10 14  1  0
 11 15  1  0
 15 16  1  0
 16 17  2  0
 16 18  1  0
 15 19  1  1
 19 20  1  0
  1  2  2  0
  2  6  1  0
  5  6  2  0
  4  5  1  0
  3  4  2  0
  1  3  1  0
M  END

$$$$
No_833-/export/home/yangzhenyu/potential_scad_32_flow//YTHDC2/2024-12-06-03-22-00/
     RDKit          3D

 18 19  0  0  1  0  0  0  0  0999 V2000
    1.1787   -8.0297    3.5154 C   0  0  0  0  0  0  0  0  0  0  0  0
    1.0491   -6.8434    2.9820 C   0  0  0  0  0  0  0  0  0  0  0  0
    0.0950   -8.8404    3.2292 C   0  0  0  0  0  0  0  0  0  0  0  0
   -0.9173   -8.4596    2.5152 C   0  0  0  0  0  0  0  0  0  0  0  0
   -1.0331   -7.2162    2.0653 C   0  0  0  0  0  0  0  0  0  0  0  0
   -0.0105   -6.3168    2.3081 C   0  0  0  0  0  0  0  0  0  0  0  0
    0.1150   -4.9910    1.8495 C   0  0  0  0  0  0  0  0  0  0  0  0
   -0.5774   -4.1593    2.0596 O   0  0  0  0  0  0  0  0  0  0  0  0
    1.1226   -4.6805    0.9513 O   0  0  0  0  0  0  0  0  0  0  0  0
    0.1816  -10.2865    3.6380 C   0  0  2  0  0  0  0  0  0  0  0  0
   -1.0297  -10.9845    3.7634 C   0  0  0  0  0  0  0  0  0  0  0  0
    1.2933  -10.7508    4.4849 C   0  0  0  0  0  0  0  0  0  0  0  0
    1.3765  -12.1305    4.6229 C   0  0  0  0  0  0  0  0  0  0  0  0
   -0.9354  -12.3620    3.9314 C   0  0  0  0  0  0  0  0  0  0  0  0
    0.3648  -12.9129    4.3235 C   0  0  0  0  0  0  0  0  0  0  0  0
    0.5385  -14.2308    4.2638 O   0  0  0  0  0  0  0  0  0  0  0  0
   -1.9668  -13.1573    3.6351 O   0  0  0  0  0  0  0  0  0  0  0  0
   -2.2170   -6.7895    1.3996 C   0  0  0  0  0  0  0  0  0  0  0  0
  6  7  1  0
  7  8  2  0
  7  9  1  0
 10  3  1  1
 10 12  1  0
 11 14  1  0
 13 15  1  0
 14 15  1  0
 15 16  2  0
 14 17  2  0
  5 18  1  0
 12 13  1  0
 10 11  1  0
  1  2  2  0
  2  6  1  0
  5  6  2  0
  4  5  1  0
  3  4  2  0
  1  3  1  0
M  END

$$$$
No_834-/export/home/yangzhenyu/potential_scad_32_flow//YTHDC2/2024-12-06-03-22-00/
     RDKit          3D

 17 16  0  0  1  0  0  0  0  0999 V2000
    1.1787   -8.0297    3.5154 C   0  0  0  0  0  0  0  0  0  0  0  0
    1.1048   -9.2215    3.2892 C   0  0  0  0  0  0  0  0  0  0  0  0
    1.2339   -9.7611    2.0189 P   0  0  2  0  0  0  0  0  0  0  0  0
    1.6164   -8.7276    1.1425 O   0  0  0  0  0  0  0  0  0  0  0  0
   -0.2012  -10.1006    1.5392 O   0  0  0  0  0  0  0  0  0  0  0  0
    2.0771  -11.0139    1.8171 O   0  0  0  0  0  0  0  0  0  0  0  0
    0.0453   -7.1639    3.4993 C   0  0  0  0  0  0  0  0  0  0  0  0
   -1.1180   -7.8103    3.6685 O   0  0  0  0  0  0  0  0  0  0  0  0
    0.0167   -5.9407    3.1344 O   0  0  0  0  0  0  0  0  0  0  0  0
    2.1551   -8.9535   -0.3358 C   0  0  0  0  0  0  0  0  0  0  0  0
    1.1126   -8.9293   -1.2140 C   0  0  0  0  0  0  0  0  0  0  0  0
    0.1679   -9.3681   -1.0464 O   0  0  0  0  0  0  0  0  0  0  0  0
    1.3143   -8.1527   -2.0845 O   0  0  0  0  0  0  0  0  0  0  0  0
    1.1811  -10.1910    4.4284 C   0  0  0  0  0  0  0  0  0  0  0  0
    0.0398  -10.9628    4.8696 C   0  0  0  0  0  0  0  0  0  0  0  0
   -0.5361  -11.4524    3.7902 O   0  0  0  0  0  0  0  0  0  0  0  0
   -0.6202  -10.7320    5.6460 O   0  0  0  0  0  0  0  0  0  0  0  0
  1  2  1  0
  2  3  1  0
  3  4  1  0
  3  5  2  0
  3  6  1  1
  1  7  1  0
  7  8  1  0
  7  9  2  0
  4 10  1  0
 10 11  1  0
 11 12  1  0
 11 13  2  0
  2 14  1  0
 14 15  1  0
 15 16  2  0
 15 17  1  0
M  END

$$$$
No_835-/export/home/yangzhenyu/potential_scad_32_flow//YTHDC2/2024-12-06-03-22-00/
     RDKit          3D

 18 18  0  0  1  0  0  0  0  0999 V2000
    1.1787   -8.0297    3.5154 C   0  0  0  0  0  0  0  0  0  0  0  0
    1.1048   -9.2215    3.2892 S   0  0  0  0  0  0  0  0  0  0  0  0
    1.7027   -9.9207    4.4941 C   0  0  0  0  0  0  0  0  0  0  0  0
    1.0055   -6.8137    2.6246 C   0  0  0  0  0  0  0  0  0  0  0  0
    1.1877   -7.2319    1.1848 C   0  0  0  0  0  0  0  0  0  0  0  0
    1.2348   -8.5007    0.7935 N   0  0  0  0  0  0  0  0  0  0  0  0
    1.1768   -9.5539    1.5814 C   0  0  1  0  0  0  0  0  0  0  0  0
    1.2290  -10.7855    1.1452 C   0  0  0  0  0  0  0  0  0  0  0  0
    0.2609  -11.2859    0.5573 P   0  0  0  0  0  0  0  0  0  0  0  0
   -0.3150  -10.5598   -0.7547 O   0  0  0  0  0  0  0  0  0  0  0  0
    0.3599  -12.7655    0.1524 O   0  0  0  0  0  0  0  0  0  0  0  0
   -1.0225  -11.3211    1.5558 O   0  0  0  0  0  0  0  0  0  0  0  0
    2.1143  -11.4631    4.2418 C   0  0  0  0  0  0  0  0  0  0  0  0
    1.1469   -5.3337    2.9433 I   0  0  0  0  0  0  0  0  0  0  0  0
    0.8918  -12.2595    4.1363 O   0  0  0  0  0  0  0  0  0  0  0  0
   -0.4745   -9.7015    3.6063 O   0  0  0  0  0  0  0  0  0  0  0  0
    0.9659  -13.1977    3.0565 C   0  0  0  0  0  0  0  0  0  0  0  0
    1.9621  -14.2264    3.3610 C   0  0  0  0  0  0  0  0  0  0  0  0
  1  2  1  0
  2  3  1  0
  1  4  2  0
  4  5  1  0
  5  6  2  0
  2  7  1  0
  6  7  1  0
  7  8  1  1
  8  9  1  0
  9 10  1  0
  9 11  2  0
  9 12  1  0
  3 13  1  0
  4 14  1  0
 13 15  1  0
  2 16  2  0
 15 17  1  0
 17 18  1  0
M  END

$$$$
No_836-/export/home/yangzhenyu/potential_scad_32_flow//YTHDC2/2024-12-06-03-22-00/
     RDKit          3D

 19 19  0  0  0  0  0  0  0  0999 V2000
    1.1787   -8.0297    3.5154 C   0  0  0  0  0  0  0  0  0  0  0  0
    1.0491   -6.8434    2.9820 P   0  0  0  0  0  0  0  0  0  0  0  0
    1.4824   -6.8604    1.5326 O   0  0  0  0  0  0  0  0  0  0  0  0
    1.8050   -5.6485    3.6698 O   0  0  0  0  0  0  0  0  0  0  0  0
   -0.4849   -6.4764    2.9518 O   0  0  0  0  0  0  0  0  0  0  0  0
    0.7997   -9.3290    2.8272 C   0  0  0  0  0  0  0  0  0  0  0  0
    1.1787  -10.6490    3.3503 C   0  0  0  0  0  0  0  0  0  0  0  0
    0.5199  -11.6679    2.9940 C   0  0  0  0  0  0  0  0  0  0  0  0
   -0.3116  -11.6633    1.9923 C   0  0  0  0  0  0  0  0  0  0  0  0
   -0.5440  -10.5207    1.2951 C   0  0  0  0  0  0  0  0  0  0  0  0
    0.0282   -9.3331    1.6770 C   0  0  0  0  0  0  0  0  0  0  0  0
    0.7172  -12.8907    3.6594 C   0  0  0  0  0  0  0  0  0  0  0  0
    1.2011  -14.0064    2.7964 C   0  0  0  0  0  0  0  0  0  0  0  0
    0.8342  -15.3107    3.1910 C   0  0  0  0  0  0  0  0  0  0  0  0
   -0.0944  -15.6043    3.9159 O   0  0  0  0  0  0  0  0  0  0  0  0
    1.6064  -16.3715    2.6903 O   0  0  0  0  0  0  0  0  0  0  0  0
   -1.4034  -10.4174    0.1152 O   0  0  0  0  0  0  0  0  0  0  0  0
   -0.9747   -9.7192   -0.8964 C   0  0  0  0  0  0  0  0  0  0  0  0
   -1.8056   -9.6175   -1.9366 C   0  0  0  0  0  0  0  0  0  0  0  0
  1  2  1  0
  2  3  2  0
  2  4  1  0
  2  5  1  0
  1  6  1  0
  8 12  1  0
 12 13  1  0
 13 14  1  0
 14 15  2  0
 14 16  1  0
 10 17  1  0
 17 18  1  0
 18 19  1  0
  6  7  2  0
  7  8  1  0
  8  9  2  0
  9 10  1  0
 10 11  2  0
  6 11  1  0
M  END

$$$$
No_837-/export/home/yangzhenyu/potential_scad_32_flow//YTHDC2/2024-12-06-03-22-00/
     RDKit          3D

 19 20  0  0  0  0  0  0  0  0999 V2000
    1.1787   -8.0297    3.5154 C   0  0  0  0  0  0  0  0  0  0  0  0
    1.1048   -9.2215    3.2892 S   0  0  0  0  0  0  0  0  0  0  0  0
    1.0589   -9.5258    1.8391 C   0  0  0  0  0  0  0  0  0  0  0  0
    1.1543   -8.4781    1.1014 C   0  0  0  0  0  0  0  0  0  0  0  0
    1.3811   -7.3514    2.1620 N   0  0  0  0  0  0  0  0  0  0  0  0
    1.3006   -8.1682   -0.1766 C   0  0  0  0  0  0  0  0  0  0  0  0
    1.0211   -9.2709   -0.8627 C   0  0  0  0  0  0  0  0  0  0  0  0
    0.8959  -10.7111    1.0910 C   0  0  0  0  0  0  0  0  0  0  0  0
    0.8741  -10.6180   -0.2893 C   0  0  0  0  0  0  0  0  0  0  0  0
    0.7575  -12.0139    1.7173 C   0  0  0  0  0  0  0  0  0  0  0  0
   -0.4922  -12.5780    1.8585 C   0  0  0  0  0  0  0  0  0  0  0  0
   -1.6267  -11.8712    1.8614 F   0  0  0  0  0  0  0  0  0  0  0  0
   -0.6750  -13.6123    0.8509 Br  0  0  0  0  0  0  0  0  0  0  0  0
   -0.5433  -13.1926    3.1173 F   0  0  0  0  0  0  0  0  0  0  0  0
    1.8665  -12.5517    2.1641 C   0  0  0  0  0  0  0  0  0  0  0  0
    2.5212  -13.4543    1.1196 N   0  0  0  0  0  0  0  0  0  0  0  0
    3.0583  -14.6130    1.5737 C   0  0  0  0  0  0  0  0  0  0  0  0
    2.3885  -15.4051    2.4175 C   0  0  0  0  0  0  0  0  0  0  0  0
    2.6305  -16.7725    2.5837 C   0  0  0  0  0  0  0  0  0  0  0  0
  1  2  1  0
  2  3  1  0
  1  5  2  0
  4  5  1  0
  8 10  1  0
 10 11  1  0
 11 12  1  0
 11 13  1  0
 11 14  1  0
 10 15  1  0
 15 16  1  0
 16 17  1  0
 17 18  1  0
 18 19  1  0
  3  4  2  0
  4  6  1  0
  6  7  2  0
  7  9  1  0
  8  9  2  0
  3  8  1  0
M  END

$$$$
No_838-/export/home/yangzhenyu/potential_scad_32_flow//YTHDC2/2024-12-06-03-22-00/
     RDKit          3D

 18 19  0  0  1  0  0  0  0  0999 V2000
    1.1787   -8.0297    3.5154 C   0  0  1  0  0  0  0  0  0  0  0  0
    1.1048   -9.2215    3.2892 F   0  0  0  0  0  0  0  0  0  0  0  0
    2.1516   -7.3031    2.6109 C   0  0  0  0  0  0  0  0  0  0  0  0
    1.9723   -7.9215    1.3923 C   0  0  0  0  0  0  0  0  0  0  0  0
    2.8599   -9.0539    1.0843 C   0  0  0  0  0  0  0  0  0  0  0  0
    2.5149   -9.6534   -0.0999 C   0  0  0  0  0  0  0  0  0  0  0  0
    1.4692   -8.8723   -0.7080 C   0  0  0  0  0  0  0  0  0  0  0  0
    1.2123   -7.8888    0.2549 C   0  0  1  0  0  0  0  0  0  0  0  0
   -0.1003   -7.5189    3.4822 Br  0  0  0  0  0  0  0  0  0  0  0  0
    0.8128   -9.0242   -1.6951 O   0  0  0  0  0  0  0  0  0  0  0  0
    0.2482   -6.9521    0.3047 C   0  0  0  0  0  0  0  0  0  0  0  0
   -1.1280   -7.3497   -0.0233 C   0  0  0  0  0  0  0  0  0  0  0  0
   -1.8327   -6.5776   -0.8270 C   0  0  0  0  0  0  0  0  0  0  0  0
   -1.6181   -5.1568   -0.8356 C   0  0  0  0  0  0  0  0  0  0  0  0
   -0.4501   -4.6831   -0.1966 C   0  0  0  0  0  0  0  0  0  0  0  0
    0.3576   -5.6088    0.5387 C   0  0  0  0  0  0  0  0  0  0  0  0
   -2.5730   -4.1304   -1.4065 O   0  0  0  0  0  0  0  0  0  0  0  0
   -2.6970   -4.3376   -2.7422 C   0  0  0  0  0  0  0  0  0  0  0  0
  1  2  1  6
  1  3  1  0
  3  4  1  0
  4  5  1  0
  5  6  2  0
  6  7  1  0
  4  8  1  0
  7  8  1  0
  1  9  1  0
  7 10  2  0
  8 11  1  1
 14 17  1  0
 17 18  1  0
 11 12  2  0
 12 13  1  0
 13 14  2  0
 14 15  1  0
 15 16  2  0
 11 16  1  0
M  END

$$$$
No_839-/export/home/yangzhenyu/potential_scad_32_flow//YTHDC2/2024-12-06-03-22-00/
     RDKit          3D

 18 18  0  0  1  0  0  0  0  0999 V2000
    1.1787   -8.0297    3.5154 C   0  0  0  0  0  0  0  0  0  0  0  0
    1.0491   -6.8434    2.9820 C   0  0  0  0  0  0  0  0  0  0  0  0
    1.9985   -8.9840    2.8958 C   0  0  2  0  0  0  0  0  0  0  0  0
    1.7297   -9.2108    1.6335 C   0  0  0  0  0  0  0  0  0  0  0  0
    1.7343   -8.0566    0.8408 C   0  0  2  0  0  0  0  0  0  0  0  0
    1.0269   -6.8892    1.4456 C   0  0  0  0  0  0  0  0  0  0  0  0
    1.7596   -8.0979   -0.4723 C   0  0  0  0  0  0  0  0  0  0  0  0
    2.7309   -8.8718   -1.0817 O   0  0  0  0  0  0  0  0  0  0  0  0
    0.9162   -8.0111   -1.3179 O   0  0  0  0  0  0  0  0  0  0  0  0
    1.9733  -10.3593    3.5850 C   0  0  0  0  0  0  0  0  0  0  0  0
    2.9330  -10.5216    4.4803 O   0  0  0  0  0  0  0  0  0  0  0  0
    1.3267  -11.3769    3.2747 O   0  0  0  0  0  0  0  0  0  0  0  0
    0.8756   -5.6609    3.5096 O   0  0  0  0  0  0  0  0  0  0  0  0
    0.8160   -5.7191    0.8670 O   0  0  0  0  0  0  0  0  0  0  0  0
    2.0830  -10.3237    1.0555 O   0  0  0  0  0  0  0  0  0  0  0  0
    3.3123  -11.7420    5.0417 C   0  0  0  0  0  0  0  0  0  0  0  0
    4.8323  -11.5731    5.0922 C   0  0  0  0  0  0  0  0  0  0  0  0
    5.3485  -10.2340    5.2084 O   0  0  0  0  0  0  0  0  0  0  0  0
  1  2  1  0
  1  3  1  0
  3  4  1  0
  4  5  1  0
  2  6  1  0
  5  6  1  0
  5  7  1  6
  7  8  1  0
  7  9  2  0
  3 10  1  1
 10 11  1  0
 10 12  2  0
  2 13  2  0
  6 14  2  0
  4 15  2  0
 11 16  1  0
 16 17  1  0
 17 18  1  0
M  END

$$$$
No_840-/export/home/yangzhenyu/potential_scad_32_flow//YTHDC2/2024-12-06-03-22-00/
     RDKit          3D

 19 19  0  0  1  0  0  0  0  0999 V2000
    1.1787   -8.0297    3.5154 O   0  0  0  0  0  0  0  0  0  0  0  0
    0.6747   -7.4019    2.7838 C   0  0  0  0  0  0  0  0  0  0  0  0
    0.7594   -8.0032    1.4295 C   0  0  1  0  0  0  0  0  0  0  0  0
    1.4743   -7.4398    0.6034 C   0  0  0  0  0  0  0  0  0  0  0  0
    1.8433   -8.4151   -0.4648 C   0  0  0  0  0  0  0  0  0  0  0  0
    1.3280   -9.6577   -0.0923 C   0  0  0  0  0  0  0  0  0  0  0  0
    0.7557   -9.3951    1.2403 C   0  0  2  0  0  0  0  0  0  0  0  0
    0.2273  -10.3094    2.0339 C   0  0  2  0  0  0  0  0  0  0  0  0
    0.9712  -11.2635    2.5661 C   0  0  0  0  0  0  0  0  0  0  0  0
    0.5454  -12.3777    3.2901 C   0  0  0  0  0  0  0  0  0  0  0  0
    1.4179  -13.5235    3.2766 C   0  0  0  0  0  0  0  0  0  0  0  0
    1.1686  -14.4426    2.1262 C   0  0  0  0  0  0  0  0  0  0  0  0
    2.2210  -14.8825    1.5147 O   0  0  0  0  0  0  0  0  0  0  0  0
    0.0431  -14.8880    1.7875 O   0  0  0  0  0  0  0  0  0  0  0  0
   -0.9528  -10.7104    2.3976 C   0  0  0  0  0  0  0  0  0  0  0  0
    0.1427   -6.3383    3.0444 O   0  0  0  0  0  0  0  0  0  0  0  0
   -2.1136   -9.8344    1.8109 N   0  0  0  0  0  0  0  0  0  0  0  0
   -1.4911  -11.6660    2.9859 O   0  0  0  0  0  0  0  0  0  0  0  0
    2.5578   -8.2002   -1.4834 O   0  0  0  0  0  0  0  0  0  0  0  0
  1  2  1  0
  3  2  1  1
  3  4  1  0
  4  5  1  0
  5  6  1  0
  3  7  1  0
  7  6  1  6
  7  8  1  0
  8  9  1  6
  9 10  1  0
 10 11  1  0
 11 12  1  0
 12 13  1  0
 12 14  2  0
  8 15  1  0
  2 16  2  0
 15 17  1  0
 15 18  2  0
  5 19  2  0
M  END

$$$$
No_841-/export/home/yangzhenyu/potential_scad_32_flow//YTHDC2/2024-12-06-03-22-00/
     RDKit          3D

 18 18  0  0  1  0  0  0  0  0999 V2000
    1.1787   -8.0297    3.5154 C   0  0  0  0  0  0  0  0  0  0  0  0
    1.1048   -9.2215    3.2892 C   0  0  2  0  0  0  0  0  0  0  0  0
    1.3627  -10.1721    4.3044 C   0  0  0  0  0  0  0  0  0  0  0  0
    1.7354  -11.4730    3.9023 Cl  0  0  0  0  0  0  0  0  0  0  0  0
    0.9883   -7.0084    2.4771 C   0  0  2  0  0  0  0  0  0  0  0  0
    0.8182   -7.3987    1.1991 C   0  0  0  0  0  0  0  0  0  0  0  0
    0.7531   -8.6622    0.8823 C   0  0  0  0  0  0  0  0  0  0  0  0
    0.9102   -9.6775    1.8974 C   0  0  0  0  0  0  0  0  0  0  0  0
    0.5861   -9.2140   -0.3863 Cl  0  0  0  0  0  0  0  0  0  0  0  0
    0.9363  -10.8782    1.6217 O   0  0  0  0  0  0  0  0  0  0  0  0
    1.1185   -5.2912    2.8146 Cl  0  0  0  0  0  0  0  0  0  0  0  0
    1.1719   -9.9323    5.5050 O   0  0  0  0  0  0  0  0  0  0  0  0
    0.7067   -6.4736    0.2838 O   0  0  0  0  0  0  0  0  0  0  0  0
   -0.7531   -6.1739    0.0922 C   0  0  0  0  0  0  0  0  0  0  0  0
   -1.0391   -4.7978    0.2095 C   0  0  0  0  0  0  0  0  0  0  0  0
   -0.4571   -3.9076   -0.4246 C   0  0  0  0  0  0  0  0  0  0  0  0
   -0.8736   -2.5305   -0.3157 C   0  0  0  0  0  0  0  0  0  0  0  0
   -1.9731   -2.1970    0.3489 C   0  0  0  0  0  0  0  0  0  0  0  0
  1  2  1  0
  2  3  1  6
  3  4  1  0
  5  6  1  0
  2  8  1  0
  7  8  1  0
  7  9  1  0
  8 10  2  0
  5 11  1  6
  3 12  2  0
  6 13  1  0
 13 14  1  0
 14 15  1  0
 15 16  1  0
 16 17  2  3
 17 18  1  0
  1  5  1  0
  6  7  1  0
M  END

$$$$
No_842-/export/home/yangzhenyu/potential_scad_32_flow//YTHDC2/2024-12-06-03-22-00/
     RDKit          3D

 18 20  0  0  1  0  0  0  0  0999 V2000
    1.1787   -8.0297    3.5154 C   0  0  0  0  0  0  0  0  0  0  0  0
    1.1048   -9.2215    3.2892 C   0  0  0  0  0  0  0  0  0  0  0  0
    1.3627  -10.1721    4.3044 C   0  0  0  0  0  0  0  0  0  0  0  0
    1.7354  -11.4730    3.9023 C   0  0  0  0  0  0  0  0  0  0  0  0
    1.8080  -11.8127    2.7216 C   0  0  0  0  0  0  0  0  0  0  0  0
    1.5854  -11.0021    1.7249 C   0  0  0  0  0  0  0  0  0  0  0  0
    1.3573   -9.7389    1.9287 C   0  0  0  0  0  0  0  0  0  0  0  0
    1.1102   -8.8712    0.9017 C   0  0  2  0  0  0  0  0  0  0  0  0
    1.5724   -9.1697   -0.3048 C   0  0  0  0  0  0  0  0  0  0  0  0
    1.2378   -8.2159   -1.4226 N   0  0  0  0  0  0  0  0  0  0  0  0
    1.9970  -13.5322    2.2946 C   0  0  0  0  0  0  0  0  0  0  0  0
    1.9267  -14.3497    3.2086 O   0  0  0  0  0  0  0  0  0  0  0  0
    2.1426  -13.6920    1.0375 O   0  0  0  0  0  0  0  0  0  0  0  0
    0.9795   -7.0663    2.5396 O   0  0  0  0  0  0  0  0  0  0  0  0
    1.0790   -7.3793    1.1798 C   0  0  2  0  0  0  0  0  0  0  0  0
    1.0519   -7.0309   -1.0465 C   0  0  0  0  0  0  0  0  0  0  0  0
    0.8510   -6.5977    0.1718 N   0  0  0  0  0  0  0  0  0  0  0  0
    0.4752   -5.1603    0.6456 C   0  0  0  0  0  0  0  0  0  0  0  0
  1  2  1  0
  7  8  1  0
  9 10  1  0
  5 11  1  0
 11 12  1  0
 11 13  2  0
  1 14  1  0
  8 15  1  0
 15 14  1  1
 15 17  1  0
 16 17  1  0
 17 18  1  0
  8  9  1  6
 10 16  1  0
  2  3  2  0
  3  4  1  0
  4  5  2  0
  5  6  1  0
  6  7  2  0
  2  7  1  0
M  END

$$$$
No_843-/export/home/yangzhenyu/potential_scad_32_flow//YTHDC2/2024-12-06-03-22-00/
     RDKit          3D

 19 19  0  0  1  0  0  0  0  0999 V2000
    1.1787   -8.0297    3.5154 O   0  0  0  0  0  0  0  0  0  0  0  0
    0.9969   -8.9689    3.0048 C   0  0  1  0  0  0  0  0  0  0  0  0
    0.9976   -8.9567    1.6341 C   0  0  0  0  0  0  0  0  0  0  0  0
    0.7663   -7.7728    1.0082 C   0  0  1  0  0  0  0  0  0  0  0  0
    1.1468   -6.5619    1.6541 C   0  0  0  0  0  0  0  0  0  0  0  0
    1.3592   -6.6155    3.0007 C   0  0  0  0  0  0  0  0  0  0  0  0
    0.9781  -10.1276    3.6866 C   0  0  0  0  0  0  0  0  0  0  0  0
   -0.1772  -10.7865    4.0343 C   0  0  0  0  0  0  0  0  0  0  0  0
    2.1937  -10.7840    4.0491 C   0  0  0  0  0  0  0  0  0  0  0  0
    0.7594   -7.7652   -0.3802 C   0  0  0  0  0  0  0  0  0  0  0  0
   -0.6576   -7.7602   -0.7560 O   0  0  0  0  0  0  0  0  0  0  0  0
    1.5420   -7.9525   -1.2402 O   0  0  0  0  0  0  0  0  0  0  0  0
    1.1820  -10.1343    0.9166 O   0  0  0  0  0  0  0  0  0  0  0  0
    3.3121  -10.0890    4.5396 O   0  0  0  0  0  0  0  0  0  0  0  0
    2.2950  -12.0646    3.9746 O   0  0  0  0  0  0  0  0  0  0  0  0
    1.6628   -5.5922    3.7337 O   0  0  0  0  0  0  0  0  0  0  0  0
   -0.6221  -11.9060    3.5063 C   0  0  0  0  0  0  0  0  0  0  0  0
   -1.8240  -12.0422    2.8969 C   0  0  0  0  0  0  0  0  0  0  0  0
   -2.2350  -13.2059    2.3418 C   0  0  0  0  0  0  0  0  0  0  0  0
  1  2  1  0
  2  3  1  0
  3  4  1  0
  4  5  1  0
  1  6  1  0
  5  6  1  0
  2  7  1  6
  7  8  1  0
  7  9  1  0
  4 10  1  6
 10 11  2  0
 10 12  1  0
  3 13  2  0
  9 14  1  0
  9 15  2  0
  6 16  2  0
  8 17  1  0
 17 18  2  3
 18 19  1  0
M  END

$$$$
No_844-/export/home/yangzhenyu/potential_scad_32_flow//YTHDC2/2024-12-06-03-22-00/
     RDKit          3D

 20 20  0  0  1  0  0  0  0  0999 V2000
    1.1787   -8.0297    3.5154 P   0  0  2  0  0  0  0  0  0  0  0  0
    1.2030   -9.2736    3.3536 O   0  0  0  0  0  0  0  0  0  0  0  0
    2.2726   -7.2253    3.0302 O   0  0  0  0  0  0  0  0  0  0  0  0
    0.6336   -7.4987    4.7829 O   0  0  0  0  0  0  0  0  0  0  0  0
   -0.0857   -7.6211    2.3718 O   0  0  0  0  0  0  0  0  0  0  0  0
    0.7977  -10.3352    2.4163 C   0  0  0  0  0  0  0  0  0  0  0  0
   -0.0088  -11.2583    2.9190 C   0  0  0  0  0  0  0  0  0  0  0  0
   -1.1540  -11.3443    2.7902 C   0  0  0  0  0  0  0  0  0  0  0  0
   -1.6223  -11.5935    1.8058 C   0  0  0  0  0  0  0  0  0  0  0  0
   -0.9028  -12.2635    0.8248 C   0  0  0  0  0  0  0  0  0  0  0  0
    0.5546  -12.2093    1.0521 C   0  0  0  0  0  0  0  0  0  0  0  0
    1.0414  -11.7173    2.1156 C   0  0  0  0  0  0  0  0  0  0  0  0
    2.1643  -12.3868    2.5446 C   0  0  0  0  0  0  0  0  0  0  0  0
    2.7281  -13.5225    1.9433 O   0  0  0  0  0  0  0  0  0  0  0  0
    2.7538  -12.1815    3.8146 O   0  0  0  0  0  0  0  0  0  0  0  0
   -1.5128  -12.8287   -0.6604 O   0  0  0  0  0  0  0  0  0  0  0  0
   -1.8599  -11.9707   -1.4462 C   0  0  0  0  0  0  0  0  0  0  0  0
    0.2046   -7.0661    0.9756 C   0  0  0  0  0  0  0  0  0  0  0  0
   -0.0696   -8.1478    0.0322 C   0  0  0  0  0  0  0  0  0  0  0  0
    0.7889   -8.8511   -0.6730 C   0  0  0  0  0  0  0  0  0  0  0  0
  1  2  1  0
  1  3  2  0
  1  4  1  1
  1  5  1  0
  2  6  1  0
  6  7  1  0
 12 13  1  0
 13 14  2  0
 13 15  1  0
 10 16  1  0
 16 17  1  0
  5 18  1  0
 18 19  1  0
 19 20  1  0
  7  8  2  0
  8  9  1  0
  9 10  2  0
 10 11  1  0
 11 12  2  0
  7 12  1  0
M  END

$$$$
No_845-/export/home/yangzhenyu/potential_scad_32_flow//YTHDC2/2024-12-06-03-22-00/
     RDKit          3D

 20 20  0  0  1  0  0  0  0  0999 V2000
    1.1787   -8.0297    3.5154 O   0  0  0  0  0  0  0  0  0  0  0  0
    0.9969   -8.9689    3.0048 C   0  0  1  0  0  0  0  0  0  0  0  0
    0.9976   -8.9567    1.6341 C   0  0  0  0  0  0  0  0  0  0  0  0
    0.7663   -7.7728    1.0082 C   0  0  1  0  0  0  0  0  0  0  0  0
    1.1468   -6.5619    1.6541 C   0  0  0  0  0  0  0  0  0  0  0  0
    1.3592   -6.6155    3.0007 C   0  0  0  0  0  0  0  0  0  0  0  0
    0.9781  -10.1276    3.6866 C   0  0  0  0  0  0  0  0  0  0  0  0
   -0.1772  -10.7865    4.0343 C   0  0  0  0  0  0  0  0  0  0  0  0
    2.1937  -10.7840    4.0491 C   0  0  0  0  0  0  0  0  0  0  0  0
    0.4440   -7.6906   -0.2521 C   0  0  0  0  0  0  0  0  0  0  0  0
    0.0878   -8.8042   -0.7134 N   0  0  0  0  0  0  0  0  0  0  0  0
    0.6062  -10.0423    0.7624 O   0  0  0  0  0  0  0  0  0  0  0  0
    3.3144  -10.0638    4.4644 O   0  0  0  0  0  0  0  0  0  0  0  0
   -0.7913   -8.5071   -1.7757 C   0  0  0  0  0  0  0  0  0  0  0  0
   -1.2903   -9.8216   -2.5009 O   0  0  0  0  0  0  0  0  0  0  0  0
   -1.3539   -7.3956   -2.3287 O   0  0  0  0  0  0  0  0  0  0  0  0
    1.7196   -5.6624    3.7548 O   0  0  0  0  0  0  0  0  0  0  0  0
    2.3317  -12.1242    4.1039 N   0  0  0  0  0  0  0  0  0  0  0  0
   -0.6318  -11.8925    3.5582 O   0  0  0  0  0  0  0  0  0  0  0  0
   -0.8721  -10.3407    5.2157 O   0  0  0  0  0  0  0  0  0  0  0  0
  1  2  1  0
  2  3  1  0
  3  4  1  0
  4  5  1  6
  1  6  1  0
  5  6  1  0
  2  7  1  6
  7  8  1  0
  7  9  1  0
  4 10  1  0
 10 11  2  3
  3 12  2  0
  9 13  2  0
 11 14  1  0
 14 15  2  0
 14 16  1  0
  6 17  2  0
  9 18  1  0
  8 19  2  0
  8 20  1  0
M  END

$$$$
No_846-/export/home/yangzhenyu/potential_scad_32_flow//YTHDC2/2024-12-06-03-22-00/
     RDKit          3D

 18 18  0  0  0  0  0  0  0  0999 V2000
    1.1787   -8.0297    3.5154 P   0  0  0  0  0  0  0  0  0  0  0  0
    1.2030   -9.2736    3.3536 O   0  0  0  0  0  0  0  0  0  0  0  0
    2.2726   -7.2253    3.0302 O   0  0  0  0  0  0  0  0  0  0  0  0
   -0.0263   -7.6136    2.3451 O   0  0  0  0  0  0  0  0  0  0  0  0
    2.3584  -10.0966    3.0407 C   0  0  0  0  0  0  0  0  0  0  0  0
    1.9547  -10.9502    1.8143 C   0  0  0  0  0  0  0  0  0  0  0  0
    1.8468  -10.3195    0.6192 C   0  0  0  0  0  0  0  0  0  0  0  0
    0.6811  -10.4967    0.0070 C   0  0  0  0  0  0  0  0  0  0  0  0
   -0.1287  -11.5655    0.2890 C   0  0  0  0  0  0  0  0  0  0  0  0
    0.1242  -12.3062    1.3999 C   0  0  0  0  0  0  0  0  0  0  0  0
    1.2216  -11.9881    2.2126 C   0  0  0  0  0  0  0  0  0  0  0  0
    1.4823  -12.7203    3.3324 C   0  0  0  0  0  0  0  0  0  0  0  0
    2.2398  -12.5427    4.2345 I   0  0  0  0  0  0  0  0  0  0  0  0
    0.8725  -14.1210    3.1861 O   0  0  0  0  0  0  0  0  0  0  0  0
    0.3703   -7.4127    4.6917 O   0  0  0  0  0  0  0  0  0  0  0  0
    2.8568   -9.3059    0.2590 O   0  0  0  0  0  0  0  0  0  0  0  0
   -1.1010  -11.9460   -0.6691 O   0  0  0  0  0  0  0  0  0  0  0  0
   -2.2749  -12.1515   -0.3409 C   0  0  0  0  0  0  0  0  0  0  0  0
  1  2  1  0
  1  3  1  0
  1  4  2  0
  2  5  1  0
  5  6  1  0
 11 12  1  0
 12 13  1  0
 12 14  2  0
  1 15  1  0
  7 16  1  0
  9 17  1  0
 17 18  1  0
  6  7  2  0
  7  8  1  0
  8  9  2  0
  9 10  1  0
 10 11  2  0
  6 11  1  0
M  END

$$$$
No_847-/export/home/yangzhenyu/potential_scad_32_flow//YTHDC2/2024-12-06-03-22-00/
     RDKit          3D

 16 16  0  0  0  0  0  0  0  0999 V2000
    1.1787   -8.0297    3.5154 C   0  0  0  0  0  0  0  0  0  0  0  0
    1.1048   -9.2215    3.2892 C   0  0  0  0  0  0  0  0  0  0  0  0
    1.3627  -10.1721    4.3044 C   0  0  0  0  0  0  0  0  0  0  0  0
    1.7354  -11.4730    3.9023 C   0  0  0  0  0  0  0  0  0  0  0  0
    1.8080  -11.8127    2.7216 C   0  0  0  0  0  0  0  0  0  0  0  0
    1.5854  -11.0021    1.7249 C   0  0  0  0  0  0  0  0  0  0  0  0
    1.3573   -9.7389    1.9287 C   0  0  0  0  0  0  0  0  0  0  0  0
    1.1102   -8.8712    0.9017 C   0  0  0  0  0  0  0  0  0  0  0  0
    0.5299   -7.6926    1.0325 O   0  0  0  0  0  0  0  0  0  0  0  0
    1.3970   -9.2634   -0.4035 O   0  0  0  0  0  0  0  0  0  0  0  0
    2.1059  -13.2053    2.3252 C   0  0  0  0  0  0  0  0  0  0  0  0
    1.8988  -14.2531    3.1368 O   0  0  0  0  0  0  0  0  0  0  0  0
    2.5007  -13.4973    1.0804 O   0  0  0  0  0  0  0  0  0  0  0  0
    2.4952   -7.3482    3.5373 O   0  0  0  0  0  0  0  0  0  0  0  0
    0.1809   -7.3194    3.7599 O   0  0  0  0  0  0  0  0  0  0  0  0
    2.0088  -15.5327    2.6485 C   0  0  0  0  0  0  0  0  0  0  0  0
  1  2  1  0
  7  8  1  0
  8  9  2  0
  8 10  1  0
  5 11  1  0
 11 12  1  0
 11 13  2  0
  1 14  1  0
  1 15  2  0
 12 16  1  0
  2  3  2  0
  3  4  1  0
  4  5  2  0
  5  6  1  0
  6  7  2  0
  2  7  1  0
M  END

$$$$
No_848-/export/home/yangzhenyu/potential_scad_32_flow//YTHDC2/2024-12-06-03-22-00/
     RDKit          3D

 18 18  0  0  1  0  0  0  0  0999 V2000
    1.1787   -8.0297    3.5154 C   0  0  0  0  0  0  0  0  0  0  0  0
    1.0491   -6.8434    2.9820 C   0  0  0  0  0  0  0  0  0  0  0  0
    0.9905   -9.0774    2.6527 C   0  0  0  0  0  0  0  0  0  0  0  0
    0.7897   -8.9519    1.3691 C   0  0  0  0  0  0  0  0  0  0  0  0
    0.7018   -7.7198    0.7892 C   0  0  0  0  0  0  0  0  0  0  0  0
    0.8918   -6.5957    1.6117 C   0  0  0  0  0  0  0  0  0  0  0  0
    1.0711  -10.4814    3.2282 C   0  0  2  0  0  0  0  0  0  0  0  0
    2.1432  -11.0138    3.5962 C   0  0  0  0  0  0  0  0  0  0  0  0
   -0.0553  -11.2345    3.2841 C   0  0  0  0  0  0  0  0  0  0  0  0
   -1.2156  -10.5474    3.8659 C   0  0  0  0  0  0  0  0  0  0  0  0
   -1.0149   -9.8213    5.1369 C   0  0  0  0  0  0  0  0  0  0  0  0
   -1.9638   -8.7035    5.2747 N   0  0  0  0  0  0  0  0  0  0  0  0
   -0.0964  -12.3875    2.8846 O   0  0  0  0  0  0  0  0  0  0  0  0
    0.9366   -5.0730    1.0577 O   0  0  0  0  0  0  0  0  0  0  0  0
   -3.1769   -8.7933    5.4481 C   0  0  0  0  0  0  0  0  0  0  0  0
    2.3261  -11.3370    4.5711 O   0  0  0  0  0  0  0  0  0  0  0  0
   -3.9833   -7.7626    5.4837 C   0  0  0  0  0  0  0  0  0  0  0  0
   -5.1382   -7.8176    6.2374 C   0  0  0  0  0  0  0  0  0  0  0  0
  3  7  1  0
  7  8  1  6
  7  9  1  0
  9 10  1  0
 10 11  1  0
 11 12  1  0
  9 13  2  0
  6 14  1  0
 12 15  1  0
  8 16  2  0
 15 17  1  0
 17 18  2  0
  1  2  2  0
  2  6  1  0
  5  6  2  0
  4  5  1  0
  3  4  2  0
  1  3  1  0
M  END

$$$$
No_849-/export/home/yangzhenyu/potential_scad_32_flow//YTHDC2/2024-12-06-03-22-00/
     RDKit          3D

 19 19  0  0  0  0  0  0  0  0999 V2000
    1.1787   -8.0297    3.5154 C   0  0  0  0  0  0  0  0  0  0  0  0
    1.0491   -6.8434    2.9820 C   0  0  0  0  0  0  0  0  0  0  0  0
    0.0950   -8.8404    3.2292 C   0  0  0  0  0  0  0  0  0  0  0  0
   -0.9173   -8.4596    2.5152 C   0  0  0  0  0  0  0  0  0  0  0  0
   -1.0331   -7.2162    2.0653 C   0  0  0  0  0  0  0  0  0  0  0  0
   -0.0105   -6.3168    2.3081 C   0  0  0  0  0  0  0  0  0  0  0  0
    0.0485   -4.9783    1.8782 C   0  0  0  0  0  0  0  0  0  0  0  0
   -0.6974   -4.6139    0.8644 N   0  0  0  0  0  0  0  0  0  0  0  0
    1.1856   -4.2234    2.0820 O   0  0  0  0  0  0  0  0  0  0  0  0
    0.1816  -10.2744    3.6704 C   0  0  0  0  0  0  0  0  0  0  0  0
    1.2795  -10.8958    4.0442 C   0  0  0  0  0  0  0  0  0  0  0  0
    1.7026  -11.8608    3.2242 C   0  0  0  0  0  0  0  0  0  0  0  0
    1.3757  -13.2424    3.5393 C   0  0  0  0  0  0  0  0  0  0  0  0
    1.0947  -14.1510    2.4467 C   0  0  0  0  0  0  0  0  0  0  0  0
    0.7844  -15.5035    2.8582 O   0  0  0  0  0  0  0  0  0  0  0  0
   -0.7280   -3.2836    0.3407 C   0  0  0  0  0  0  0  0  0  0  0  0
   -0.3866   -3.0999   -0.9051 C   0  0  0  0  0  0  0  0  0  0  0  0
   -0.9612   -3.8338   -1.7374 O   0  0  0  0  0  0  0  0  0  0  0  0
    0.0671   -1.9435   -1.4147 O   0  0  0  0  0  0  0  0  0  0  0  0
  6  7  1  0
  7  8  1  0
  7  9  2  0
  3 10  1  0
 10 11  1  0
 11 12  1  0
 12 13  1  0
 13 14  1  0
 14 15  1  0
  8 16  1  0
 16 17  1  0
 17 18  2  0
 17 19  1  0
  1  2  2  0
  2  6  1  0
  5  6  2  0
  4  5  1  0
  3  4  2  0
  1  3  1  0
M  END

$$$$
No_850-/export/home/yangzhenyu/potential_scad_32_flow//YTHDC2/2024-12-06-03-22-00/
     RDKit          3D

 18 18  0  0  1  0  0  0  0  0999 V2000
    1.1787   -8.0297    3.5154 C   0  0  0  0  0  0  0  0  0  0  0  0
    1.0491   -6.8434    2.9820 C   0  0  2  0  0  0  0  0  0  0  0  0
    2.0004   -8.9805    3.0498 C   0  0  2  0  0  0  0  0  0  0  0  0
    2.3555   -9.0813    1.8033 C   0  0  2  0  0  0  0  0  0  0  0  0
    0.5337   -5.6723    3.4198 C   0  0  0  0  0  0  0  0  0  0  0  0
    2.1210   -8.0069    0.9590 C   0  0  1  0  0  0  0  0  0  0  0  0
    1.5163   -6.8803    1.4787 C   0  0  0  0  0  0  0  0  0  0  0  0
    2.5801   -7.8776   -0.2834 Cl  0  0  0  0  0  0  0  0  0  0  0  0
    1.3383   -4.5711    3.5603 O   0  0  0  0  0  0  0  0  0  0  0  0
    2.1223  -10.5416    3.8890 C   0  0  0  0  0  0  0  0  0  0  0  0
    1.3504  -11.5148    3.7697 O   0  0  0  0  0  0  0  0  0  0  0  0
    3.2218  -10.5156    4.7197 O   0  0  0  0  0  0  0  0  0  0  0  0
   -0.6872   -5.5215    3.4414 O   0  0  0  0  0  0  0  0  0  0  0  0
    1.4349   -5.7143    0.8547 O   0  0  0  0  0  0  0  0  0  0  0  0
    2.9027  -10.2261    1.2314 Cl  0  0  0  0  0  0  0  0  0  0  0  0
    0.8149   -3.2436    3.5071 C   0  0  0  0  0  0  0  0  0  0  0  0
    0.7463   -2.9662    1.9548 C   0  0  0  0  0  0  0  0  0  0  0  0
   -0.4062   -2.6536    1.5567 C   0  0  0  0  0  0  0  0  0  0  0  0
  1  3  1  0
  2  5  1  6
  4  6  1  0
  2  7  1  0
  6  7  1  0
  6  8  1  1
  5  9  1  0
  3 10  1  6
 10 11  2  0
 10 12  1  0
  5 13  2  0
  7 14  2  0
  4 15  1  6
  9 16  1  0
 16 17  1  0
 17 18  1  0
  1  2  1  0
  3  4  1  0
M  END

$$$$
No_851-/export/home/yangzhenyu/potential_scad_32_flow//YTHDC2/2024-12-06-03-22-00/
     RDKit          3D

 20 21  0  0  0  0  0  0  0  0999 V2000
    1.1787   -8.0297    3.5154 C   0  0  0  0  0  0  0  0  0  0  0  0
    1.1048   -9.2215    3.2892 C   0  0  0  0  0  0  0  0  0  0  0  0
    1.0239   -9.7790    2.0239 C   0  0  0  0  0  0  0  0  0  0  0  0
    1.0632  -11.2393    1.8978 C   0  0  0  0  0  0  0  0  0  0  0  0
    1.1290   -7.1931    2.2312 C   0  0  0  0  0  0  0  0  0  0  0  0
    1.2150   -7.7311    1.0133 C   0  0  0  0  0  0  0  0  0  0  0  0
    1.1283   -9.0526    0.8563 C   0  0  0  0  0  0  0  0  0  0  0  0
    0.7380  -11.7651    0.6690 C   0  0  0  0  0  0  0  0  0  0  0  0
    0.7250  -10.9759   -0.4606 C   0  0  0  0  0  0  0  0  0  0  0  0
    0.7991   -9.6642   -0.3274 N   0  0  0  0  0  0  0  0  0  0  0  0
    1.2018  -12.1863    3.1787 C   0  0  0  0  0  0  0  0  0  0  0  0
    0.7295  -13.4516    2.9753 O   0  0  0  0  0  0  0  0  0  0  0  0
    1.2947   -5.4633    2.3416 C   0  0  0  0  0  0  0  0  0  0  0  0
    1.8628  -14.4011    3.1425 C   0  0  0  0  0  0  0  0  0  0  0  0
    1.5368   -5.0174    3.4948 O   0  0  0  0  0  0  0  0  0  0  0  0
    1.1772   -4.9040    1.3061 O   0  0  0  0  0  0  0  0  0  0  0  0
    1.2915  -15.7645    2.9227 C   0  0  0  0  0  0  0  0  0  0  0  0
    2.1197  -16.7541    2.6577 O   0  0  0  0  0  0  0  0  0  0  0  0
    0.1693  -16.1306    3.2613 O   0  0  0  0  0  0  0  0  0  0  0  0
    1.5127  -11.8179    4.2159 O   0  0  0  0  0  0  0  0  0  0  0  0
  4 11  1  0
 11 12  1  0
  5 13  1  0
 12 14  1  0
 13 15  1  0
 13 16  2  0
 14 17  1  0
 17 18  1  0
 17 19  2  0
 11 20  2  0
  1  2  2  0
  2  3  1  0
  6  7  1  0
  5  6  2  0
  1  5  1  0
  3  4  2  0
  4  8  1  0
  8  9  2  0
  9 10  1  0
  7 10  2  0
  3  7  1  0
M  END

$$$$
No_852-/export/home/yangzhenyu/potential_scad_32_flow//YTHDC2/2024-12-06-03-22-00/
     RDKit          3D

 18 18  0  0  1  0  0  0  0  0999 V2000
    1.1787   -8.0297    3.5154 P   0  0  1  0  0  0  0  0  0  0  0  0
    1.2030   -9.2736    3.3536 O   0  0  0  0  0  0  0  0  0  0  0  0
    2.2726   -7.2253    3.0302 O   0  0  0  0  0  0  0  0  0  0  0  0
   -0.0484   -7.6177    2.2998 C   0  0  0  0  0  0  0  0  0  0  0  0
    0.0344   -7.9163    1.0884 C   0  0  0  0  0  0  0  0  0  0  0  0
   -0.4174   -8.7479    0.5712 C   0  0  0  0  0  0  0  0  0  0  0  0
   -0.0565   -9.3077   -0.6976 C   0  0  0  0  0  0  0  0  0  0  0  0
   -0.8706  -10.3280   -1.1096 O   0  0  0  0  0  0  0  0  0  0  0  0
    1.0115   -8.9731   -1.2725 O   0  0  0  0  0  0  0  0  0  0  0  0
    1.2844  -10.5378    2.7016 C   0  0  0  0  0  0  0  0  0  0  0  0
    1.5442  -11.6869    3.3552 C   0  0  0  0  0  0  0  0  0  0  0  0
    1.3351  -12.8849    2.6038 C   0  0  2  0  0  0  0  0  0  0  0  0
    1.6478  -14.0763    3.2767 O   0  0  0  0  0  0  0  0  0  0  0  0
    1.3234  -15.2621    2.7434 C   0  0  0  0  0  0  0  0  0  0  0  0
    1.5731  -15.5320    1.5856 C   0  0  2  0  0  0  0  0  0  0  0  0
    1.5288  -14.4924    0.7084 C   0  0  0  0  0  0  0  0  0  0  0  0
    1.6456  -13.1333    1.2848 C   0  0  0  0  0  0  0  0  0  0  0  0
    1.3870  -16.7650    1.1388 C   0  0  0  0  0  0  0  0  0  0  0  0
  1  2  1  0
  1  3  2  0
  1  4  1  6
  4  5  1  0
  5  6  1  0
  6  7  1  0
  7  8  1  0
  7  9  2  0
  2 10  1  0
 10 11  1  0
 12 11  1  1
 12 13  1  0
 13 14  1  0
 14 15  1  0
 15 16  1  0
 12 17  1  0
 16 17  1  0
 15 18  1  6
M  END

$$$$
No_853-/export/home/yangzhenyu/potential_scad_32_flow//YTHDC2/2024-12-06-03-22-00/
     RDKit          3D

 20 21  0  0  0  0  0  0  0  0999 V2000
    1.1787   -8.0297    3.5154 C   0  0  0  0  0  0  0  0  0  0  0  0
    1.1048   -9.2215    3.2892 C   0  0  0  0  0  0  0  0  0  0  0  0
    1.3627  -10.1721    4.3044 C   0  0  0  0  0  0  0  0  0  0  0  0
    1.7354  -11.4730    3.9023 C   0  0  0  0  0  0  0  0  0  0  0  0
    1.8080  -11.8127    2.7216 N   0  0  0  0  0  0  0  0  0  0  0  0
    1.6163  -11.0258    1.7554 C   0  0  0  0  0  0  0  0  0  0  0  0
    1.3973   -9.7755    1.9269 C   0  0  0  0  0  0  0  0  0  0  0  0
    1.2409   -8.9468    0.8666 N   0  0  0  0  0  0  0  0  0  0  0  0
    1.0911   -7.5830    1.1234 C   0  0  0  0  0  0  0  0  0  0  0  0
    1.1154   -7.0574    2.3222 C   0  0  0  0  0  0  0  0  0  0  0  0
    1.0293   -5.4513    2.5553 Cl  0  0  0  0  0  0  0  0  0  0  0  0
    1.7289  -11.5109    0.4242 N   0  0  0  0  0  0  0  0  0  0  0  0
    1.1105   -6.9161    0.0123 C   0  0  0  0  0  0  0  0  0  0  0  0
    0.9840   -7.7736   -1.0612 O   0  0  0  0  0  0  0  0  0  0  0  0
    1.1160   -5.9039   -0.1004 O   0  0  0  0  0  0  0  0  0  0  0  0
    1.6501  -12.9147    0.4087 O   0  0  0  0  0  0  0  0  0  0  0  0
    1.8262  -12.3850    4.9306 N   0  0  0  0  0  0  0  0  0  0  0  0
    1.5160  -13.6583    4.3135 C   0  0  0  0  0  0  0  0  0  0  0  0
    0.9756  -13.9590    3.2569 C   0  0  0  0  0  0  0  0  0  0  0  0
    0.3520  -15.2826    3.1768 C   0  0  0  0  0  0  0  0  0  0  0  0
 10 11  1  0
  6 12  1  0
  9 13  1  0
 13 14  2  0
 13 15  1  0
 12 16  2  0
  4 17  1  0
 17 18  1  0
 18 19  1  0
 19 20  2  0
  1  2  2  0
  7  8  2  0
  8  9  1  0
  9 10  2  0
  1 10  1  0
  2  3  1  0
  3  4  2  0
  4  5  1  0
  5  6  2  0
  6  7  1  0
  2  7  1  0
M  END

$$$$
No_854-/export/home/yangzhenyu/potential_scad_32_flow//YTHDC2/2024-12-06-03-22-00/
     RDKit          3D

 21 21  0  0  1  0  0  0  0  0999 V2000
    1.1787   -8.0297    3.5154 C   0  0  0  0  0  0  0  0  0  0  0  0
    1.0491   -6.8434    2.9820 C   0  0  0  0  0  0  0  0  0  0  0  0
    0.9905   -9.0774    2.6527 C   0  0  1  0  0  0  0  0  0  0  0  0
    0.7897   -8.9519    1.3691 C   0  0  0  0  0  0  0  0  0  0  0  0
    0.7018   -7.7198    0.7892 C   0  0  0  0  0  0  0  0  0  0  0  0
    0.8918   -6.5957    1.6117 C   0  0  0  0  0  0  0  0  0  0  0  0
    1.0998  -10.4710    3.2437 C   0  0  2  0  0  0  0  0  0  0  0  0
    2.1917  -10.8879    3.7399 C   0  0  0  0  0  0  0  0  0  0  0  0
    0.8983   -5.2566    1.2088 O   0  0  0  0  0  0  0  0  0  0  0  0
    0.4942  -11.5082    2.3990 C   0  0  2  0  0  0  0  0  0  0  0  0
   -0.8624  -11.6477    2.6981 C   0  0  0  0  0  0  0  0  0  0  0  0
   -1.4297  -10.7852    3.7251 O   0  0  0  0  0  0  0  0  0  0  0  0
   -1.6887  -12.4896    2.2527 O   0  0  0  0  0  0  0  0  0  0  0  0
    2.6506  -12.0161    4.0966 O   0  0  0  0  0  0  0  0  0  0  0  0
    2.8472   -9.9564    4.8553 O   0  0  0  0  0  0  0  0  0  0  0  0
    1.1330  -12.8502    2.4383 C   0  0  0  0  0  0  0  0  0  0  0  0
    1.6205  -13.1400    1.0744 C   0  0  0  0  0  0  0  0  0  0  0  0
    2.2440  -14.4021    0.9291 I   0  0  0  0  0  0  0  0  0  0  0  0
    1.2574   -5.7203    3.8464 O   0  0  0  0  0  0  0  0  0  0  0  0
   -2.6051  -10.1427    3.6368 C   0  0  0  0  0  0  0  0  0  0  0  0
   -2.6700   -9.0626    3.0412 C   0  0  0  0  0  0  0  0  0  0  0  0
  1  2  1  0
  3  4  1  6
  2  6  1  0
  5  6  1  0
  3  7  1  0
  7  8  1  6
  6  9  2  0
  7 10  1  0
 10 11  1  0
 11 12  1  0
 11 13  2  0
  8 14  2  0
  8 15  1  0
 10 16  1  1
 16 17  1  0
 17 18  1  0
  2 19  2  0
 12 20  1  0
 20 21  1  0
  1  3  1  0
  4  5  1  0
M  END

$$$$
No_855-/export/home/yangzhenyu/potential_scad_32_flow//YTHDC2/2024-12-06-03-22-00/
     RDKit          3D

 20 20  0  0  0  0  0  0  0  0999 V2000
    1.1787   -8.0297    3.5154 C   0  0  0  0  0  0  0  0  0  0  0  0
    1.0491   -6.8434    2.9820 Cl  0  0  0  0  0  0  0  0  0  0  0  0
    0.9474   -9.1766    2.6032 C   0  0  0  0  0  0  0  0  0  0  0  0
    0.8298   -8.9426    1.3809 C   0  0  0  0  0  0  0  0  0  0  0  0
    1.9343   -8.8490    0.5448 C   0  0  0  0  0  0  0  0  0  0  0  0
    2.8348   -9.6478    0.5803 O   0  0  0  0  0  0  0  0  0  0  0  0
    2.1154   -7.8291   -0.2572 O   0  0  0  0  0  0  0  0  0  0  0  0
    0.8181  -10.5448    3.1354 C   0  0  0  0  0  0  0  0  0  0  0  0
   -0.3086  -11.1251    3.2512 C   0  0  0  0  0  0  0  0  0  0  0  0
   -0.4483  -12.5096    3.4869 C   0  0  0  0  0  0  0  0  0  0  0  0
    0.6310  -13.3271    3.7692 C   0  0  0  0  0  0  0  0  0  0  0  0
    1.8699  -12.8287    3.5005 C   0  0  0  0  0  0  0  0  0  0  0  0
    2.0894  -11.4624    3.1943 C   0  0  0  0  0  0  0  0  0  0  0  0
    0.5619  -14.6796    3.9368 O   0  0  0  0  0  0  0  0  0  0  0  0
    0.4634  -15.6541    3.0599 C   0  0  0  0  0  0  0  0  0  0  0  0
    0.5093  -16.8619    3.5148 C   0  0  0  0  0  0  0  0  0  0  0  0
   -0.1916  -17.3729    4.3057 C   0  0  0  0  0  0  0  0  0  0  0  0
   -1.4948  -17.3945    4.1161 C   0  0  0  0  0  0  0  0  0  0  0  0
   -1.9583  -17.3763    2.9792 O   0  0  0  0  0  0  0  0  0  0  0  0
   -2.4043  -17.3249    5.2083 O   0  0  0  0  0  0  0  0  0  0  0  0
  1  2  1  0
  1  3  1  0
  3  4  1  0
  4  5  1  0
  5  6  2  0
  5  7  1  0
  3  8  1  0
 11 14  1  0
 14 15  1  0
 15 16  1  0
 16 17  1  0
 17 18  1  0
 18 19  2  0
 18 20  1  0
  8  9  2  0
  9 10  1  0
 10 11  2  0
 11 12  1  0
 12 13  2  0
  8 13  1  0
M  END

$$$$
No_856-/export/home/yangzhenyu/potential_scad_32_flow//YTHDC2/2024-12-06-03-22-00/
     RDKit          3D

 18 18  0  0  1  0  0  0  0  0999 V2000
    1.1787   -8.0297    3.5154 C   0  0  0  0  0  0  0  0  0  0  0  0
    1.0491   -6.8434    2.9820 C   0  0  0  0  0  0  0  0  0  0  0  0
    0.9905   -9.0774    2.6527 C   0  0  0  0  0  0  0  0  0  0  0  0
    0.7897   -8.9519    1.3691 C   0  0  0  0  0  0  0  0  0  0  0  0
    0.7018   -7.7198    0.7892 C   0  0  0  0  0  0  0  0  0  0  0  0
    0.8918   -6.5957    1.6117 C   0  0  0  0  0  0  0  0  0  0  0  0
    1.0774  -10.6059    3.3145 C   0  0  1  0  0  0  0  0  0  0  0  0
    1.2215  -11.6205    2.4178 N   0  0  0  0  0  0  0  0  0  0  0  0
    1.0648  -12.6036    2.5490 C   0  0  0  0  0  0  0  0  0  0  0  0
    1.2882  -13.8338    1.7950 C   0  0  1  0  0  0  0  0  0  0  0  0
    2.0641  -13.6077    0.6775 C   0  0  0  0  0  0  0  0  0  0  0  0
    2.3153  -14.7274    2.6163 C   0  0  0  0  0  0  0  0  0  0  0  0
    1.7639  -10.6691    4.4595 P   0  0  0  0  0  0  0  0  0  0  0  0
    2.5927  -11.9861    4.5512 O   0  0  0  0  0  0  0  0  0  0  0  0
    2.5738   -9.5816    5.0026 O   0  0  0  0  0  0  0  0  0  0  0  0
    0.7858   -5.2815    1.0998 O   0  0  0  0  0  0  0  0  0  0  0  0
    0.5983  -11.0938    5.4356 O   0  0  0  0  0  0  0  0  0  0  0  0
    2.8167  -15.8695    1.8876 O   0  0  0  0  0  0  0  0  0  0  0  0
  3  7  1  0
  7  8  1  6
  8  9  1  0
  9 10  1  0
 10 11  1  6
 10 12  1  0
  7 13  1  0
 13 14  1  0
 13 15  1  0
  6 16  1  0
 13 17  2  0
 12 18  1  0
  1  2  2  0
  2  6  1  0
  5  6  2  0
  4  5  1  0
  3  4  2  0
  1  3  1  0
M  END

$$$$
No_857-/export/home/yangzhenyu/potential_scad_32_flow//YTHDC2/2024-12-06-03-22-00/
     RDKit          3D

 19 19  0  0  1  0  0  0  0  0999 V2000
    1.1787   -8.0297    3.5154 C   0  0  0  0  0  0  0  0  0  0  0  0
    1.0491   -6.8434    2.9820 C   0  0  2  0  0  0  0  0  0  0  0  0
    0.9905   -9.0774    2.6527 C   0  0  0  0  0  0  0  0  0  0  0  0
    0.7897   -8.9519    1.3691 C   0  0  0  0  0  0  0  0  0  0  0  0
    0.7018   -7.7198    0.7892 C   0  0  0  0  0  0  0  0  0  0  0  0
    0.8918   -6.5957    1.6117 C   0  0  0  0  0  0  0  0  0  0  0  0
    1.0600  -10.5680    3.3321 C   0  0  0  0  0  0  0  0  0  0  0  0
   -0.1041  -11.1772    3.5150 O   0  0  0  0  0  0  0  0  0  0  0  0
    2.1431  -10.9874    3.9248 N   0  0  0  0  0  0  0  0  0  0  0  0
    0.8552   -5.2563    1.1710 O   0  0  0  0  0  0  0  0  0  0  0  0
    0.6688  -10.0524    0.4395 C   0  0  0  0  0  0  0  0  0  0  0  0
    1.7937  -10.7633    0.1684 O   0  0  0  0  0  0  0  0  0  0  0  0
   -0.3523  -10.2352   -0.3849 O   0  0  0  0  0  0  0  0  0  0  0  0
    1.3209   -5.7165    3.8049 C   0  0  0  0  0  0  0  0  0  0  0  0
    0.4202   -4.7222    3.8789 O   0  0  0  0  0  0  0  0  0  0  0  0
    1.0323   -3.3656    3.9313 C   0  0  0  0  0  0  0  0  0  0  0  0
    2.2503  -12.2669    4.4393 N   0  0  0  0  0  0  0  0  0  0  0  0
    1.8650  -13.2568    3.3809 C   0  0  0  0  0  0  0  0  0  0  0  0
    1.4515  -14.4333    3.6694 O   0  0  0  0  0  0  0  0  0  0  0  0
  1  2  1  0
  3  4  1  0
  2  6  1  0
  5  6  1  0
  3  7  1  0
  7  8  2  0
  7  9  1  0
  6 10  2  0
  4 11  1  0
 11 12  2  0
 11 13  1  0
  2 14  1  6
 14 15  1  0
 15 16  1  0
  9 17  1  0
 17 18  1  0
 18 19  1  0
  1  3  1  0
  4  5  1  0
M  END

$$$$
No_858-/export/home/yangzhenyu/potential_scad_32_flow//YTHDC2/2024-12-06-03-22-00/
     RDKit          3D

 15 16  0  0  0  0  0  0  0  0999 V2000
    1.1787   -8.0297    3.5154 C   0  0  0  0  0  0  0  0  0  0  0  0
    1.1048   -9.2215    3.2892 C   0  0  0  0  0  0  0  0  0  0  0  0
    1.2339   -9.7611    2.0189 C   0  0  0  0  0  0  0  0  0  0  0  0
    1.1954  -11.2312    1.8661 C   0  0  0  0  0  0  0  0  0  0  0  0
    1.2996  -11.5815    0.5387 C   0  0  0  0  0  0  0  0  0  0  0  0
    1.3263   -7.1208    2.3229 C   0  0  0  0  0  0  0  0  0  0  0  0
    1.3693   -7.6408    1.0625 C   0  0  0  0  0  0  0  0  0  0  0  0
    1.4358   -8.9950    0.8622 C   0  0  0  0  0  0  0  0  0  0  0  0
    1.6034  -10.8414   -0.4738 C   0  0  0  0  0  0  0  0  0  0  0  0
    1.5954   -9.4621   -0.3677 C   0  0  0  0  0  0  0  0  0  0  0  0
    1.7632   -8.6946   -1.3816 O   0  0  0  0  0  0  0  0  0  0  0  0
    1.0984  -11.9477    2.9564 C   0  0  0  0  0  0  0  0  0  0  0  0
    0.3350  -13.0124    2.9857 C   0  0  0  0  0  0  0  0  0  0  0  0
    0.9831  -14.3180    3.3702 C   0  0  0  0  0  0  0  0  0  0  0  0
    0.3893  -15.4885    3.1584 C   0  0  0  0  0  0  0  0  0  0  0  0
  3  4  1  0
  4  5  1  0
  8 10  1  0
  9 10  1  0
 10 11  2  0
  4 12  1  0
 12 13  1  0
 13 14  1  0
 14 15  2  0
  5  9  1  0
  1  2  2  0
  2  3  1  0
  3  8  2  0
  7  8  1  0
  6  7  2  0
  1  6  1  0
M  END

$$$$
No_859-/export/home/yangzhenyu/potential_scad_32_flow//YTHDC2/2024-12-06-03-22-00/
     RDKit          3D

 19 19  0  0  1  0  0  0  0  0999 V2000
    1.1787   -8.0297    3.5154 C   0  0  0  0  0  0  0  0  0  0  0  0
    1.0491   -6.8434    2.9820 N   0  0  0  0  0  0  0  0  0  0  0  0
    2.0155   -8.9614    2.9776 C   0  0  2  0  0  0  0  0  0  0  0  0
    1.9967   -9.1783    1.7307 C   0  0  0  0  0  0  0  0  0  0  0  0
    1.8641   -8.0625    0.9742 C   0  0  2  0  0  0  0  0  0  0  0  0
    1.2259   -6.9087    1.4845 C   0  0  0  0  0  0  0  0  0  0  0  0
    2.1197   -8.1572   -0.3582 C   0  0  0  0  0  0  0  0  0  0  0  0
    3.2778   -8.4795   -0.9183 Br  0  0  0  0  0  0  0  0  0  0  0  0
    1.0265   -8.1147   -1.1973 O   0  0  0  0  0  0  0  0  0  0  0  0
    2.2559  -10.2457    3.8188 C   0  0  0  0  0  0  0  0  0  0  0  0
    1.5483  -11.3293    3.6792 O   0  0  0  0  0  0  0  0  0  0  0  0
    3.3159  -10.3270    4.6057 O   0  0  0  0  0  0  0  0  0  0  0  0
    1.0406   -5.7000    0.9760 O   0  0  0  0  0  0  0  0  0  0  0  0
    2.6778  -10.2226    1.1021 O   0  0  0  0  0  0  0  0  0  0  0  0
    1.9577  -12.5639    3.4476 C   0  0  0  0  0  0  0  0  0  0  0  0
    1.2076  -13.4582    2.6130 C   0  0  0  0  0  0  0  0  0  0  0  0
    1.4227  -14.8168    2.6018 O   0  0  0  0  0  0  0  0  0  0  0  0
    0.5851  -12.9553    1.6027 O   0  0  0  0  0  0  0  0  0  0  0  0
    0.4918  -15.6875    2.4172 C   0  0  0  0  0  0  0  0  0  0  0  0
  1  2  1  0
  1  3  1  0
  3  4  1  0
  4  5  1  0
  2  6  1  0
  5  6  1  0
  5  7  1  6
  7  8  1  0
  7  9  2  0
  3 10  1  1
 10 11  1  0
 10 12  2  0
  6 13  2  0
  4 14  2  0
 11 15  1  0
 15 16  1  0
 16 17  1  0
 16 18  2  0
 17 19  1  0
M  END

$$$$
No_860-/export/home/yangzhenyu/potential_scad_32_flow//YTHDC2/2024-12-06-03-22-00/
     RDKit          3D

 18 18  0  0  1  0  0  0  0  0999 V2000
    1.1787   -8.0297    3.5154 O   0  0  0  0  0  0  0  0  0  0  0  0
    0.6747   -7.4019    2.7838 C   0  0  0  0  0  0  0  0  0  0  0  0
    0.5570   -6.0797    2.8560 C   0  0  0  0  0  0  0  0  0  0  0  0
   -0.2158   -5.3007    2.0284 C   0  0  0  0  0  0  0  0  0  0  0  0
   -0.8260   -5.9169    1.0290 C   0  0  0  0  0  0  0  0  0  0  0  0
   -0.6925   -7.2407    0.8216 C   0  0  0  0  0  0  0  0  0  0  0  0
    0.1645   -8.0156    1.6621 C   0  0  0  0  0  0  0  0  0  0  0  0
    0.1608   -9.3811    1.6398 C   0  0  1  0  0  0  0  0  0  0  0  0
    1.2258   -9.9180    0.7949 C   0  0  0  0  0  0  0  0  0  0  0  0
    1.3532  -11.2207    0.7153 O   0  0  0  0  0  0  0  0  0  0  0  0
    1.9129   -9.1551   -0.0523 O   0  0  0  0  0  0  0  0  0  0  0  0
   -1.7588   -5.0509   -0.0189 O   0  0  0  0  0  0  0  0  0  0  0  0
   -1.3277   -3.9260   -0.2540 C   0  0  0  0  0  0  0  0  0  0  0  0
   -0.5078  -10.1608    2.3772 C   0  0  0  0  0  0  0  0  0  0  0  0
    0.0435  -10.7295    3.6098 C   0  0  0  0  0  0  0  0  0  0  0  0
    0.5866  -10.2084    4.5661 O   0  0  0  0  0  0  0  0  0  0  0  0
    0.0788  -12.0965    3.7115 O   0  0  0  0  0  0  0  0  0  0  0  0
   -1.8698   -2.9535    0.3475 C   0  0  0  0  0  0  0  0  0  0  0  0
  1  2  1  0
  7  8  1  0
  8  9  1  0
  9 10  2  0
  9 11  1  0
  5 12  1  0
 12 13  1  0
  8 14  1  1
 14 15  1  0
 15 16  2  0
 15 17  1  0
 13 18  1  0
  2  3  2  0
  3  4  1  0
  4  5  2  0
  5  6  1  0
  6  7  2  0
  2  7  1  0
M  END

$$$$
No_861-/export/home/yangzhenyu/potential_scad_32_flow//YTHDC2/2024-12-06-03-22-00/
     RDKit          3D

 20 20  0  0  0  0  0  0  0  0999 V2000
    1.1787   -8.0297    3.5154 N   0  0  0  0  0  0  0  0  0  0  0  0
    0.8669   -7.0905    2.8589 C   0  0  0  0  0  0  0  0  0  0  0  0
    0.8842   -5.8387    3.2677 C   0  0  0  0  0  0  0  0  0  0  0  0
    1.2042   -9.3413    3.1417 C   0  0  0  0  0  0  0  0  0  0  0  0
    0.8983   -9.6945    2.0312 C   0  0  0  0  0  0  0  0  0  0  0  0
    0.3799   -8.7798    1.1360 C   0  0  0  0  0  0  0  0  0  0  0  0
    0.4461   -7.4789    1.4652 C   0  0  0  0  0  0  0  0  0  0  0  0
    0.0793   -6.5008    0.6586 C   0  0  0  0  0  0  0  0  0  0  0  0
    1.7733  -10.3745    4.1590 C   0  0  0  0  0  0  0  0  0  0  0  0
    1.0972  -11.6662    4.2451 O   0  0  0  0  0  0  0  0  0  0  0  0
    0.3239   -5.2938    0.7270 O   0  0  0  0  0  0  0  0  0  0  0  0
   -0.4459   -6.8505   -0.5808 N   0  0  0  0  0  0  0  0  0  0  0  0
    2.1708   -5.1865    3.4494 C   0  0  0  0  0  0  0  0  0  0  0  0
    1.8008   -3.7966    3.9529 I   0  0  0  0  0  0  0  0  0  0  0  0
    2.8853  -10.2797    4.8459 O   0  0  0  0  0  0  0  0  0  0  0  0
   -0.6200   -8.0548   -1.0053 C   0  0  0  0  0  0  0  0  0  0  0  0
   -1.7954   -8.6074   -0.9166 C   0  0  0  0  0  0  0  0  0  0  0  0
   -1.7884   -9.9670   -1.1580 C   0  0  0  0  0  0  0  0  0  0  0  0
   -2.1616  -10.8839   -0.3211 O   0  0  0  0  0  0  0  0  0  0  0  0
   -1.4793  -10.5826   -2.4077 O   0  0  0  0  0  0  0  0  0  0  0  0
  2  3  1  0
  7  8  1  0
  4  9  1  0
  9 10  1  0
  8 11  2  0
  8 12  1  0
  3 13  1  0
 13 14  1  0
  9 15  2  0
 12 16  1  0
 16 17  1  0
 17 18  1  0
 18 19  1  0
 18 20  2  0
  1  2  2  0
  2  7  1  0
  6  7  2  0
  5  6  1  0
  4  5  2  0
  1  4  1  0
M  END

$$$$
No_862-/export/home/yangzhenyu/potential_scad_32_flow//YTHDC2/2024-12-06-03-22-00/
     RDKit          3D

 14 14  0  0  0  0  0  0  0  0999 V2000
    1.1787   -8.0297    3.5154 C   0  0  0  0  0  0  0  0  0  0  0  0
    1.1048   -9.2215    3.2892 C   0  0  0  0  0  0  0  0  0  0  0  0
    1.3627  -10.1721    4.3044 C   0  0  0  0  0  0  0  0  0  0  0  0
    1.7354  -11.4730    3.9023 C   0  0  0  0  0  0  0  0  0  0  0  0
    1.8080  -11.8127    2.7216 C   0  0  0  0  0  0  0  0  0  0  0  0
    1.5854  -11.0021    1.7249 C   0  0  0  0  0  0  0  0  0  0  0  0
    1.3573   -9.7389    1.9287 C   0  0  0  0  0  0  0  0  0  0  0  0
    1.1102   -8.8712    0.9017 C   0  0  0  0  0  0  0  0  0  0  0  0
    1.5724   -9.1697   -0.3048 C   0  0  0  0  0  0  0  0  0  0  0  0
    1.2378   -8.2159   -1.4226 O   0  0  0  0  0  0  0  0  0  0  0  0
    2.0610  -13.2069    2.3284 Cl  0  0  0  0  0  0  0  0  0  0  0  0
    0.8354   -7.0598    2.9926 O   0  0  0  0  0  0  0  0  0  0  0  0
    2.5116  -10.0005   -0.6761 O   0  0  0  0  0  0  0  0  0  0  0  0
    1.9580   -7.6101    4.5837 O   0  0  0  0  0  0  0  0  0  0  0  0
  1  2  1  0
  7  8  1  0
  8  9  2  3
  9 10  1  0
  5 11  1  0
  1 12  2  0
  9 13  1  0
  1 14  1  0
  2  3  2  0
  3  4  1  0
  4  5  2  0
  5  6  1  0
  6  7  2  0
  2  7  1  0
M  END

$$$$
No_863-/export/home/yangzhenyu/potential_scad_32_flow//YTHDC2/2024-12-06-03-22-00/
     RDKit          3D

 17 16  0  0  1  0  0  0  0  0999 V2000
    1.1787   -8.0297    3.5154 C   0  0  0  0  0  0  0  0  0  0  0  0
    1.0491   -6.8434    2.9820 C   0  0  1  0  0  0  0  0  0  0  0  0
    1.9985   -8.9840    2.8958 C   0  0  0  0  0  0  0  0  0  0  0  0
    1.9135  -10.3404    3.6266 C   0  0  0  0  0  0  0  0  0  0  0  0
    0.7479  -10.9191    3.7202 C   0  0  0  0  0  0  0  0  0  0  0  0
    1.8085   -5.7988    3.2380 C   0  0  0  0  0  0  0  0  0  0  0  0
    0.6998  -12.3189    3.4968 O   0  0  0  0  0  0  0  0  0  0  0  0
    1.1205   -4.5616    3.2723 C   0  0  0  0  0  0  0  0  0  0  0  0
    0.7829   -4.0620    4.3195 O   0  0  0  0  0  0  0  0  0  0  0  0
   -0.2875  -10.3714    4.1705 O   0  0  0  0  0  0  0  0  0  0  0  0
    1.0757   -3.8548    2.0891 O   0  0  0  0  0  0  0  0  0  0  0  0
    0.1004   -6.8021    1.9015 C   0  0  0  0  0  0  0  0  0  0  0  0
   -0.5692   -7.5938    1.5843 O   0  0  0  0  0  0  0  0  0  0  0  0
   -0.1834   -5.6400    1.2498 O   0  0  0  0  0  0  0  0  0  0  0  0
    0.8398  -12.9022    2.3653 C   0  0  0  0  0  0  0  0  0  0  0  0
    0.3724  -12.3564    1.3057 C   0  0  0  0  0  0  0  0  0  0  0  0
    1.1527  -11.7861    0.4991 C   0  0  0  0  0  0  0  0  0  0  0  0
  2  1  1  6
  1  3  1  0
  3  4  1  0
  4  5  1  0
  2  6  1  0
  5  7  1  0
  6  8  1  0
  8  9  1  0
  5 10  2  0
  8 11  2  0
  2 12  1  0
 12 13  2  0
 12 14  1  0
  7 15  1  0
 15 16  1  0
 16 17  1  0
M  END

$$$$
No_864-/export/home/yangzhenyu/potential_scad_32_flow//YTHDC2/2024-12-06-03-22-00/
     RDKit          3D

 19 19  0  0  1  0  0  0  0  0999 V2000
    1.1787   -8.0297    3.5154 C   0  0  0  0  0  0  0  0  0  0  0  0
    1.0491   -6.8434    2.9820 C   0  0  0  0  0  0  0  0  0  0  0  0
    0.9905   -9.0774    2.6527 C   0  0  0  0  0  0  0  0  0  0  0  0
    0.7897   -8.9519    1.3691 C   0  0  0  0  0  0  0  0  0  0  0  0
    0.7018   -7.7198    0.7892 C   0  0  0  0  0  0  0  0  0  0  0  0
    0.8918   -6.5957    1.6117 C   0  0  0  0  0  0  0  0  0  0  0  0
    1.0711  -10.4814    3.2282 Cl  0  0  0  0  0  0  0  0  0  0  0  0
    0.5917  -10.0724    0.4804 C   0  0  0  0  0  0  0  0  0  0  0  0
   -0.4142  -10.0363   -0.3050 O   0  0  0  0  0  0  0  0  0  0  0  0
    1.4481  -11.0476    0.3605 O   0  0  0  0  0  0  0  0  0  0  0  0
    0.8387   -5.3098    1.0790 O   0  0  0  0  0  0  0  0  0  0  0  0
    0.4333   -4.2185    1.8082 C   0  0  0  0  0  0  0  0  0  0  0  0
   -0.9574   -4.0692    1.8386 C   0  0  2  0  0  0  0  0  0  0  0  0
   -1.4596   -3.8864    3.1161 C   0  0  0  0  0  0  0  0  0  0  0  0
   -1.6265   -4.2585    0.6462 C   0  0  0  0  0  0  0  0  0  0  0  0
   -2.6633   -5.1321    0.7976 C   0  0  0  0  0  0  0  0  0  0  0  0
   -3.1578   -5.8682   -0.0285 O   0  0  0  0  0  0  0  0  0  0  0  0
   -3.2657   -5.3577    2.0746 O   0  0  0  0  0  0  0  0  0  0  0  0
    1.3941   -3.4858    2.3566 O   0  0  0  0  0  0  0  0  0  0  0  0
  3  7  1  0
  4  8  1  0
  8  9  2  0
  8 10  1  0
  6 11  1  0
 11 12  1  0
 12 13  1  0
 13 14  1  1
 13 15  1  0
 15 16  1  0
 16 17  2  0
 16 18  1  0
 12 19  2  0
  1  2  2  0
  2  6  1  0
  5  6  2  0
  4  5  1  0
  3  4  2  0
  1  3  1  0
M  END

$$$$
No_865-/export/home/yangzhenyu/potential_scad_32_flow//YTHDC2/2024-12-06-03-22-00/
     RDKit          3D

 18 17  0  0  1  0  0  0  0  0999 V2000
    1.1787   -8.0297    3.5154 C   0  0  0  0  0  0  0  0  0  0  0  0
    1.1048   -9.2215    3.2892 C   0  0  2  0  0  0  0  0  0  0  0  0
    1.3627  -10.1721    4.3044 C   0  0  0  0  0  0  0  0  0  0  0  0
    2.3720  -10.8948    4.2468 C   0  0  0  0  0  0  0  0  0  0  0  0
    0.8234   -7.0464    2.5717 C   0  0  0  0  0  0  0  0  0  0  0  0
    1.0480   -5.6900    2.5722 C   0  0  2  0  0  0  0  0  0  0  0  0
    3.3804  -10.3837    4.4201 C   0  0  0  0  0  0  0  0  0  0  0  0
    3.8937   -9.8820    5.1468 C   0  0  0  0  0  0  0  0  0  0  0  0
    4.2728  -10.8807    6.3529 O   0  0  0  0  0  0  0  0  0  0  0  0
    1.5057   -5.2222    3.8196 C   0  0  0  0  0  0  0  0  0  0  0  0
    0.8139   -4.8234    1.5771 C   0  0  0  0  0  0  0  0  0  0  0  0
    1.3260   -3.6600    1.5030 C   0  0  0  0  0  0  0  0  0  0  0  0
    0.7320   -2.5696    1.7150 C   0  0  0  0  0  0  0  0  0  0  0  0
   -0.4001   -2.4902    0.9927 O   0  0  0  0  0  0  0  0  0  0  0  0
    0.9864   -1.5902    2.4637 O   0  0  0  0  0  0  0  0  0  0  0  0
    0.9478   -9.7118    1.9703 C   0  0  0  0  0  0  0  0  0  0  0  0
    1.9194   -9.4660    1.0273 O   0  0  0  0  0  0  0  0  0  0  0  0
    0.0510  -10.5076    1.5518 N   0  0  0  0  0  0  0  0  0  0  0  0
  1  2  1  0
  2  3  1  6
  3  4  1  0
  1  5  2  3
  5  6  1  0
  4  7  1  0
  7  8  1  0
  8  9  1  0
  6 10  1  1
  6 11  1  0
 11 12  1  0
 12 13  1  0
 13 14  2  0
 13 15  1  0
  2 16  1  0
 16 17  2  0
 16 18  1  0
M  END

$$$$
No_866-/export/home/yangzhenyu/potential_scad_32_flow//YTHDC2/2024-12-06-03-22-00/
     RDKit          3D

 14 14  0  0  1  0  0  0  0  0999 V2000
    1.1787   -8.0297    3.5154 N   0  0  0  0  0  0  0  0  0  0  0  0
    1.0818   -9.0751    3.2053 C   0  0  2  0  0  0  0  0  0  0  0  0
    1.5216  -10.1164    3.9747 N   0  0  0  0  0  0  0  0  0  0  0  0
    1.4699  -11.3711    3.6561 C   0  0  0  0  0  0  0  0  0  0  0  0
    0.7756  -11.7642    2.6155 C   0  0  2  0  0  0  0  0  0  0  0  0
    0.1330  -10.8847    1.8736 Cl  0  0  0  0  0  0  0  0  0  0  0  0
    0.9626   -6.9586    2.6059 C   0  0  0  0  0  0  0  0  0  0  0  0
    0.9129   -7.4725    1.3189 C   0  0  0  0  0  0  0  0  0  0  0  0
    0.9834   -8.9247    1.7509 C   0  0  0  0  0  0  0  0  0  0  0  0
    1.0008   -5.4656    2.8117 C   0  0  0  0  0  0  0  0  0  0  0  0
    0.7608  -13.3711    2.6402 C   0  0  0  0  0  0  0  0  0  0  0  0
    1.9455  -13.9745    2.3901 N   0  0  0  0  0  0  0  0  0  0  0  0
    1.8633  -15.3677    2.4353 C   0  0  0  0  0  0  0  0  0  0  0  0
    3.0276  -16.1365    2.0544 N   0  0  0  0  0  0  0  0  0  0  0  0
  1  2  1  0
  2  3  1  0
  3  4  2  3
  4  5  1  0
  5  6  1  1
  1  7  2  0
  7  8  1  0
  2  9  1  6
  8  9  1  0
  7 10  1  0
  5 11  1  0
 11 12  1  0
 12 13  1  0
 13 14  1  0
M  END

$$$$
No_867-/export/home/yangzhenyu/potential_scad_32_flow//YTHDC2/2024-12-06-03-22-00/
     RDKit          3D

 20 20  0  0  1  0  0  0  0  0999 V2000
    1.1787   -8.0297    3.5154 C   0  0  0  0  0  0  0  0  0  0  0  0
    1.0491   -6.8434    2.9820 C   0  0  1  0  0  0  0  0  0  0  0  0
    1.9985   -8.9840    2.8958 C   0  0  2  0  0  0  0  0  0  0  0  0
    1.7297   -9.2108    1.6335 C   0  0  1  0  0  0  0  0  0  0  0  0
    1.7343   -8.0566    0.8408 C   0  0  0  0  0  0  0  0  0  0  0  0
    1.0269   -6.8892    1.4456 C   0  0  0  0  0  0  0  0  0  0  0  0
    2.0740   -7.9416   -0.3682 O   0  0  0  0  0  0  0  0  0  0  0  0
    1.9646  -10.3580    3.5767 C   0  0  0  0  0  0  0  0  0  0  0  0
    1.7328  -11.3336    3.3895 O   0  0  0  0  0  0  0  0  0  0  0  0
    2.9970  -10.2846    4.6825 N   0  0  0  0  0  0  0  0  0  0  0  0
    0.8337   -5.6528    3.4996 C   0  0  0  0  0  0  0  0  0  0  0  0
    2.0296   -4.9459    3.9706 O   0  0  0  0  0  0  0  0  0  0  0  0
   -0.2442   -4.9775    3.4294 O   0  0  0  0  0  0  0  0  0  0  0  0
    3.2454  -11.4954    5.4232 C   0  0  0  0  0  0  0  0  0  0  0  0
    4.5742  -10.9086    5.9991 C   0  0  0  0  0  0  0  0  0  0  0  0
    2.5040  -10.1808    0.8759 C   0  0  0  0  0  0  0  0  0  0  0  0
    1.6891  -10.8066   -0.0945 C   0  0  0  0  0  0  0  0  0  0  0  0
    0.5225  -11.3056    0.6019 O   0  0  0  0  0  0  0  0  0  0  0  0
   -0.5674  -11.8744    0.1331 C   0  0  0  0  0  0  0  0  0  0  0  0
   -1.2586  -11.0568   -0.6020 O   0  0  0  0  0  0  0  0  0  0  0  0
  1  2  1  0
  1  3  1  0
  3  4  1  0
  4  5  1  0
  2  6  1  0
  5  6  1  0
  5  7  2  0
  3  8  1  1
  8  9  2  0
  8 10  1  0
  2 11  1  1
 11 12  2  0
 11 13  1  0
 10 14  1  0
 14 15  1  0
  4 16  1  6
 16 17  1  0
 17 18  1  0
 18 19  1  0
 19 20  2  0
M  END

$$$$
No_868-/export/home/yangzhenyu/potential_scad_32_flow//YTHDC2/2024-12-06-03-22-00/
     RDKit          3D

 19 20  0  0  0  0  0  0  0  0999 V2000
    1.1787   -8.0297    3.5154 C   0  0  0  0  0  0  0  0  0  0  0  0
    1.1048   -9.2215    3.2892 C   0  0  0  0  0  0  0  0  0  0  0  0
    1.2339   -9.7611    2.0189 C   0  0  0  0  0  0  0  0  0  0  0  0
    1.1954  -11.2312    1.8661 C   0  0  0  0  0  0  0  0  0  0  0  0
    1.2996  -11.5815    0.5387 C   0  0  0  0  0  0  0  0  0  0  0  0
    1.3263   -7.1208    2.3229 C   0  0  0  0  0  0  0  0  0  0  0  0
    1.3693   -7.6408    1.0625 C   0  0  0  0  0  0  0  0  0  0  0  0
    1.4358   -8.9950    0.8622 C   0  0  0  0  0  0  0  0  0  0  0  0
    1.6034  -10.8414   -0.4738 C   0  0  0  0  0  0  0  0  0  0  0  0
    1.5954   -9.4621   -0.3677 C   0  0  0  0  0  0  0  0  0  0  0  0
    1.7474   -8.6617   -1.3337 C   0  0  0  0  0  0  0  0  0  0  0  0
    1.3064   -5.4798    2.6166 O   0  0  0  0  0  0  0  0  0  0  0  0
    1.0975  -12.0026    2.9281 C   0  0  0  0  0  0  0  0  0  0  0  0
    0.5109  -13.1644    2.9301 C   0  0  0  0  0  0  0  0  0  0  0  0
    0.9317  -14.1797    2.5575 C   0  0  0  0  0  0  0  0  0  0  0  0
    2.2880  -14.5453    2.2739 C   0  0  0  0  0  0  0  0  0  0  0  0
    2.6448  -15.9036    1.9795 O   0  0  0  0  0  0  0  0  0  0  0  0
    0.0533  -15.3204    2.2938 C   0  0  0  0  0  0  0  0  0  0  0  0
   -0.2580  -16.2138    3.3968 O   0  0  0  0  0  0  0  0  0  0  0  0
 10 11  1  0
  6 12  1  0
  4 13  1  0
 13 14  2  3
 14 15  1  0
 15 16  1  0
 16 17  1  0
 15 18  1  0
 18 19  1  0
  1  2  2  0
  2  3  1  0
  7  8  1  0
  6  7  2  0
  1  6  1  0
  3  4  2  0
  4  5  1  0
  5  9  2  0
  9 10  1  0
  8 10  2  0
  3  8  1  0
M  END

$$$$
No_869-/export/home/yangzhenyu/potential_scad_32_flow//YTHDC2/2024-12-06-03-22-00/
     RDKit          3D

 18 19  0  0  1  0  0  0  0  0999 V2000
    1.1787   -8.0297    3.5154 O   0  0  0  0  0  0  0  0  0  0  0  0
    0.6747   -7.4019    2.7838 C   0  0  0  0  0  0  0  0  0  0  0  0
    0.7594   -8.0032    1.4295 C   0  0  0  0  0  0  0  0  0  0  0  0
    0.3459   -9.1500    1.3581 C   0  0  0  0  0  0  0  0  0  0  0  0
    1.1876  -10.0065    2.0240 C   0  0  0  0  0  0  0  0  0  0  0  0
    1.2267   -9.5257    3.5507 C   0  0  1  0  0  0  0  0  0  0  0  0
    1.9919  -10.3918    4.3814 C   0  0  0  0  0  0  0  0  0  0  0  0
    1.3664  -11.6452    4.6708 O   0  0  0  0  0  0  0  0  0  0  0  0
    2.9046  -10.1302    5.2104 O   0  0  0  0  0  0  0  0  0  0  0  0
    0.9175   -7.0199    0.4893 C   0  0  0  0  0  0  0  0  0  0  0  0
    1.0437   -7.4825   -0.6129 C   0  0  0  0  0  0  0  0  0  0  0  0
    0.6066   -9.6785   -0.1847 C   0  0  0  0  0  0  0  0  0  0  0  0
    0.8350   -8.7688   -1.1117 C   0  0  0  0  0  0  0  0  0  0  0  0
    1.1535  -11.3478    1.9809 O   0  0  0  0  0  0  0  0  0  0  0  0
    0.3606   -6.2442    3.1321 O   0  0  0  0  0  0  0  0  0  0  0  0
    0.8062   -9.1245   -2.3138 O   0  0  0  0  0  0  0  0  0  0  0  0
   -0.4132   -8.7729   -3.0970 C   0  0  0  0  0  0  0  0  0  0  0  0
   -1.4826   -8.2791   -2.4127 C   0  0  0  0  0  0  0  0  0  0  0  0
  1  2  1  0
  2  3  1  0
  4  5  1  0
  1  6  1  0
  5  6  1  0
  6  7  1  6
  7  8  1  0
  7  9  2  0
  5 14  2  0
  2 15  2  0
 13 16  1  0
 16 17  1  0
 17 18  1  0
  3  4  2  0
  4 12  1  0
 12 13  2  0
 11 13  1  0
 10 11  2  0
  3 10  1  0
M  END

$$$$
No_870-/export/home/yangzhenyu/potential_scad_32_flow//YTHDC2/2024-12-06-03-22-00/
     RDKit          3D

 19 20  0  0  1  0  0  0  0  0999 V2000
    1.1787   -8.0297    3.5154 O   0  0  0  0  0  0  0  0  0  0  0  0
    0.9969   -8.9689    3.0048 C   0  0  1  0  0  0  0  0  0  0  0  0
    0.9976   -8.9567    1.6341 C   0  0  2  0  0  0  0  0  0  0  0  0
    1.6062   -9.9071    0.9292 C   0  0  1  0  0  0  0  0  0  0  0  0
    2.1191  -10.9757    1.6503 C   0  0  0  0  0  0  0  0  0  0  0  0
    2.1177  -10.9891    3.0403 C   0  0  1  0  0  0  0  0  0  0  0  0
    1.5441   -9.8905    3.6897 C   0  0  0  0  0  0  0  0  0  0  0  0
    0.4333   -7.7031    1.0153 C   0  0  0  0  0  0  0  0  0  0  0  0
   -0.5264   -8.0196    0.1598 O   0  0  0  0  0  0  0  0  0  0  0  0
    0.8761   -6.5421    1.0563 O   0  0  0  0  0  0  0  0  0  0  0  0
    1.8402  -10.1045    4.9887 O   0  0  0  0  0  0  0  0  0  0  0  0
    2.6529  -12.3021    3.6463 O   0  0  0  0  0  0  0  0  0  0  0  0
    1.5888  -10.0026   -0.4427 C   0  0  0  0  0  0  0  0  0  0  0  0
    0.5672   -9.9628   -1.1575 C   0  0  0  0  0  0  0  0  0  0  0  0
    0.3741   -9.0518   -2.2128 C   0  0  0  0  0  0  0  0  0  0  0  0
   -0.8438   -8.9395   -2.9944 C   0  0  0  0  0  0  0  0  0  0  0  0
   -1.7735   -9.7896   -2.7402 C   0  0  0  0  0  0  0  0  0  0  0  0
   -1.7759  -10.7184   -1.7572 C   0  0  0  0  0  0  0  0  0  0  0  0
   -0.5856  -10.7998   -0.9636 C   0  0  0  0  0  0  0  0  0  0  0  0
  2  1  1  1
  2  3  1  0
  4  5  1  0
  2  7  1  0
  6  7  1  0
  3  8  1  1
  8  9  2  0
  8 10  1  0
  7 11  2  0
  6 12  1  6
  4 13  1  6
 13 14  1  0
  3  4  1  0
  5  6  1  0
 14 15  2  0
 15 16  1  0
 16 17  2  0
 17 18  1  0
 18 19  2  0
 14 19  1  0
M  END

$$$$
No_871-/export/home/yangzhenyu/potential_scad_32_flow//YTHDC2/2024-12-06-03-22-00/
     RDKit          3D

 18 18  0  0  1  0  0  0  0  0999 V2000
    1.1787   -8.0297    3.5154 C   0  0  0  0  0  0  0  0  0  0  0  0
    1.0491   -6.8434    2.9820 C   0  0  0  0  0  0  0  0  0  0  0  0
    0.9905   -9.0774    2.6527 C   0  0  0  0  0  0  0  0  0  0  0  0
    0.7897   -8.9519    1.3691 C   0  0  0  0  0  0  0  0  0  0  0  0
    0.7018   -7.7198    0.7892 C   0  0  0  0  0  0  0  0  0  0  0  0
    0.8918   -6.5957    1.6117 C   0  0  1  0  0  0  0  0  0  0  0  0
    1.0600  -10.5680    3.3321 C   0  0  0  0  0  0  0  0  0  0  0  0
    2.1422  -11.0089    3.6867 C   0  0  0  0  0  0  0  0  0  0  0  0
    0.8608   -5.2505    1.2071 C   0  0  0  0  0  0  0  0  0  0  0  0
   -0.0563  -11.2194    3.4640 C   0  0  0  0  0  0  0  0  0  0  0  0
   -0.8467  -11.3874    2.5653 C   0  0  0  0  0  0  0  0  0  0  0  0
    2.6048  -12.1528    3.4191 O   0  0  0  0  0  0  0  0  0  0  0  0
    2.9514  -10.5193    4.7925 O   0  0  0  0  0  0  0  0  0  0  0  0
   -0.2524   -4.8052    0.7337 O   0  0  0  0  0  0  0  0  0  0  0  0
    1.8644   -4.5977    1.0349 O   0  0  0  0  0  0  0  0  0  0  0  0
   -2.1019  -10.8318    2.5330 O   0  0  0  0  0  0  0  0  0  0  0  0
   -0.5675  -11.9969    1.3950 Cl  0  0  0  0  0  0  0  0  0  0  0  0
    1.3910   -5.7315    3.7329 O   0  0  0  0  0  0  0  0  0  0  0  0
  1  2  1  0
  3  4  1  0
  2  6  1  0
  5  6  1  0
  3  7  1  0
  7  8  1  0
  6  9  1  1
  7 10  1  0
 10 11  1  0
  8 12  2  0
  8 13  1  0
  9 14  2  0
  9 15  1  0
 11 16  2  0
 11 17  1  0
  2 18  2  0
  1  3  1  0
  4  5  1  0
M  END

$$$$
No_872-/export/home/yangzhenyu/potential_scad_32_flow//YTHDC2/2024-12-06-03-22-00/
     RDKit          3D

 18 18  0  0  1  0  0  0  0  0999 V2000
    1.1787   -8.0297    3.5154 C   0  0  0  0  0  0  0  0  0  0  0  0
    1.0491   -6.8434    2.9820 C   0  0  0  0  0  0  0  0  0  0  0  0
    1.0690   -9.1150    2.7206 Br  0  0  0  0  0  0  0  0  0  0  0  0
    0.7796   -6.5831    1.6203 C   0  0  1  0  0  0  0  0  0  0  0  0
    0.2668   -5.2871    1.2715 Cl  0  0  0  0  0  0  0  0  0  0  0  0
    1.1167   -7.4318    0.7018 C   0  0  0  0  0  0  0  0  0  0  0  0
    0.4497   -8.1025   -0.1405 P   0  0  1  0  0  0  0  0  0  0  0  0
   -0.8436   -7.5450   -0.5330 O   0  0  0  0  0  0  0  0  0  0  0  0
    1.0109   -8.3722   -1.6213 O   0  0  0  0  0  0  0  0  0  0  0  0
    0.0965   -9.4534    0.3476 O   0  0  0  0  0  0  0  0  0  0  0  0
    1.3305   -5.6578    3.9097 Cl  0  0  0  0  0  0  0  0  0  0  0  0
    0.4150  -10.7573   -0.3636 C   0  0  0  0  0  0  0  0  0  0  0  0
    0.4109  -11.4929    0.5091 C   0  0  0  0  0  0  0  0  0  0  0  0
   -0.7631  -12.2157    0.7793 C   0  0  0  0  0  0  0  0  0  0  0  0
   -0.8375  -13.2534    0.9127 C   0  0  0  0  0  0  0  0  0  0  0  0
    0.2788  -14.2083    1.2836 C   0  0  0  0  0  0  0  0  0  0  0  0
    1.3684  -13.5753    1.6090 C   0  0  0  0  0  0  0  0  0  0  0  0
    1.6005  -12.2556    1.0650 C   0  0  0  0  0  0  0  0  0  0  0  0
  1  2  2  3
  1  3  1  0
  2  4  1  0
  4  5  1  6
  4  6  1  0
  6  7  1  0
  7  8  1  6
  7  9  2  0
  7 10  1  0
  2 11  1  0
 10 12  1  0
 12 13  1  0
 13 14  2  0
 14 15  1  0
 15 16  2  0
 16 17  1  0
 17 18  2  0
 13 18  1  0
M  END

$$$$
No_873-/export/home/yangzhenyu/potential_scad_32_flow//YTHDC2/2024-12-06-03-22-00/
     RDKit          3D

 19 19  0  0  0  0  0  0  0  0999 V2000
    1.1787   -8.0297    3.5154 N   0  0  0  0  0  0  0  0  0  0  0  0
    1.0818   -9.0751    3.2053 C   0  0  0  0  0  0  0  0  0  0  0  0
    0.7576   -9.3725    1.9159 C   0  0  0  0  0  0  0  0  0  0  0  0
    0.8823   -8.4917    1.0547 C   0  0  0  0  0  0  0  0  0  0  0  0
    1.4631   -7.3107    1.2451 C   0  0  0  0  0  0  0  0  0  0  0  0
    1.6470   -6.9326    2.5669 C   0  0  0  0  0  0  0  0  0  0  0  0
    0.8161  -10.1250    4.2446 C   0  0  0  0  0  0  0  0  0  0  0  0
   -0.4877  -10.6098    4.4191 O   0  0  0  0  0  0  0  0  0  0  0  0
    1.8007  -10.7241    4.8272 N   0  0  0  0  0  0  0  0  0  0  0  0
    0.8047   -8.9284   -0.3939 C   0  0  0  0  0  0  0  0  0  0  0  0
    1.6990   -8.8444   -1.2072 O   0  0  0  0  0  0  0  0  0  0  0  0
   -0.4112   -9.1588   -0.8205 O   0  0  0  0  0  0  0  0  0  0  0  0
    3.1988  -10.6082    4.4798 N   0  0  0  0  0  0  0  0  0  0  0  0
    1.8801   -5.4691    3.1066 Cl  0  0  0  0  0  0  0  0  0  0  0  0
    3.9717  -11.4808    5.2074 C   0  0  0  0  0  0  0  0  0  0  0  0
    5.2403  -10.5221    5.6979 O   0  0  0  0  0  0  0  0  0  0  0  0
    0.3976  -10.9824    1.4791 O   0  0  0  0  0  0  0  0  0  0  0  0
    1.6082  -11.7532    1.2054 C   0  0  0  0  0  0  0  0  0  0  0  0
    1.4162  -13.0780    1.6484 C   0  0  0  0  0  0  0  0  0  0  0  0
  2  7  1  0
  7  8  2  0
  7  9  1  0
  4 10  1  0
 10 11  2  0
 10 12  1  0
  9 13  1  0
  6 14  1  0
 13 15  1  0
 15 16  1  0
  3 17  1  0
 17 18  1  0
 18 19  1  0
  1  2  2  0
  2  3  1  0
  3  4  2  0
  4  5  1  0
  5  6  2  0
  1  6  1  0
M  END

$$$$
No_874-/export/home/yangzhenyu/potential_scad_32_flow//YTHDC2/2024-12-06-03-22-00/
     RDKit          3D

 18 18  0  0  1  0  0  0  0  0999 V2000
    1.1787   -8.0297    3.5154 O   0  0  0  0  0  0  0  0  0  0  0  0
    0.9969   -8.9689    3.0048 C   0  0  0  0  0  0  0  0  0  0  0  0
    1.3055  -10.1056    3.6616 C   0  0  0  0  0  0  0  0  0  0  0  0
    1.1249  -11.3503    3.0941 C   0  0  0  0  0  0  0  0  0  0  0  0
    0.6932  -11.4484    1.8586 C   0  0  0  0  0  0  0  0  0  0  0  0
    0.5498  -10.3736    1.0579 C   0  0  0  0  0  0  0  0  0  0  0  0
    0.7643   -9.1185    1.6383 C   0  0  0  0  0  0  0  0  0  0  0  0
    0.5937   -7.8467    1.0482 C   0  0  1  0  0  0  0  0  0  0  0  0
   -0.4358   -7.6746    0.4159 Cl  0  0  0  0  0  0  0  0  0  0  0  0
    1.2252  -12.6519    3.8190 C   0  0  0  0  0  0  0  0  0  0  0  0
    1.4741  -13.7298    2.9740 O   0  0  0  0  0  0  0  0  0  0  0  0
    0.6544  -14.8823    3.1874 C   0  0  0  0  0  0  0  0  0  0  0  0
    1.4959  -16.1086    3.0032 C   0  0  0  0  0  0  0  0  0  0  0  0
    0.9551  -17.2525    3.3273 O   0  0  0  0  0  0  0  0  0  0  0  0
    2.6854  -16.0563    2.3803 O   0  0  0  0  0  0  0  0  0  0  0  0
    1.0621   -6.6445    1.8253 O   0  0  0  0  0  0  0  0  0  0  0  0
    1.7789   -7.8148   -0.0433 C   0  0  0  0  0  0  0  0  0  0  0  0
    0.8922   -5.3900    1.3945 C   0  0  0  0  0  0  0  0  0  0  0  0
  1  2  1  0
  7  8  1  0
  8  9  1  0
  4 10  1  0
 10 11  1  0
 11 12  1  0
 12 13  1  0
 13 14  2  0
 13 15  1  0
  8 16  1  0
  8 17  1  6
 16 18  1  0
  2  3  2  0
  3  4  1  0
  4  5  2  0
  5  6  1  0
  6  7  2  0
  2  7  1  0
M  END

$$$$
No_875-/export/home/yangzhenyu/potential_scad_32_flow//YTHDC2/2024-12-06-03-22-00/
     RDKit          3D

 19 19  0  0  1  0  0  0  0  0999 V2000
    1.1787   -8.0297    3.5154 C   0  0  0  0  0  0  0  0  0  0  0  0
    1.0491   -6.8434    2.9820 C   0  0  0  0  0  0  0  0  0  0  0  0
    1.9985   -8.9840    2.8958 C   0  0  2  0  0  0  0  0  0  0  0  0
    1.7297   -9.2108    1.6335 C   0  0  1  0  0  0  0  0  0  0  0  0
    1.7343   -8.0566    0.8408 C   0  0  0  0  0  0  0  0  0  0  0  0
    1.0269   -6.8892    1.4456 C   0  0  0  0  0  0  0  0  0  0  0  0
    2.0740   -7.9416   -0.3682 O   0  0  0  0  0  0  0  0  0  0  0  0
    2.2757  -10.2253    3.6437 C   0  0  1  0  0  0  0  0  0  0  0  0
    3.1941  -10.3695    4.4607 N   0  0  0  0  0  0  0  0  0  0  0  0
    1.3988  -11.2188    3.5382 Cl  0  0  0  0  0  0  0  0  0  0  0  0
    2.0521  -10.2386    0.8458 C   0  0  0  0  0  0  0  0  0  0  0  0
    3.1816  -10.6800    0.6175 O   0  0  0  0  0  0  0  0  0  0  0  0
    0.9477  -11.1289    0.5587 O   0  0  0  0  0  0  0  0  0  0  0  0
    0.7181   -5.6329    3.4897 O   0  0  0  0  0  0  0  0  0  0  0  0
    3.5832  -11.3135    5.3116 C   0  0  0  0  0  0  0  0  0  0  0  0
    4.8556  -10.8723    5.8156 O   0  0  0  0  0  0  0  0  0  0  0  0
    0.9385   -5.7026    0.8274 O   0  0  0  0  0  0  0  0  0  0  0  0
    2.8849  -11.6673    6.1006 O   0  0  0  0  0  0  0  0  0  0  0  0
   -0.2878  -10.4178    0.2168 C   0  0  0  0  0  0  0  0  0  0  0  0
  1  2  1  0
  3  1  1  1
  3  4  1  0
  4  5  1  0
  2  6  1  0
  5  6  1  0
  5  7  2  0
  3  8  1  0
  8  9  1  0
  8 10  1  1
  4 11  1  6
 11 12  2  0
 11 13  1  0
  2 14  2  0
  9 15  1  0
 15 16  1  0
  6 17  2  0
 15 18  2  0
 13 19  1  0
M  END

$$$$
No_876-/export/home/yangzhenyu/potential_scad_32_flow//YTHDC2/2024-12-06-03-22-00/
     RDKit          3D

 17 17  0  0  1  0  0  0  0  0999 V2000
    1.1787   -8.0297    3.5154 O   0  0  0  0  0  0  0  0  0  0  0  0
    0.9969   -8.9689    3.0048 C   0  0  1  0  0  0  0  0  0  0  0  0
    0.9976   -8.9567    1.6341 C   0  0  0  0  0  0  0  0  0  0  0  0
    0.7663   -7.7728    1.0082 C   0  0  1  0  0  0  0  0  0  0  0  0
    1.1468   -6.5619    1.6541 C   0  0  0  0  0  0  0  0  0  0  0  0
    1.3592   -6.6155    3.0007 C   0  0  0  0  0  0  0  0  0  0  0  0
    0.9781  -10.1276    3.6866 C   0  0  0  0  0  0  0  0  0  0  0  0
   -0.1772  -10.7865    4.0343 N   0  0  0  0  0  0  0  0  0  0  0  0
    2.0960  -11.0589    3.6530 O   0  0  0  0  0  0  0  0  0  0  0  0
    0.6867   -7.8004   -0.3563 C   0  0  0  0  0  0  0  0  0  0  0  0
   -0.6101   -7.6444   -0.8354 C   0  0  1  0  0  0  0  0  0  0  0  0
   -0.8964   -7.8156   -2.1570 I   0  0  0  0  0  0  0  0  0  0  0  0
    0.8726  -10.1327    0.8924 O   0  0  0  0  0  0  0  0  0  0  0  0
    1.6688   -5.6281    3.7434 O   0  0  0  0  0  0  0  0  0  0  0  0
   -1.5239   -8.2561    0.2898 C   0  0  0  0  0  0  0  0  0  0  0  0
   -2.8460   -8.3012    0.2559 O   0  0  0  0  0  0  0  0  0  0  0  0
    1.2442   -5.3482    1.1135 O   0  0  0  0  0  0  0  0  0  0  0  0
  1  2  1  0
  2  3  1  0
  3  4  1  0
  4  5  1  0
  1  6  1  0
  5  6  1  0
  2  7  1  6
  7  8  1  0
  7  9  2  0
  4 10  1  6
 10 11  1  0
 11 12  1  6
  3 13  2  0
  6 14  2  0
 11 15  1  0
 15 16  2  0
  5 17  2  0
M  END

$$$$
No_877-/export/home/yangzhenyu/potential_scad_32_flow//YTHDC2/2024-12-06-03-22-00/
     RDKit          3D

 20 21  0  0  1  0  0  0  0  0999 V2000
    1.1787   -8.0297    3.5154 C   0  0  0  0  0  0  0  0  0  0  0  0
    1.0491   -6.8434    2.9820 C   0  0  0  0  0  0  0  0  0  0  0  0
    0.0950   -8.8404    3.2292 C   0  0  1  0  0  0  0  0  0  0  0  0
   -0.9173   -8.4596    2.5152 C   0  0  2  0  0  0  0  0  0  0  0  0
   -1.0331   -7.2162    2.0653 C   0  0  0  0  0  0  0  0  0  0  0  0
   -0.0105   -6.3168    2.3081 C   0  0  2  0  0  0  0  0  0  0  0  0
    0.1150   -4.9910    1.8495 C   0  0  0  0  0  0  0  0  0  0  0  0
   -0.5774   -4.1593    2.0596 N   0  0  0  0  0  0  0  0  0  0  0  0
    0.2075  -10.4620    3.7828 Cl  0  0  0  0  0  0  0  0  0  0  0  0
   -1.6510   -4.0837    2.1318 C   0  0  0  0  0  0  0  0  0  0  0  0
   -2.4285   -4.0168    3.4057 C   0  0  0  0  0  0  0  0  0  0  0  0
    1.0705   -4.8810    0.7800 O   0  0  0  0  0  0  0  0  0  0  0  0
   -2.3774   -2.8632    1.3537 C   0  0  0  0  0  0  0  0  0  0  0  0
   -3.6243   -3.0685    0.9064 C   0  0  0  0  0  0  0  0  0  0  0  0
   -4.5155   -3.6032    2.0061 C   0  0  0  0  0  0  0  0  0  0  0  0
   -3.8494   -4.2353    3.1127 C   0  0  0  0  0  0  0  0  0  0  0  0
    2.1290   -5.9601    3.2608 O   0  0  0  0  0  0  0  0  0  0  0  0
   -2.0795   -9.2814    2.4074 Br  0  0  0  0  0  0  0  0  0  0  0  0
   -4.6448   -4.7936    4.1570 O   0  0  0  0  0  0  0  0  0  0  0  0
   -5.8616   -3.5293    2.0337 C   0  0  0  0  0  0  0  0  0  0  0  0
  1  2  1  0
  3  4  1  0
  2  6  1  0
  5  6  1  0
  6  7  1  6
  7  8  1  0
  3  9  1  6
  8 10  1  0
  7 12  2  0
  2 17  2  0
  4 18  1  1
 16 19  1  0
 15 20  1  0
  1  3  1  0
  4  5  1  0
 10 11  2  0
 11 16  1  0
 15 16  2  0
 14 15  1  0
 13 14  2  0
 10 13  1  0
M  END

$$$$
No_878-/export/home/yangzhenyu/potential_scad_32_flow//YTHDC2/2024-12-06-03-22-00/
     RDKit          3D

 18 18  0  0  1  0  0  0  0  0999 V2000
    1.1787   -8.0297    3.5154 N   0  0  0  0  0  0  0  0  0  0  0  0
    0.8669   -7.0905    2.8589 C   0  0  1  0  0  0  0  0  0  0  0  0
    0.8842   -5.8387    3.2677 Cl  0  0  0  0  0  0  0  0  0  0  0  0
    1.2306   -7.4358    1.3230 C   0  0  0  0  0  0  0  0  0  0  0  0
    1.0941   -9.3886    3.1009 C   0  0  1  0  0  0  0  0  0  0  0  0
    1.3663   -9.6565    1.7077 C   0  0  0  0  0  0  0  0  0  0  0  0
    1.3714   -8.6473    0.8814 C   0  0  2  0  0  0  0  0  0  0  0  0
    1.6550   -8.7862   -0.4931 C   0  0  0  0  0  0  0  0  0  0  0  0
    0.7435   -9.1449   -1.2536 P   0  0  0  0  0  0  0  0  0  0  0  0
    0.5754   -8.8306   -2.6207 O   0  0  0  0  0  0  0  0  0  0  0  0
    1.2995  -10.5769    3.9015 C   0  0  0  0  0  0  0  0  0  0  0  0
    0.3732  -11.4644    4.0676 C   0  0  0  0  0  0  0  0  0  0  0  0
    1.7173  -10.9008    1.3603 O   0  0  0  0  0  0  0  0  0  0  0  0
    0.4536  -10.7892   -1.3790 O   0  0  0  0  0  0  0  0  0  0  0  0
   -0.7797   -8.6383   -0.7778 O   0  0  0  0  0  0  0  0  0  0  0  0
   -0.0790  -11.9522    3.0121 C   0  0  0  0  0  0  0  0  0  0  0  0
    0.4350  -13.4347    2.8574 C   0  0  0  0  0  0  0  0  0  0  0  0
   -0.0155  -14.2975    1.9975 C   0  0  0  0  0  0  0  0  0  0  0  0
  1  2  1  0
  2  3  1  1
  2  4  1  0
  5  6  1  0
  4  7  1  0
  6  7  1  0
  7  8  1  1
  8  9  1  0
  9 10  1  0
  5 11  1  1
 11 12  1  0
  6 13  2  0
  9 14  1  0
  9 15  2  0
 12 16  1  0
 16 17  1  0
 17 18  2  0
  1  5  1  0
M  END

$$$$
No_879-/export/home/yangzhenyu/potential_scad_32_flow//YTHDC2/2024-12-06-03-22-00/
     RDKit          3D

 19 20  0  0  1  0  0  0  0  0999 V2000
    1.1787   -8.0297    3.5154 C   0  0  0  0  0  0  0  0  0  0  0  0
    1.1048   -9.2215    3.2892 C   0  0  0  0  0  0  0  0  0  0  0  0
    1.2339   -9.7611    2.0189 C   0  0  0  0  0  0  0  0  0  0  0  0
    1.1954  -11.2312    1.8661 N   0  0  0  0  0  0  0  0  0  0  0  0
    1.2712   -7.0998    2.3680 C   0  0  0  0  0  0  0  0  0  0  0  0
    1.3536   -7.6783    1.0689 C   0  0  0  0  0  0  0  0  0  0  0  0
    1.4168   -8.9938    0.9019 C   0  0  0  0  0  0  0  0  0  0  0  0
    0.9061  -11.5354    0.5386 C   0  0  1  0  0  0  0  0  0  0  0  0
    1.0664  -10.7831   -0.5222 N   0  0  0  0  0  0  0  0  0  0  0  0
    1.2412   -9.5135   -0.3589 C   0  0  0  0  0  0  0  0  0  0  0  0
    1.2510   -8.7881   -1.4261 O   0  0  0  0  0  0  0  0  0  0  0  0
    1.3364   -5.6362    2.6151 C   0  0  0  0  0  0  0  0  0  0  0  0
    1.5329   -5.2723    3.8338 O   0  0  0  0  0  0  0  0  0  0  0  0
    1.2961   -4.8553    1.6369 O   0  0  0  0  0  0  0  0  0  0  0  0
    0.8376  -13.0050    0.3930 C   0  0  0  0  0  0  0  0  0  0  0  0
    1.0278  -10.1897    4.3750 C   0  0  0  0  0  0  0  0  0  0  0  0
    1.4427  -11.6153    3.8085 C   0  0  0  0  0  0  0  0  0  0  0  0
    0.5404  -12.5752    3.6832 C   0  0  0  0  0  0  0  0  0  0  0  0
   -0.6584  -12.3897    3.6766 O   0  0  0  0  0  0  0  0  0  0  0  0
  3  4  1  0
  8  9  1  0
  7 10  1  0
  9 10  1  0
 10 11  2  0
  5 12  1  0
 12 13  1  0
 12 14  2  0
  8 15  1  6
  2 16  1  0
 16 17  1  0
 17 18  1  0
 18 19  2  0
  4  8  1  0
  1  2  2  0
  2  3  1  0
  3  7  2  0
  6  7  1  0
  5  6  2  0
  1  5  1  0
M  END

$$$$
No_880-/export/home/yangzhenyu/potential_scad_32_flow//YTHDC2/2024-12-06-03-22-00/
     RDKit          3D

 17 17  0  0  1  0  0  0  0  0999 V2000
    1.1787   -8.0297    3.5154 P   0  0  1  0  0  0  0  0  0  0  0  0
    1.2030   -9.2736    3.3536 O   0  0  0  0  0  0  0  0  0  0  0  0
    2.2726   -7.2253    3.0302 O   0  0  0  0  0  0  0  0  0  0  0  0
   -0.0484   -7.6177    2.2998 O   0  0  0  0  0  0  0  0  0  0  0  0
    1.2006  -10.2415    3.0718 C   0  0  0  0  0  0  0  0  0  0  0  0
    1.4627  -11.5663    3.6124 C   0  0  0  0  0  0  0  0  0  0  0  0
    1.1813  -12.8306    3.0297 C   0  0  0  0  0  0  0  0  0  0  0  0
    0.8863  -12.9426    1.8356 C   0  0  0  0  0  0  0  0  0  0  0  0
    0.7760  -11.9104    1.0048 C   0  0  0  0  0  0  0  0  0  0  0  0
    0.9499  -10.5802    1.5337 C   0  0  0  0  0  0  0  0  0  0  0  0
    0.9915   -9.5226    0.7209 N   0  0  0  0  0  0  0  0  0  0  0  0
    0.2330   -9.2495   -0.2947 C   0  0  0  0  0  0  0  0  0  0  0  0
   -1.1099   -9.3814   -0.1120 C   0  0  0  0  0  0  0  0  0  0  0  0
    0.6448   -8.5895   -1.4108 O   0  0  0  0  0  0  0  0  0  0  0  0
    1.4417  -14.0991    3.9153 S   0  0  0  0  0  0  0  0  0  0  0  0
    2.5500  -14.8933    2.9610 O   0  0  0  0  0  0  0  0  0  0  0  0
    1.6967  -14.1555    5.1302 O   0  0  0  0  0  0  0  0  0  0  0  0
  1  2  1  0
  1  3  2  0
  1  4  1  6
  2  5  1  0
 10 11  1  0
 11 12  1  0
 12 13  1  0
 12 14  2  0
  7 15  1  0
 15 16  2  0
 15 17  2  0
  5  6  2  0
  6  7  1  0
  7  8  2  0
  8  9  1  0
  9 10  2  0
  5 10  1  0
M  END

$$$$
No_881-/export/home/yangzhenyu/potential_scad_32_flow//YTHDC2/2024-12-06-03-22-00/
     RDKit          3D

 20 19  0  0  1  0  0  0  0  0999 V2000
    1.1787   -8.0297    3.5154 C   0  0  0  0  0  0  0  0  0  0  0  0
    1.1048   -9.2215    3.2892 C   0  0  0  0  0  0  0  0  0  0  0  0
    1.2339   -9.7611    2.0189 C   0  0  0  0  0  0  0  0  0  0  0  0
    1.1954  -11.2312    1.8661 C   0  0  0  0  0  0  0  0  0  0  0  0
    1.2996  -11.5815    0.5387 O   0  0  0  0  0  0  0  0  0  0  0  0
    1.0827  -12.1075    2.7373 N   0  0  0  0  0  0  0  0  0  0  0  0
    0.5627   -7.0207    2.7169 C   0  0  0  0  0  0  0  0  0  0  0  0
   -0.3341   -7.4090    1.6891 C   0  0  0  0  0  0  0  0  0  0  0  0
    0.3272   -7.4702    0.4382 C   0  0  1  0  0  0  0  0  0  0  0  0
    1.6336   -7.2076    0.2463 C   0  0  0  0  0  0  0  0  0  0  0  0
    1.1879  -13.4623    2.5751 C   0  0  0  0  0  0  0  0  0  0  0  0
   -0.0077  -14.2140    2.4459 C   0  0  0  0  0  0  0  0  0  0  0  0
   -1.1394  -13.4330    2.3112 C   0  0  0  0  0  0  0  0  0  0  0  0
    0.1168  -15.5798    2.3325 C   0  0  1  0  0  0  0  0  0  0  0  0
    1.3918  -16.2079    2.6104 C   0  0  0  0  0  0  0  0  0  0  0  0
   -0.4368   -7.8813   -0.5857 C   0  0  0  0  0  0  0  0  0  0  0  0
    0.0521   -8.4178   -1.7514 O   0  0  0  0  0  0  0  0  0  0  0  0
   -1.8195   -8.0710   -0.6544 O   0  0  0  0  0  0  0  0  0  0  0  0
   -0.9747  -16.3077    2.6022 C   0  0  0  0  0  0  0  0  0  0  0  0
   -2.2249  -15.6526    2.4755 C   0  0  0  0  0  0  0  0  0  0  0  0
  1  2  1  0
  2  3  2  3
  3  4  1  0
  4  5  2  0
  4  6  1  0
  1  7  2  3
  7  8  1  0
  8  9  1  0
  9 10  1  1
  6 11  1  0
 11 12  1  0
 12 13  2  0
 12 14  1  0
 14 15  1  1
  9 16  1  0
 16 17  2  0
 16 18  1  0
 14 19  1  0
 19 20  2  0
M  END

$$$$
No_882-/export/home/yangzhenyu/potential_scad_32_flow//YTHDC2/2024-12-06-03-22-00/
     RDKit          3D

 19 19  0  0  1  0  0  0  0  0999 V2000
    1.1787   -8.0297    3.5154 O   0  0  0  0  0  0  0  0  0  0  0  0
    0.9969   -8.9689    3.0048 C   0  0  1  0  0  0  0  0  0  0  0  0
    0.9976   -8.9567    1.6341 C   0  0  0  0  0  0  0  0  0  0  0  0
    0.7663   -7.7728    1.0082 C   0  0  1  0  0  0  0  0  0  0  0  0
    1.1468   -6.5619    1.6541 C   0  0  0  0  0  0  0  0  0  0  0  0
    1.3592   -6.6155    3.0007 C   0  0  0  0  0  0  0  0  0  0  0  0
    1.2035  -10.1894    3.6215 C   0  0  2  0  0  0  0  0  0  0  0  0
    0.3377  -11.1521    3.8136 C   0  0  0  0  0  0  0  0  0  0  0  0
   -1.0297  -10.5798    3.9715 O   0  0  0  0  0  0  0  0  0  0  0  0
    0.2634  -12.3592    3.8868 O   0  0  0  0  0  0  0  0  0  0  0  0
    0.7108   -7.8186   -0.3670 C   0  0  0  0  0  0  0  0  0  0  0  0
    1.5756   -8.3955   -1.1390 O   0  0  0  0  0  0  0  0  0  0  0  0
   -0.4408   -7.4301   -0.9231 O   0  0  0  0  0  0  0  0  0  0  0  0
    1.5363   -5.6110    3.7833 O   0  0  0  0  0  0  0  0  0  0  0  0
    0.6915  -10.1322    0.9509 O   0  0  0  0  0  0  0  0  0  0  0  0
    2.0138   -9.9017    4.9602 C   0  0  0  0  0  0  0  0  0  0  0  0
    2.7761  -11.3595    5.2452 N   0  0  0  0  0  0  0  0  0  0  0  0
    1.2701   -5.2954    1.1037 O   0  0  0  0  0  0  0  0  0  0  0  0
    4.2156  -11.0579    5.5395 C   0  0  0  0  0  0  0  0  0  0  0  0
  2  1  1  1
  2  3  1  0
  3  4  1  0
  4  5  1  0
  1  6  1  0
  5  6  1  0
  2  7  1  0
  7  8  1  0
  8  9  1  0
  8 10  2  0
  4 11  1  6
 11 12  2  0
 11 13  1  0
  6 14  2  0
  3 15  2  0
  7 16  1  1
 16 17  1  0
  5 18  2  0
 17 19  1  0
M  END

$$$$
No_883-/export/home/yangzhenyu/potential_scad_32_flow//YTHDC2/2024-12-06-03-22-00/
     RDKit          3D

 20 19  0  0  1  0  0  0  0  0999 V2000
    1.1787   -8.0297    3.5154 C   0  0  0  0  0  0  0  0  0  0  0  0
    1.0491   -6.8434    2.9820 C   0  0  1  0  0  0  0  0  0  0  0  0
    1.9985   -8.9840    2.8958 C   0  0  0  0  0  0  0  0  0  0  0  0
    1.9135  -10.3404    3.6266 C   0  0  2  0  0  0  0  0  0  0  0  0
    2.2847  -10.5440    4.7936 C   0  0  0  0  0  0  0  0  0  0  0  0
    1.7595   -5.7666    3.2682 O   0  0  0  0  0  0  0  0  0  0  0  0
    0.4197   -6.7491    1.7715 C   0  0  0  0  0  0  0  0  0  0  0  0
    0.4912   -5.6336    1.1461 O   0  0  0  0  0  0  0  0  0  0  0  0
   -0.3585   -7.6712    1.3207 C   0  0  0  0  0  0  0  0  0  0  0  0
    1.5416  -11.4013    2.7903 C   0  0  0  0  0  0  0  0  0  0  0  0
    1.4449  -12.6175    3.3192 C   0  0  0  0  0  0  0  0  0  0  0  0
    0.8890  -13.6723    2.4224 C   0  0  0  0  0  0  0  0  0  0  0  0
   -0.2044  -13.5086    1.8673 O   0  0  0  0  0  0  0  0  0  0  0  0
    1.6888  -14.7856    2.2123 O   0  0  0  0  0  0  0  0  0  0  0  0
   -1.6451   -7.8343    1.6189 C   0  0  0  0  0  0  0  0  0  0  0  0
   -2.4143   -8.8983    1.1982 C   0  0  0  0  0  0  0  0  0  0  0  0
   -2.4167  -10.0907    1.7591 C   0  0  0  0  0  0  0  0  0  0  0  0
   -2.4765  -10.1539    3.0471 O   0  0  0  0  0  0  0  0  0  0  0  0
   -3.5087   -9.8326    3.6331 C   0  0  0  0  0  0  0  0  0  0  0  0
   -4.5495  -10.5498    3.3612 C   0  0  0  0  0  0  0  0  0  0  0  0
  1  2  1  0
  1  3  1  0
  3  4  1  0
  4  5  1  6
  2  6  1  6
  2  7  1  0
  7  8  2  0
  7  9  1  0
  4 10  1  0
 10 11  1  0
 11 12  1  0
 12 13  1  0
 12 14  2  0
  9 15  2  3
 15 16  1  0
 16 17  1  0
 17 18  1  0
 18 19  1  0
 19 20  1  0
M  END

$$$$
No_884-/export/home/yangzhenyu/potential_scad_32_flow//YTHDC2/2024-12-06-03-22-00/
     RDKit          3D

 19 20  0  0  0  0  0  0  0  0999 V2000
    1.1787   -8.0297    3.5154 C   0  0  0  0  0  0  0  0  0  0  0  0
    1.0491   -6.8434    2.9820 C   0  0  0  0  0  0  0  0  0  0  0  0
    0.0950   -8.8404    3.2292 C   0  0  0  0  0  0  0  0  0  0  0  0
    0.0602  -10.1764    3.8231 C   0  0  0  0  0  0  0  0  0  0  0  0
    0.2248   -6.3830    2.0648 C   0  0  0  0  0  0  0  0  0  0  0  0
   -0.6745   -7.2322    1.6857 C   0  0  0  0  0  0  0  0  0  0  0  0
   -0.7374   -8.4992    2.1291 C   0  0  0  0  0  0  0  0  0  0  0  0
   -1.2516  -10.6630    3.9829 C   0  0  0  0  0  0  0  0  0  0  0  0
   -2.1886  -10.3242    3.0488 C   0  0  0  0  0  0  0  0  0  0  0  0
   -1.9899   -9.1601    2.2931 C   0  0  0  0  0  0  0  0  0  0  0  0
    0.3225   -5.1548    1.3574 C   0  0  0  0  0  0  0  0  0  0  0  0
   -1.6060   -6.8303    0.6939 C   0  0  0  0  0  0  0  0  0  0  0  0
   -3.4499  -10.8364    3.1804 C   0  0  0  0  0  0  0  0  0  0  0  0
   -3.5535  -12.2236    3.1833 N   0  0  0  0  0  0  0  0  0  0  0  0
   -4.5598  -10.1140    3.4007 O   0  0  0  0  0  0  0  0  0  0  0  0
   -1.5842   -7.3372   -0.5353 C   0  0  0  0  0  0  0  0  0  0  0  0
   -0.6816   -8.3278   -0.9273 O   0  0  0  0  0  0  0  0  0  0  0  0
   -2.3614   -7.0166   -1.5760 O   0  0  0  0  0  0  0  0  0  0  0  0
   -4.8114  -12.6357    3.5755 C   0  0  0  0  0  0  0  0  0  0  0  0
  5 11  1  0
  6 12  1  0
  9 13  1  0
 13 14  2  3
 13 15  1  0
 12 16  1  0
 16 17  1  0
 16 18  2  0
 14 19  1  0
  1  2  2  0
  2  5  1  0
  5  6  2  0
  6  7  1  0
  1  3  1  0
  3  4  2  0
  4  8  1  0
  8  9  2  0
  9 10  1  0
  7 10  2  0
  3  7  1  0
M  END

$$$$
No_885-/export/home/yangzhenyu/potential_scad_32_flow//YTHDC2/2024-12-06-03-22-00/
     RDKit          3D

 20 21  0  0  0  0  0  0  0  0999 V2000
    1.1787   -8.0297    3.5154 C   0  0  0  0  0  0  0  0  0  0  0  0
    1.0491   -6.8434    2.9820 C   0  0  0  0  0  0  0  0  0  0  0  0
    0.9905   -9.0774    2.6527 C   0  0  0  0  0  0  0  0  0  0  0  0
    1.1655  -10.4663    3.1286 C   0  0  0  0  0  0  0  0  0  0  0  0
    1.2197  -11.4898    2.5831 C   0  0  0  0  0  0  0  0  0  0  0  0
    1.0589  -11.4458    1.1293 C   0  0  0  0  0  0  0  0  0  0  0  0
    0.9638  -10.3069    0.4651 C   0  0  0  0  0  0  0  0  0  0  0  0
    0.9191   -9.0789    1.1942 C   0  0  0  0  0  0  0  0  0  0  0  0
    0.9103   -7.8220    0.6974 C   0  0  0  0  0  0  0  0  0  0  0  0
    1.3276   -5.6490    3.6106 C   0  0  0  0  0  0  0  0  0  0  0  0
    1.0461   -6.6823    1.5047 C   0  0  0  0  0  0  0  0  0  0  0  0
    1.3579  -12.8056    3.0959 C   0  0  0  0  0  0  0  0  0  0  0  0
    1.4178  -13.9104    2.1680 O   0  0  0  0  0  0  0  0  0  0  0  0
    1.5889  -13.1173    4.2636 O   0  0  0  0  0  0  0  0  0  0  0  0
    2.1939   -5.5936    4.6333 Cl  0  0  0  0  0  0  0  0  0  0  0  0
    0.6557   -4.4704    3.1831 O   0  0  0  0  0  0  0  0  0  0  0  0
    0.8293   -7.6659   -0.6669 O   0  0  0  0  0  0  0  0  0  0  0  0
   -0.3820   -8.0073   -1.1941 C   0  0  0  0  0  0  0  0  0  0  0  0
   -0.3592   -8.5329   -2.4223 C   0  0  0  0  0  0  0  0  0  0  0  0
   -1.1424   -8.5950   -3.1650 O   0  0  0  0  0  0  0  0  0  0  0  0
  2 10  1  0
  5 12  1  0
 12 13  2  0
 12 14  1  0
 10 15  1  0
 10 16  2  0
  9 17  1  0
 17 18  1  0
 18 19  1  0
 19 20  1  0
  1  2  2  0
  2 11  1  0
  9 11  2  0
  8  9  1  0
  1  3  1  0
  3  4  2  0
  4  5  1  0
  5  6  2  0
  6  7  1  0
  7  8  2  0
  3  8  1  0
M  END

$$$$
No_886-/export/home/yangzhenyu/potential_scad_32_flow//YTHDC2/2024-12-06-03-22-00/
     RDKit          3D

 18 18  0  0  1  0  0  0  0  0999 V2000
    1.1787   -8.0297    3.5154 C   0  0  0  0  0  0  0  0  0  0  0  0
    1.1048   -9.2215    3.2892 C   0  0  0  0  0  0  0  0  0  0  0  0
    1.3627  -10.1721    4.3044 C   0  0  0  0  0  0  0  0  0  0  0  0
    2.3720  -10.8948    4.2468 C   0  0  0  0  0  0  0  0  0  0  0  0
    0.8234   -7.0464    2.5717 C   0  0  0  0  0  0  0  0  0  0  0  0
    0.4328   -7.4736    1.3042 C   0  0  0  0  0  0  0  0  0  0  0  0
    0.3532   -8.7488    0.9919 C   0  0  0  0  0  0  0  0  0  0  0  0
    0.7039   -9.7094    1.9672 C   0  0  0  0  0  0  0  0  0  0  0  0
    0.6986  -10.9809    1.7122 C   0  0  2  0  0  0  0  0  0  0  0  0
   -0.1824  -11.8267    2.1190 Cl  0  0  0  0  0  0  0  0  0  0  0  0
    2.1978  -11.6228    1.8210 O   0  0  0  0  0  0  0  0  0  0  0  0
    3.3246  -10.6522    4.6178 O   0  0  0  0  0  0  0  0  0  0  0  0
    0.9154   -5.5780    2.7997 O   0  0  0  0  0  0  0  0  0  0  0  0
    2.3719  -12.2119    3.9607 O   0  0  0  0  0  0  0  0  0  0  0  0
    0.0955   -9.1538   -0.3062 C   0  0  0  0  0  0  0  0  0  0  0  0
    0.9377   -9.0380   -1.3276 O   0  0  0  0  0  0  0  0  0  0  0  0
   -1.1541   -9.6593   -0.5475 O   0  0  0  0  0  0  0  0  0  0  0  0
    0.4114   -4.7051    2.0581 C   0  0  0  0  0  0  0  0  0  0  0  0
  2  3  1  0
  3  4  1  0
  8  9  1  0
  9 10  1  0
  9 11  1  1
  4 12  2  0
  5 13  1  0
  4 14  1  0
  7 15  1  0
 15 16  2  0
 15 17  1  0
 13 18  1  0
  1  2  2  0
  2  8  1  0
  7  8  2  0
  6  7  1  0
  5  6  2  0
  1  5  1  0
M  END

$$$$
No_887-/export/home/yangzhenyu/potential_scad_32_flow//YTHDC2/2024-12-06-03-22-00/
     RDKit          3D

 19 19  0  0  1  0  0  0  0  0999 V2000
    1.1787   -8.0297    3.5154 C   0  0  0  0  0  0  0  0  0  0  0  0
    1.1048   -9.2215    3.2892 C   0  0  0  0  0  0  0  0  0  0  0  0
    1.2339   -9.7611    2.0189 C   0  0  0  0  0  0  0  0  0  0  0  0
    1.4306   -8.9466    1.1170 C   0  0  0  0  0  0  0  0  0  0  0  0
    1.6532   -7.5949    1.1786 C   0  0  0  0  0  0  0  0  0  0  0  0
    1.4973   -7.0739    2.4258 C   0  0  0  0  0  0  0  0  0  0  0  0
    1.6687   -9.4438   -0.3021 C   0  0  0  0  0  0  0  0  0  0  0  0
    2.3503   -8.9872   -1.1111 N   0  0  0  0  0  0  0  0  0  0  0  0
    1.2513  -11.1804    1.8759 C   0  0  0  0  0  0  0  0  0  0  0  0
    0.5374  -11.9674    2.5818 C   0  0  2  0  0  0  0  0  0  0  0  0
    1.0158  -13.0873    3.1911 C   0  0  0  0  0  0  0  0  0  0  0  0
    1.3911  -14.1662    2.3299 C   0  0  0  0  0  0  0  0  0  0  0  0
    2.4519  -13.9911    1.6956 O   0  0  0  0  0  0  0  0  0  0  0  0
    0.8985  -15.3758    2.2797 O   0  0  0  0  0  0  0  0  0  0  0  0
    1.4982   -5.5918    2.6755 Cl  0  0  0  0  0  0  0  0  0  0  0  0
    0.8370  -10.2862   -0.7039 O   0  0  0  0  0  0  0  0  0  0  0  0
   -0.8734  -11.7978    2.6452 C   0  0  0  0  0  0  0  0  0  0  0  0
   -1.4889  -10.9719    3.2009 O   0  0  0  0  0  0  0  0  0  0  0  0
    2.9765   -8.2306   -0.8757 H   0  0  0  0  0  0  0  0  0  0  0  0
  4  7  1  0
  7  8  2  0
  3  9  1  0
 10  9  1  6
 10 11  1  0
 11 12  1  0
 12 13  1  0
 12 14  2  0
  6 15  1  0
  7 16  1  0
 10 17  1  0
 17 18  2  0
  1  2  2  0
  2  3  1  0
  3  4  2  0
  4  5  1  0
  5  6  2  0
  1  6  1  0
  8 19  1  0
M  END

$$$$
No_888-/export/home/yangzhenyu/potential_scad_32_flow//YTHDC2/2024-12-06-03-22-00/
     RDKit          3D

 20 20  0  0  1  0  0  0  0  0999 V2000
    1.1787   -8.0297    3.5154 C   0  0  0  0  0  0  0  0  0  0  0  0
    1.0491   -6.8434    2.9820 C   0  0  0  0  0  0  0  0  0  0  0  0
    1.9985   -8.9840    2.8958 C   0  0  1  0  0  0  0  0  0  0  0  0
    1.9135  -10.3404    3.6266 C   0  0  2  0  0  0  0  0  0  0  0  0
    2.2847  -10.5440    4.7936 C   0  0  0  0  0  0  0  0  0  0  0  0
    1.4242   -6.5584    1.8146 N   0  0  0  0  0  0  0  0  0  0  0  0
    1.5515   -7.4216    0.8857 C   0  0  0  0  0  0  0  0  0  0  0  0
    1.9459   -8.7565    1.3450 C   0  0  0  0  0  0  0  0  0  0  0  0
    2.6184   -9.5959    0.6013 O   0  0  0  0  0  0  0  0  0  0  0  0
    3.8235  -10.5036    4.9668 C   0  0  0  0  0  0  0  0  0  0  0  0
    4.5476  -11.1002    4.2051 O   0  0  0  0  0  0  0  0  0  0  0  0
    4.0557  -10.7253    6.4372 O   0  0  0  0  0  0  0  0  0  0  0  0
    0.6847   -5.7711    3.7306 O   0  0  0  0  0  0  0  0  0  0  0  0
    2.5762  -11.3694    2.6526 C   0  0  0  0  0  0  0  0  0  0  0  0
    1.5981  -12.3787    2.1706 C   0  0  2  0  0  0  0  0  0  0  0  0
    2.1619  -13.3556    1.3828 C   0  0  0  0  0  0  0  0  0  0  0  0
    2.3716  -14.5484    1.7374 C   0  0  0  0  0  0  0  0  0  0  0  0
    3.1449  -15.0639    2.2153 O   0  0  0  0  0  0  0  0  0  0  0  0
    1.4765  -15.5043    1.3667 O   0  0  0  0  0  0  0  0  0  0  0  0
    0.3094  -11.7433    1.6241 C   0  0  0  0  0  0  0  0  0  0  0  0
  1  2  1  0
  3  1  1  1
  3  4  1  0
  4  5  1  1
  2  6  1  0
  3  8  1  0
  7  8  1  0
  8  9  2  0
  5 10  1  0
 10 11  2  0
 10 12  1  0
  2 13  2  0
  4 14  1  0
 14 15  1  0
 15 16  1  0
 16 17  1  0
 17 18  2  0
 17 19  1  0
 15 20  1  6
  6  7  1  0
M  END

$$$$
No_889-/export/home/yangzhenyu/potential_scad_32_flow//YTHDC2/2024-12-06-03-22-00/
     RDKit          3D

 19 19  0  0  0  0  0  0  0  0999 V2000
    1.1787   -8.0297    3.5154 C   0  0  0  0  0  0  0  0  0  0  0  0
    1.0491   -6.8434    2.9820 C   0  0  0  0  0  0  0  0  0  0  0  0
    0.9905   -9.0774    2.6527 C   0  0  0  0  0  0  0  0  0  0  0  0
    0.7897   -8.9519    1.3691 C   0  0  0  0  0  0  0  0  0  0  0  0
    0.7018   -7.7198    0.7892 C   0  0  0  0  0  0  0  0  0  0  0  0
    0.8918   -6.5957    1.6117 C   0  0  0  0  0  0  0  0  0  0  0  0
    1.0711  -10.4814    3.2282 C   0  0  0  0  0  0  0  0  0  0  0  0
   -0.1055  -11.1328    3.5223 C   0  0  0  0  0  0  0  0  0  0  0  0
   -1.2061  -10.3495    3.8837 I   0  0  0  0  0  0  0  0  0  0  0  0
    0.0335  -12.5450    3.3947 C   0  0  0  0  0  0  0  0  0  0  0  0
   -0.7690  -13.2011    2.5075 C   0  0  0  0  0  0  0  0  0  0  0  0
   -0.6170  -14.6503    2.4894 C   0  0  0  0  0  0  0  0  0  0  0  0
    0.0973  -15.3405    2.3606 C   0  0  0  0  0  0  0  0  0  0  0  0
    0.1454  -16.7544    2.4420 C   0  0  0  0  0  0  0  0  0  0  0  0
    0.8387   -5.2980    1.0820 P   0  0  0  0  0  0  0  0  0  0  0  0
   -0.3544   -4.4640    2.0097 O   0  0  0  0  0  0  0  0  0  0  0  0
    1.9101   -4.1941    1.4556 O   0  0  0  0  0  0  0  0  0  0  0  0
    0.2818   -4.8710   -0.1690 O   0  0  0  0  0  0  0  0  0  0  0  0
    1.1725  -17.5363    1.7950 C   0  0  0  0  0  0  0  0  0  0  0  0
  3  7  1  0
  7  8  1  0
  8  9  1  0
  8 10  1  0
 10 11  2  3
 11 12  1  0
 12 13  2  3
 13 14  1  0
  6 15  1  0
 15 16  1  0
 15 17  2  0
 15 18  1  0
 14 19  1  0
  1  2  2  0
  2  6  1  0
  5  6  2  0
  4  5  1  0
  3  4  2  0
  1  3  1  0
M  END

$$$$
No_890-/export/home/yangzhenyu/potential_scad_32_flow//YTHDC2/2024-12-06-03-22-00/
     RDKit          3D

 19 20  0  0  0  0  0  0  0  0999 V2000
    1.1787   -8.0297    3.5154 C   0  0  0  0  0  0  0  0  0  0  0  0
    1.0491   -6.8434    2.9820 C   0  0  0  0  0  0  0  0  0  0  0  0
    0.0950   -8.8404    3.2292 C   0  0  0  0  0  0  0  0  0  0  0  0
   -0.9173   -8.4596    2.5152 C   0  0  0  0  0  0  0  0  0  0  0  0
   -1.0331   -7.2162    2.0653 C   0  0  0  0  0  0  0  0  0  0  0  0
   -0.0105   -6.3168    2.3081 C   0  0  0  0  0  0  0  0  0  0  0  0
    0.1150   -4.9910    1.8495 C   0  0  0  0  0  0  0  0  0  0  0  0
    0.9121   -4.1017    2.4010 O   0  0  0  0  0  0  0  0  0  0  0  0
   -0.4792   -4.5325    0.7806 N   0  0  0  0  0  0  0  0  0  0  0  0
    0.2252  -10.4676    3.7494 F   0  0  0  0  0  0  0  0  0  0  0  0
   -0.5009   -3.2031    0.3680 C   0  0  0  0  0  0  0  0  0  0  0  0
   -0.0982   -2.9434   -0.9227 C   0  0  0  0  0  0  0  0  0  0  0  0
    0.1026   -1.5074   -1.2549 C   0  0  0  0  0  0  0  0  0  0  0  0
   -0.2229   -0.5532   -0.3807 C   0  0  0  0  0  0  0  0  0  0  0  0
   -0.5682   -0.8178    0.8783 C   0  0  0  0  0  0  0  0  0  0  0  0
   -0.6393   -2.0723    1.2929 C   0  0  0  0  0  0  0  0  0  0  0  0
    0.0097    0.8029   -0.9198 Cl  0  0  0  0  0  0  0  0  0  0  0  0
   -2.2201   -6.9180    1.4760 O   0  0  0  0  0  0  0  0  0  0  0  0
   -3.2821   -6.7331    2.2115 C   0  0  0  0  0  0  0  0  0  0  0  0
  6  7  1  0
  7  8  2  0
  7  9  1  0
  3 10  1  0
  9 11  1  0
 14 17  1  0
  5 18  1  0
 18 19  1  0
 11 12  2  0
 12 13  1  0
 13 14  2  0
 14 15  1  0
 15 16  2  0
 11 16  1  0
  1  2  2  0
  2  6  1  0
  5  6  2  0
  4  5  1  0
  3  4  2  0
  1  3  1  0
M  END

$$$$
No_891-/export/home/yangzhenyu/potential_scad_32_flow//YTHDC2/2024-12-06-03-22-00/
     RDKit          3D

 18 18  0  0  1  0  0  0  0  0999 V2000
    1.1787   -8.0297    3.5154 C   0  0  0  0  0  0  0  0  0  0  0  0
    1.0491   -6.8434    2.9820 C   0  0  0  0  0  0  0  0  0  0  0  0
    1.9985   -8.9840    2.8958 C   0  0  2  0  0  0  0  0  0  0  0  0
    1.7297   -9.2108    1.6335 C   0  0  2  0  0  0  0  0  0  0  0  0
    2.1788  -10.5482    1.1239 C   0  0  0  0  0  0  0  0  0  0  0  0
    0.8226   -6.9903    1.4377 C   0  0  0  0  0  0  0  0  0  0  0  0
    1.5914   -8.1153    0.8208 C   0  0  0  0  0  0  0  0  0  0  0  0
    1.2448  -11.3331    0.7136 O   0  0  0  0  0  0  0  0  0  0  0  0
    1.6871   -8.0934   -0.4529 O   0  0  0  0  0  0  0  0  0  0  0  0
    3.1788  -11.2478    1.6821 O   0  0  0  0  0  0  0  0  0  0  0  0
    1.0411   -5.6583    3.4860 C   0  0  0  0  0  0  0  0  0  0  0  0
    0.1714   -4.7222    3.2389 O   0  0  0  0  0  0  0  0  0  0  0  0
    2.2807   -5.0181    4.0549 O   0  0  0  0  0  0  0  0  0  0  0  0
    0.1173   -6.1920    0.8153 O   0  0  0  0  0  0  0  0  0  0  0  0
    2.0447  -10.1772    3.7823 C   0  0  0  0  0  0  0  0  0  0  0  0
    1.0794  -11.0292    4.2056 C   0  0  0  0  0  0  0  0  0  0  0  0
   -0.1510  -10.6504    4.2192 O   0  0  0  0  0  0  0  0  0  0  0  0
    1.2547  -12.1786    4.6995 O   0  0  0  0  0  0  0  0  0  0  0  0
  1  2  1  0
  1  3  1  0
  3  4  1  0
  4  5  1  6
  2  6  1  0
  4  7  1  0
  6  7  1  0
  5  8  2  0
  7  9  2  0
  5 10  1  0
  2 11  1  0
 11 12  2  0
 11 13  1  0
  6 14  2  0
  3 15  1  1
 15 16  1  0
 16 17  2  0
 16 18  1  0
M  END

$$$$
No_892-/export/home/yangzhenyu/potential_scad_32_flow//YTHDC2/2024-12-06-03-22-00/
     RDKit          3D

 19 19  0  0  1  0  0  0  0  0999 V2000
    1.1787   -8.0297    3.5154 C   0  0  0  0  0  0  0  0  0  0  0  0
    1.1048   -9.2215    3.2892 C   0  0  1  0  0  0  0  0  0  0  0  0
    1.2339   -9.7611    2.0189 Cl  0  0  0  0  0  0  0  0  0  0  0  0
    1.0234   -7.1005    2.4615 C   0  0  2  0  0  0  0  0  0  0  0  0
    0.6962   -5.7423    2.6390 N   0  0  0  0  0  0  0  0  0  0  0  0
    1.0247  -10.0214    4.5202 C   0  0  0  0  0  0  0  0  0  0  0  0
    0.2230   -5.0688    1.6466 C   0  0  1  0  0  0  0  0  0  0  0  0
   -0.2746   -5.7756    0.6367 C   0  0  0  0  0  0  0  0  0  0  0  0
   -0.1737   -7.0951    0.4884 C   0  0  0  0  0  0  0  0  0  0  0  0
    0.4092   -7.7970    1.4818 C   0  0  0  0  0  0  0  0  0  0  0  0
    0.7369  -11.4978    4.2452 C   0  0  0  0  0  0  0  0  0  0  0  0
    2.0602  -12.2386    4.1358 C   0  0  0  0  0  0  0  0  0  0  0  0
    1.9850  -12.8755    2.7243 C   0  0  0  0  0  0  0  0  0  0  0  0
    0.9096  -13.8167    2.6124 C   0  0  0  0  0  0  0  0  0  0  0  0
    0.9180  -14.5217    1.4223 C   0  0  0  0  0  0  0  0  0  0  0  0
   -0.1555  -14.7275    0.9897 O   0  0  0  0  0  0  0  0  0  0  0  0
    2.0944  -14.5285    0.8616 O   0  0  0  0  0  0  0  0  0  0  0  0
   -0.5965   -7.6673   -0.6674 O   0  0  0  0  0  0  0  0  0  0  0  0
    0.1134   -3.5931    1.8884 C   0  0  0  0  0  0  0  0  0  0  0  0
  1  2  1  0
  2  3  1  1
  4  1  1  1
  4  5  1  0
  2  6  1  0
  5  7  1  0
  8  9  1  0
  4 10  1  0
  9 10  1  0
  6 11  1  0
 11 12  1  0
 12 13  1  0
 13 14  1  0
 14 15  1  0
 15 16  2  0
 15 17  1  0
  9 18  2  0
  7 19  1  1
  7  8  1  0
M  END

$$$$
No_893-/export/home/yangzhenyu/potential_scad_32_flow//YTHDC2/2024-12-06-03-22-00/
     RDKit          3D

 18 18  0  0  0  0  0  0  0  0999 V2000
    1.1787   -8.0297    3.5154 C   0  0  0  0  0  0  0  0  0  0  0  0
    1.0491   -6.8434    2.9820 C   0  0  0  0  0  0  0  0  0  0  0  0
    2.0004   -8.9805    3.0498 C   0  0  0  0  0  0  0  0  0  0  0  0
    2.3555   -9.0813    1.8033 C   0  0  0  0  0  0  0  0  0  0  0  0
    1.5516   -6.8448    1.5633 C   0  0  0  0  0  0  0  0  0  0  0  0
    2.2171   -7.9366    1.0002 C   0  0  0  0  0  0  0  0  0  0  0  0
    2.0997  -10.4536    3.8994 C   0  0  0  0  0  0  0  0  0  0  0  0
    1.1257  -11.1975    3.9383 O   0  0  0  0  0  0  0  0  0  0  0  0
    3.3303  -10.8432    4.1680 N   0  0  0  0  0  0  0  0  0  0  0  0
    2.6553   -7.8444   -0.2546 C   0  0  0  0  0  0  0  0  0  0  0  0
    2.1989   -8.6737   -1.0765 C   0  0  0  0  0  0  0  0  0  0  0  0
    1.1786   -9.5128   -0.8222 O   0  0  0  0  0  0  0  0  0  0  0  0
    3.4144  -11.8819    5.1044 N   0  0  0  0  0  0  0  0  0  0  0  0
    2.8354   -8.9111   -2.2323 O   0  0  0  0  0  0  0  0  0  0  0  0
    0.5146   -5.7177    3.4384 C   0  0  0  0  0  0  0  0  0  0  0  0
    0.4033   -4.5624    2.6447 O   0  0  0  0  0  0  0  0  0  0  0  0
    0.1515   -5.6369    4.5120 O   0  0  0  0  0  0  0  0  0  0  0  0
    4.4440  -11.4392    6.0139 C   0  0  0  0  0  0  0  0  0  0  0  0
  3  7  1  0
  7  8  2  0
  7  9  1  0
  6 10  1  0
 10 11  2  3
 11 12  1  0
  9 13  1  0
 11 14  1  0
  2 15  1  0
 15 16  2  0
 15 17  1  0
 13 18  1  0
  1  2  2  0
  2  5  1  0
  5  6  2  0
  4  6  1  0
  3  4  2  0
  1  3  1  0
M  END

$$$$
No_894-/export/home/yangzhenyu/potential_scad_32_flow//YTHDC2/2024-12-06-03-22-00/
     RDKit          3D

 20 20  0  0  1  0  0  0  0  0999 V2000
    1.1787   -8.0297    3.5154 C   0  0  0  0  0  0  0  0  0  0  0  0
    1.0491   -6.8434    2.9820 C   0  0  0  0  0  0  0  0  0  0  0  0
    1.9985   -8.9840    2.8958 C   0  0  2  0  0  0  0  0  0  0  0  0
    1.7297   -9.2108    1.6335 C   0  0  0  0  0  0  0  0  0  0  0  0
    1.7343   -8.0566    0.8408 C   0  0  2  0  0  0  0  0  0  0  0  0
    1.0269   -6.8892    1.4456 C   0  0  0  0  0  0  0  0  0  0  0  0
    1.7596   -8.0979   -0.4723 C   0  0  0  0  0  0  0  0  0  0  0  0
    2.7309   -8.8718   -1.0817 O   0  0  0  0  0  0  0  0  0  0  0  0
    0.9162   -8.0111   -1.3179 O   0  0  0  0  0  0  0  0  0  0  0  0
    1.9733  -10.3593    3.5850 C   0  0  0  0  0  0  0  0  0  0  0  0
    2.9330  -10.5216    4.4803 O   0  0  0  0  0  0  0  0  0  0  0  0
    1.3267  -11.3769    3.2747 O   0  0  0  0  0  0  0  0  0  0  0  0
    0.3961   -5.8099    3.4196 O   0  0  0  0  0  0  0  0  0  0  0  0
    0.8891   -5.6859    0.8902 O   0  0  0  0  0  0  0  0  0  0  0  0
    1.5232  -10.3405    1.1383 O   0  0  0  0  0  0  0  0  0  0  0  0
    3.3293  -11.7396    5.0272 C   0  0  0  0  0  0  0  0  0  0  0  0
    4.8449  -11.5511    5.0903 C   0  0  0  0  0  0  0  0  0  0  0  0
    5.3915  -10.2602    5.2016 O   0  0  0  0  0  0  0  0  0  0  0  0
    6.2259  -10.0288    4.2378 C   0  0  0  0  0  0  0  0  0  0  0  0
    6.2802   -9.1884    3.5282 O   0  0  0  0  0  0  0  0  0  0  0  0
  1  2  1  0
  1  3  1  0
  3  4  1  0
  4  5  1  0
  2  6  1  0
  5  6  1  0
  5  7  1  6
  7  8  1  0
  7  9  2  0
  3 10  1  1
 10 11  1  0
 10 12  2  0
  2 13  2  0
  6 14  2  0
  4 15  2  0
 11 16  1  0
 16 17  1  0
 17 18  1  0
 18 19  1  0
 19 20  2  0
M  END

$$$$
No_895-/export/home/yangzhenyu/potential_scad_32_flow//YTHDC2/2024-12-06-03-22-00/
     RDKit          3D

 18 18  0  0  1  0  0  0  0  0999 V2000
    1.1787   -8.0297    3.5154 O   0  0  0  0  0  0  0  0  0  0  0  0
    0.9969   -8.9689    3.0048 C   0  0  1  0  0  0  0  0  0  0  0  0
    0.9976   -8.9567    1.6341 C   0  0  0  0  0  0  0  0  0  0  0  0
    0.7663   -7.7728    1.0082 C   0  0  1  0  0  0  0  0  0  0  0  0
    1.1468   -6.5619    1.6541 C   0  0  0  0  0  0  0  0  0  0  0  0
    1.3592   -6.6155    3.0007 C   0  0  0  0  0  0  0  0  0  0  0  0
    1.2035  -10.1894    3.6215 C   0  0  0  0  0  0  0  0  0  0  0  0
    0.3377  -11.1521    3.8136 O   0  0  0  0  0  0  0  0  0  0  0  0
    2.4539  -10.7371    4.0172 N   0  0  0  0  0  0  0  0  0  0  0  0
    0.7370   -7.7889   -0.3686 C   0  0  0  0  0  0  0  0  0  0  0  0
    1.6235   -8.3704   -1.1131 C   0  0  0  0  0  0  0  0  0  0  0  0
    2.9704   -8.1018   -0.8896 O   0  0  0  0  0  0  0  0  0  0  0  0
    1.3711   -9.2494   -1.8563 O   0  0  0  0  0  0  0  0  0  0  0  0
    1.5073   -5.5779    3.7892 O   0  0  0  0  0  0  0  0  0  0  0  0
    0.7265  -10.1226    0.9859 O   0  0  0  0  0  0  0  0  0  0  0  0
    2.6700  -11.8901    4.8028 C   0  0  0  0  0  0  0  0  0  0  0  0
    3.5741  -12.4316    4.1516 C   0  0  0  0  0  0  0  0  0  0  0  0
    3.0845  -13.3254    3.2207 O   0  0  0  0  0  0  0  0  0  0  0  0
  1  2  1  0
  2  3  1  0
  3  4  1  0
  4  5  1  0
  1  6  1  0
  5  6  1  0
  2  7  1  6
  7  8  2  0
  7  9  1  0
  4 10  1  6
 10 11  1  0
 11 12  1  0
 11 13  2  0
  6 14  2  0
  3 15  2  0
  9 16  1  0
 16 17  1  0
 17 18  2  0
M  END

$$$$
No_896-/export/home/yangzhenyu/potential_scad_32_flow//YTHDC2/2024-12-06-03-22-00/
     RDKit          3D

 19 19  0  0  1  0  0  0  0  0999 V2000
    1.1787   -8.0297    3.5154 O   0  0  0  0  0  0  0  0  0  0  0  0
    0.6747   -7.4019    2.7838 C   0  0  1  0  0  0  0  0  0  0  0  0
    0.5570   -6.0797    2.8560 C   0  0  0  0  0  0  0  0  0  0  0  0
    1.6734   -5.4651    3.4094 C   0  0  0  0  0  0  0  0  0  0  0  0
    1.3890   -9.4346    3.3337 C   0  0  0  0  0  0  0  0  0  0  0  0
    1.2051  -10.0658    2.2186 C   0  0  0  0  0  0  0  0  0  0  0  0
    0.6500   -9.2608    1.2027 C   0  0  0  0  0  0  0  0  0  0  0  0
    0.4651   -7.8699    1.4345 C   0  0  0  0  0  0  0  0  0  0  0  0
    1.4923  -11.3720    2.0658 C   0  0  0  0  0  0  0  0  0  0  0  0
    1.7859  -11.7630    0.7170 O   0  0  0  0  0  0  0  0  0  0  0  0
    0.9104  -12.3576    2.8030 O   0  0  0  0  0  0  0  0  0  0  0  0
   -0.1458   -7.2434    0.4495 C   0  0  0  0  0  0  0  0  0  0  0  0
   -1.3612   -7.0772    0.3333 S   0  0  0  0  0  0  0  0  0  0  0  0
   -1.7150   -6.1586   -0.9607 O   0  0  0  0  0  0  0  0  0  0  0  0
   -2.2544   -8.3090    0.0682 N   0  0  0  0  0  0  0  0  0  0  0  0
   -2.2053   -6.2923    1.3459 O   0  0  0  0  0  0  0  0  0  0  0  0
   -2.1955   -8.9656   -1.2249 C   0  0  0  0  0  0  0  0  0  0  0  0
   -2.9430  -10.1942   -1.3509 C   0  0  0  0  0  0  0  0  0  0  0  0
   -2.6539  -10.9712   -2.2275 C   0  0  0  0  0  0  0  0  0  0  0  0
  1  2  1  0
  2  3  1  6
  3  4  1  0
  1  5  1  0
  5  6  2  0
  6  7  1  0
  2  8  1  0
  7  8  2  0
  6  9  1  0
  9 10  1  0
  9 11  2  0
  8 12  1  0
 12 13  1  0
 13 14  2  0
 13 15  1  0
 13 16  2  0
 15 17  1  0
 17 18  1  0
 18 19  2  0
M  END

$$$$
No_897-/export/home/yangzhenyu/potential_scad_32_flow//YTHDC2/2024-12-06-03-22-00/
     RDKit          3D

 20 20  0  0  1  0  0  0  0  0999 V2000
    1.1787   -8.0297    3.5154 C   0  0  0  0  0  0  0  0  0  0  0  0
    1.1048   -9.2215    3.2892 C   0  0  0  0  0  0  0  0  0  0  0  0
    1.2339   -9.7611    2.0189 C   0  0  0  0  0  0  0  0  0  0  0  0
    1.3583   -9.0036    0.9764 C   0  0  0  0  0  0  0  0  0  0  0  0
    1.7077   -9.6100   -0.3010 C   0  0  0  0  0  0  0  0  0  0  0  0
    1.3637   -7.1087    2.3226 C   0  0  0  0  0  0  0  0  0  0  0  0
    1.4257   -7.6645    1.0231 C   0  0  0  0  0  0  0  0  0  0  0  0
    1.9364   -8.8976   -1.3212 O   0  0  0  0  0  0  0  0  0  0  0  0
    0.9971  -10.7190   -0.5095 O   0  0  0  0  0  0  0  0  0  0  0  0
    1.1298  -10.1655    4.3973 C   0  0  2  0  0  0  0  0  0  0  0  0
    1.9532  -11.4928    4.1473 O   0  0  0  0  0  0  0  0  0  0  0  0
    1.2789   -5.6066    2.5639 C   0  0  0  0  0  0  0  0  0  0  0  0
    0.8794   -4.8803    1.5383 O   0  0  0  0  0  0  0  0  0  0  0  0
    1.6580   -5.1132    3.6808 O   0  0  0  0  0  0  0  0  0  0  0  0
   -0.2819  -10.7383    4.6585 O   0  0  0  0  0  0  0  0  0  0  0  0
   -1.1473   -9.9187    4.5935 C   0  0  0  0  0  0  0  0  0  0  0  0
   -1.3853   -8.8694    5.3020 C   0  0  0  0  0  0  0  0  0  0  0  0
   -2.5162   -8.0099    5.2456 Br  0  0  0  0  0  0  0  0  0  0  0  0
   -2.2113  -10.4667    3.9089 O   0  0  0  0  0  0  0  0  0  0  0  0
    1.3033  -11.2280    1.8792 C   0  0  0  0  0  0  0  0  0  0  0  0
  4  5  1  0
  5  8  2  0
  5  9  1  0
  2 10  1  0
 10 11  1  6
  6 12  1  0
 12 13  2  0
 12 14  1  0
 10 15  1  0
 15 16  1  0
 16 17  1  0
 17 18  1  0
 16 19  2  0
  3 20  1  0
  1  2  2  0
  2  3  1  0
  3  4  2  0
  4  7  1  0
  6  7  2  0
  1  6  1  0
M  END

$$$$
No_898-/export/home/yangzhenyu/potential_scad_32_flow//YTHDC2/2024-12-06-03-22-00/
     RDKit          3D

 20 19  0  0  1  0  0  0  0  0999 V2000
    1.1787   -8.0297    3.5154 C   0  0  0  0  0  0  0  0  0  0  0  0
    1.0491   -6.8434    2.9820 C   0  0  0  0  0  0  0  0  0  0  0  0
    1.9985   -8.9840    2.8958 C   0  0  0  0  0  0  0  0  0  0  0  0
    1.1815  -10.1889    2.5497 C   0  0  2  0  0  0  0  0  0  0  0  0
    0.9817  -11.1388    2.8134 C   0  0  2  0  0  0  0  0  0  0  0  0
    1.6854  -11.5768    4.1035 C   0  0  0  0  0  0  0  0  0  0  0  0
    1.8112   -5.8026    3.2097 C   0  0  0  0  0  0  0  0  0  0  0  0
    1.6153   -5.2442    4.3043 O   0  0  0  0  0  0  0  0  0  0  0  0
    1.1737  -10.0385    0.9339 C   0  0  0  0  0  0  0  0  0  0  0  0
    0.4787  -11.0005    0.3477 O   0  0  0  0  0  0  0  0  0  0  0  0
    1.9835   -9.1839    0.1888 N   0  0  0  0  0  0  0  0  0  0  0  0
    1.8222   -9.0829   -1.1958 O   0  0  0  0  0  0  0  0  0  0  0  0
    0.8592  -12.3571    2.0081 C   0  0  0  0  0  0  0  0  0  0  0  0
   -0.3606  -12.9535    2.2436 C   0  0  0  0  0  0  0  0  0  0  0  0
   -1.4889  -12.4347    2.5907 O   0  0  0  0  0  0  0  0  0  0  0  0
   -0.4164  -14.3363    2.4873 N   0  0  0  0  0  0  0  0  0  0  0  0
    0.8653  -15.0912    2.2901 C   0  0  0  0  0  0  0  0  0  0  0  0
    1.2383  -15.5761    1.1079 C   0  0  0  0  0  0  0  0  0  0  0  0
    2.4217  -16.1575    1.1608 O   0  0  0  0  0  0  0  0  0  0  0  0
    0.6590  -15.4205    0.0534 O   0  0  0  0  0  0  0  0  0  0  0  0
  1  2  1  0
  1  3  1  0
  4  3  1  6
  4  5  1  0
  5  6  1  1
  2  7  1  0
  7  8  1  0
  4  9  1  0
  9 10  2  0
  9 11  1  0
 11 12  2  0
  5 13  1  0
 13 14  1  0
 14 15  2  0
 14 16  1  0
 16 17  1  0
 17 18  1  0
 18 19  1  0
 18 20  2  0
M  END

$$$$
No_899-/export/home/yangzhenyu/potential_scad_32_flow//YTHDC2/2024-12-06-03-22-00/
     RDKit          3D

 19 20  0  0  1  0  0  0  0  0999 V2000
    1.1787   -8.0297    3.5154 Cl  0  0  0  0  0  0  0  0  0  0  0  0
    0.6986   -7.2038    2.6409 C   0  0  0  0  0  0  0  0  0  0  0  0
    0.4102   -5.8836    2.8581 C   0  0  0  0  0  0  0  0  0  0  0  0
   -0.6236   -5.3509    2.1309 C   0  0  0  0  0  0  0  0  0  0  0  0
   -1.0400   -5.9024    0.9580 C   0  0  0  0  0  0  0  0  0  0  0  0
   -0.6006   -7.0853    0.5910 C   0  0  0  0  0  0  0  0  0  0  0  0
    0.1640   -7.7785    1.4226 C   0  0  0  0  0  0  0  0  0  0  0  0
    0.3361   -9.1397    1.2791 C   0  0  0  0  0  0  0  0  0  0  0  0
   -0.4677  -10.0558    1.5412 N   0  0  0  0  0  0  0  0  0  0  0  0
   -0.3125  -11.3856    1.3518 C   0  0  0  0  0  0  0  0  0  0  0  0
    0.1626  -12.0888    2.2197 C   0  0  0  0  0  0  0  0  0  0  0  0
    0.3586  -13.5780    2.1559 C   0  0  2  0  0  0  0  0  0  0  0  0
   -0.0914  -14.1771    1.1625 C   0  0  0  0  0  0  0  0  0  0  0  0
   -0.7075  -13.4822    0.0924 C   0  0  0  0  0  0  0  0  0  0  0  0
   -0.6999  -12.0720    0.1060 C   0  0  0  0  0  0  0  0  0  0  0  0
    1.5187   -9.4547    0.5165 O   0  0  0  0  0  0  0  0  0  0  0  0
    0.8064  -14.2644    3.3471 O   0  0  0  0  0  0  0  0  0  0  0  0
   -1.2177  -11.2933   -0.8930 O   0  0  0  0  0  0  0  0  0  0  0  0
   -2.0200   -4.9905   -0.0315 O   0  0  0  0  0  0  0  0  0  0  0  0
  1  2  1  0
  7  8  1  0
  8  9  1  0
  9 10  1  0
 10 11  1  0
 12 13  1  0
 10 15  1  0
 14 15  1  0
  8 16  2  0
 12 17  1  1
 15 18  2  0
  5 19  1  0
 11 12  1  0
 13 14  1  0
  2  3  2  0
  3  4  1  0
  4  5  2  0
  5  6  1  0
  6  7  2  0
  2  7  1  0
M  END

$$$$
No_900-/export/home/yangzhenyu/potential_scad_32_flow//YTHDC2/2024-12-06-03-22-00/
     RDKit          3D

 21 21  0  0  1  0  0  0  0  0999 V2000
    1.1787   -8.0297    3.5154 C   0  0  0  0  0  0  0  0  0  0  0  0
    1.0491   -6.8434    2.9820 C   0  0  0  0  0  0  0  0  0  0  0  0
    1.9985   -8.9840    2.8958 C   0  0  2  0  0  0  0  0  0  0  0  0
    1.7297   -9.2108    1.6335 C   0  0  0  0  0  0  0  0  0  0  0  0
    1.7343   -8.0566    0.8408 N   0  0  0  0  0  0  0  0  0  0  0  0
    1.1324   -6.9025    1.4330 C   0  0  0  0  0  0  0  0  0  0  0  0
    2.2089  -10.3466    3.6078 C   0  0  0  0  0  0  0  0  0  0  0  0
    1.5746  -11.4703    3.3861 O   0  0  0  0  0  0  0  0  0  0  0  0
    3.4441  -10.5177    4.2549 O   0  0  0  0  0  0  0  0  0  0  0  0
    0.9904   -5.7925    0.7493 O   0  0  0  0  0  0  0  0  0  0  0  0
    2.4109  -10.1283    0.7494 O   0  0  0  0  0  0  0  0  0  0  0  0
    0.7894   -5.7307    3.5024 O   0  0  0  0  0  0  0  0  0  0  0  0
    1.7872   -8.0020   -0.5538 C   0  0  1  0  0  0  0  0  0  0  0  0
    2.9540   -8.4745   -0.9957 C   0  0  0  0  0  0  0  0  0  0  0  0
    3.9583   -7.6558   -1.1320 O   0  0  0  0  0  0  0  0  0  0  0  0
    2.9872   -9.5058   -1.8738 O   0  0  0  0  0  0  0  0  0  0  0  0
    3.5195  -11.5736    5.1949 C   0  0  0  0  0  0  0  0  0  0  0  0
    4.4242  -10.8268    6.1397 C   0  0  0  0  0  0  0  0  0  0  0  0
    3.9232   -9.7611    6.5576 O   0  0  0  0  0  0  0  0  0  0  0  0
    5.3734  -11.2333    6.4511 O   0  0  0  0  0  0  0  0  0  0  0  0
    0.7577   -8.7204   -1.1540 O   0  0  0  0  0  0  0  0  0  0  0  0
  1  2  1  0
  1  3  1  0
  3  4  1  0
  4  5  1  0
  2  6  1  0
  5  6  1  0
  3  7  1  1
  7  8  2  0
  7  9  1  0
  6 10  2  0
  4 11  2  0
  2 12  2  0
  5 13  1  0
 13 14  1  0
 14 15  2  0
 14 16  1  0
  9 17  1  0
 17 18  1  0
 18 19  1  0
 18 20  2  0
 13 21  1  6
M  END

$$$$
No_901-/export/home/yangzhenyu/potential_scad_32_flow//YTHDC2/2024-12-06-03-22-00/
     RDKit          3D

 18 18  0  0  0  0  0  0  0  0999 V2000
    1.1787   -8.0297    3.5154 C   0  0  0  0  0  0  0  0  0  0  0  0
    1.1048   -9.2215    3.2892 C   0  0  0  0  0  0  0  0  0  0  0  0
    1.3627  -10.1721    4.3044 C   0  0  0  0  0  0  0  0  0  0  0  0
    1.7354  -11.4730    3.9023 F   0  0  0  0  0  0  0  0  0  0  0  0
    0.9919   -7.0631    2.4740 C   0  0  0  0  0  0  0  0  0  0  0  0
    0.8550   -7.8382    1.1995 C   0  0  0  0  0  0  0  0  0  0  0  0
    0.8383   -9.0012    0.9317 C   0  0  0  0  0  0  0  0  0  0  0  0
    0.9747   -9.8612    1.9789 C   0  0  0  0  0  0  0  0  0  0  0  0
    0.0993  -10.5384    4.8627 Br  0  0  0  0  0  0  0  0  0  0  0  0
    1.1305   -5.3939    2.6119 Cl  0  0  0  0  0  0  0  0  0  0  0  0
    0.6675   -9.5322   -0.3742 C   0  0  0  0  0  0  0  0  0  0  0  0
   -0.5305   -9.1589   -0.9787 O   0  0  0  0  0  0  0  0  0  0  0  0
    1.5990   -9.6169   -1.1019 O   0  0  0  0  0  0  0  0  0  0  0  0
    2.2816   -9.8591    5.3325 F   0  0  0  0  0  0  0  0  0  0  0  0
    0.9495  -11.1353    1.7529 Cl  0  0  0  0  0  0  0  0  0  0  0  0
   -0.8776   -9.3046   -2.2648 C   0  0  0  0  0  0  0  0  0  0  0  0
   -1.8438   -9.6836   -2.6723 C   0  0  0  0  0  0  0  0  0  0  0  0
   -2.7411  -10.0596   -1.7895 O   0  0  0  0  0  0  0  0  0  0  0  0
  2  3  1  0
  3  4  1  0
  3  9  1  0
  5 10  1  0
  7 11  1  0
 11 12  1  0
 11 13  2  0
  3 14  1  0
  8 15  1  0
 12 16  1  0
 16 17  1  0
 17 18  1  0
  1  2  2  0
  2  8  1  0
  7  8  2  0
  6  7  1  0
  5  6  2  0
  1  5  1  0
M  END

$$$$
No_902-/export/home/yangzhenyu/potential_scad_32_flow//YTHDC2/2024-12-06-03-22-00/
     RDKit          3D

 19 19  0  0  1  0  0  0  0  0999 V2000
    1.1787   -8.0297    3.5154 C   0  0  0  0  0  0  0  0  0  0  0  0
    1.0491   -6.8434    2.9820 C   0  0  2  0  0  0  0  0  0  0  0  0
    1.9985   -8.9840    2.8958 C   0  0  2  0  0  0  0  0  0  0  0  0
    1.7297   -9.2108    1.6335 C   0  0  0  0  0  0  0  0  0  0  0  0
    1.7343   -8.0566    0.8408 C   0  0  2  0  0  0  0  0  0  0  0  0
    1.0269   -6.8892    1.4456 C   0  0  0  0  0  0  0  0  0  0  0  0
    1.7596   -8.0979   -0.4723 C   0  0  0  0  0  0  0  0  0  0  0  0
    0.8317   -7.8698   -1.2086 C   0  0  0  0  0  0  0  0  0  0  0  0
    2.7986   -8.9974   -1.0790 O   0  0  0  0  0  0  0  0  0  0  0  0
    1.9593  -10.3633    3.5790 C   0  0  0  0  0  0  0  0  0  0  0  0
    1.9060  -11.3935    2.9378 O   0  0  0  0  0  0  0  0  0  0  0  0
    2.8858  -10.4054    4.7051 O   0  0  0  0  0  0  0  0  0  0  0  0
    1.8056   -5.6757    3.4226 C   0  0  0  0  0  0  0  0  0  0  0  0
    1.9568   -5.5002    4.6238 O   0  0  0  0  0  0  0  0  0  0  0  0
    1.6372   -4.4546    2.5858 O   0  0  0  0  0  0  0  0  0  0  0  0
    0.3194   -6.0463    0.7675 O   0  0  0  0  0  0  0  0  0  0  0  0
    0.7767   -8.4928   -2.5268 C   0  0  0  0  0  0  0  0  0  0  0  0
   -0.5699   -8.7717   -3.0139 C   0  0  0  0  0  0  0  0  0  0  0  0
   -1.7015   -8.7223   -2.0969 C   0  0  0  0  0  0  0  0  0  0  0  0
  1  2  1  0
  1  3  1  0
  3  4  1  0
  5  4  1  6
  2  6  1  0
  5  6  1  0
  5  7  1  0
  7  8  2  3
  7  9  1  0
  3 10  1  1
 10 11  2  0
 10 12  1  0
  2 13  1  6
 13 14  1  0
 13 15  2  0
  6 16  2  0
  8 17  1  0
 17 18  2  3
 18 19  1  0
M  END

$$$$
No_903-/export/home/yangzhenyu/potential_scad_32_flow//YTHDC2/2024-12-06-03-22-00/
     RDKit          3D

 17 17  0  0  1  0  0  0  0  0999 V2000
    1.1787   -8.0297    3.5154 C   0  0  0  0  0  0  0  0  0  0  0  0
    1.0491   -6.8434    2.9820 C   0  0  0  0  0  0  0  0  0  0  0  0
    2.0004   -8.9805    3.0498 C   0  0  2  0  0  0  0  0  0  0  0  0
    2.3555   -9.0813    1.8033 C   0  0  0  0  0  0  0  0  0  0  0  0
    1.5516   -6.8448    1.5633 C   0  0  0  0  0  0  0  0  0  0  0  0
    2.2171   -7.9366    1.0002 C   0  0  0  0  0  0  0  0  0  0  0  0
    2.6592   -7.8330   -0.2250 C   0  0  0  0  0  0  0  0  0  0  0  0
    2.1280  -10.4784    3.8367 C   0  0  0  0  0  0  0  0  0  0  0  0
    3.2217  -10.7539    4.0115 Cl  0  0  0  0  0  0  0  0  0  0  0  0
    0.9727  -11.1602    3.9814 O   0  0  0  0  0  0  0  0  0  0  0  0
    2.0438   -8.6353   -1.1691 N   0  0  0  0  0  0  0  0  0  0  0  0
    0.9671   -9.1575   -0.7297 C   0  0  0  0  0  0  0  0  0  0  0  0
   -0.3830   -8.6662   -1.1195 O   0  0  0  0  0  0  0  0  0  0  0  0
    0.7212  -10.3554   -0.1847 O   0  0  0  0  0  0  0  0  0  0  0  0
    1.4393   -5.6212    0.8792 O   0  0  0  0  0  0  0  0  0  0  0  0
   -1.4487   -9.2099   -1.1531 C   0  0  0  0  0  0  0  0  0  0  0  0
   -2.2323   -8.8218   -0.0040 C   0  0  0  0  0  0  0  0  0  0  0  0
  1  3  1  0
  2  5  1  0
  4  6  1  0
  5  6  1  0
  6  7  1  0
  3  8  1  6
  8  9  1  0
  8 10  2  0
  7 11  2  3
 11 12  1  0
 12 13  1  0
 12 14  2  0
  5 15  2  0
 13 16  1  0
 16 17  1  0
  1  2  1  0
  3  4  1  0
M  END

$$$$
No_904-/export/home/yangzhenyu/potential_scad_32_flow//YTHDC2/2024-12-06-03-22-00/
     RDKit          3D

 18 19  0  0  1  0  0  0  0  0999 V2000
    1.1787   -8.0297    3.5154 O   0  0  0  0  0  0  0  0  0  0  0  0
    0.9969   -8.9689    3.0048 C   0  0  0  0  0  0  0  0  0  0  0  0
    1.3055  -10.1056    3.6616 C   0  0  0  0  0  0  0  0  0  0  0  0
    1.1249  -11.3503    3.0941 C   0  0  0  0  0  0  0  0  0  0  0  0
    0.6932  -11.4484    1.8586 C   0  0  0  0  0  0  0  0  0  0  0  0
    0.5498  -10.3736    1.0579 C   0  0  0  0  0  0  0  0  0  0  0  0
    0.7643   -9.1185    1.6383 C   0  0  0  0  0  0  0  0  0  0  0  0
    0.5937   -7.8467    1.0482 C   0  0  1  0  0  0  0  0  0  0  0  0
   -0.4358   -7.6746    0.4159 F   0  0  0  0  0  0  0  0  0  0  0  0
    0.8164   -6.6659    1.7864 C   0  0  0  0  0  0  0  0  0  0  0  0
    1.1313   -6.7734    3.1133 C   0  0  0  0  0  0  0  0  0  0  0  0
    1.5205   -7.7929   -0.0734 P   0  0  2  0  0  0  0  0  0  0  0  0
    1.2219   -7.8583   -1.2635 O   0  0  0  0  0  0  0  0  0  0  0  0
    2.6888   -8.8593    0.1732 O   0  0  0  0  0  0  0  0  0  0  0  0
    1.3119  -12.5820    3.8199 O   0  0  0  0  0  0  0  0  0  0  0  0
    0.6511  -12.7285    1.1499 O   0  0  0  0  0  0  0  0  0  0  0  0
    1.7845  -13.5591    1.0836 C   0  0  0  0  0  0  0  0  0  0  0  0
    1.7189  -14.6670    1.5989 C   0  0  0  0  0  0  0  0  0  0  0  0
  1  2  1  0
  7  8  1  0
  8  9  1  6
  8 10  1  0
  1 11  1  0
 10 11  2  0
  8 12  1  0
 12 13  2  0
 12 14  1  1
  4 15  1  0
  5 16  1  0
 16 17  1  0
 17 18  1  0
  2  3  2  0
  3  4  1  0
  4  5  2  0
  5  6  1  0
  6  7  2  0
  2  7  1  0
M  END

$$$$
No_905-/export/home/yangzhenyu/potential_scad_32_flow//YTHDC2/2024-12-06-03-22-00/
     RDKit          3D

 18 19  0  0  1  0  0  0  0  0999 V2000
    1.1787   -8.0297    3.5154 O   0  0  0  0  0  0  0  0  0  0  0  0
    0.6747   -7.4019    2.7838 C   0  0  0  0  0  0  0  0  0  0  0  0
    0.7594   -8.0032    1.4295 C   0  0  1  0  0  0  0  0  0  0  0  0
    1.4742   -7.4398    0.6034 C   0  0  0  0  0  0  0  0  0  0  0  0
    1.8433   -8.4151   -0.4648 C   0  0  0  0  0  0  0  0  0  0  0  0
    1.3280   -9.6577   -0.0923 C   0  0  0  0  0  0  0  0  0  0  0  0
    0.7557   -9.3951    1.2403 C   0  0  2  0  0  0  0  0  0  0  0  0
    0.2273  -10.3094    2.0338 C   0  0  0  0  0  0  0  0  0  0  0  0
   -0.9733  -10.1773    2.5901 C   0  0  0  0  0  0  0  0  0  0  0  0
   -1.3410  -11.2383    3.6528 C   0  0  0  0  0  0  0  0  0  0  0  0
   -0.3923  -12.2307    3.9217 C   0  0  0  0  0  0  0  0  0  0  0  0
    0.6814  -12.3851    3.2106 C   0  0  0  0  0  0  0  0  0  0  0  0
    1.0933  -11.4890    2.3087 C   0  0  0  0  0  0  0  0  0  0  0  0
    0.1586   -6.3379    3.0298 O   0  0  0  0  0  0  0  0  0  0  0  0
    1.6034  -13.4050    3.5705 N   0  0  0  0  0  0  0  0  0  0  0  0
    2.5450   -8.2340   -1.4847 O   0  0  0  0  0  0  0  0  0  0  0  0
    2.0616  -14.3098    2.4831 C   0  0  0  0  0  0  0  0  0  0  0  0
    2.4421  -15.5322    2.7235 O   0  0  0  0  0  0  0  0  0  0  0  0
  1  2  1  0
  3  2  1  1
  3  4  1  0
  4  5  1  0
  5  6  1  0
  3  7  1  0
  6  7  1  0
  7  8  1  6
  2 14  2  0
 12 15  1  0
  5 16  2  0
 15 17  1  0
 17 18  2  0
  8  9  2  0
  9 10  1  0
 10 11  2  0
 11 12  1  0
 12 13  2  0
  8 13  1  0
M  END

$$$$
No_906-/export/home/yangzhenyu/potential_scad_32_flow//YTHDC2/2024-12-06-03-22-00/
     RDKit          3D

 18 18  0  0  1  0  0  0  0  0999 V2000
    1.1787   -8.0297    3.5154 C   0  0  0  0  0  0  0  0  0  0  0  0
    1.0491   -6.8434    2.9820 C   0  0  0  0  0  0  0  0  0  0  0  0
    1.9985   -8.9840    2.8958 C   0  0  0  0  0  0  0  0  0  0  0  0
    1.7297   -9.2108    1.6335 C   0  0  0  0  0  0  0  0  0  0  0  0
    1.5234   -8.1478    0.8618 C   0  0  0  0  0  0  0  0  0  0  0  0
    1.0558   -6.9632    1.4912 C   0  0  0  0  0  0  0  0  0  0  0  0
    2.0857  -10.3821    3.6499 C   0  0  1  0  0  0  0  0  0  0  0  0
    1.5019  -11.4599    3.6088 I   0  0  0  0  0  0  0  0  0  0  0  0
    0.8383   -5.6892    3.5360 C   0  0  0  0  0  0  0  0  0  0  0  0
   -0.0374   -4.8482    3.0733 O   0  0  0  0  0  0  0  0  0  0  0  0
    1.6971   -5.1561    4.3770 O   0  0  0  0  0  0  0  0  0  0  0  0
    1.6139   -8.1207   -0.5489 C   0  0  0  0  0  0  0  0  0  0  0  0
    1.4958   -9.2365   -1.2419 O   0  0  0  0  0  0  0  0  0  0  0  0
    2.0463   -7.3435   -1.2894 O   0  0  0  0  0  0  0  0  0  0  0  0
    3.3931  -10.1485    4.5067 C   0  0  0  0  0  0  0  0  0  0  0  0
    3.7344  -11.1806    5.3419 O   0  0  0  0  0  0  0  0  0  0  0  0
    3.9288   -9.1909    4.6439 O   0  0  0  0  0  0  0  0  0  0  0  0
    0.7135   -5.6684    0.6718 O   0  0  0  0  0  0  0  0  0  0  0  0
  3  7  1  0
  7  8  1  6
  2  9  1  0
  9 10  2  0
  9 11  1  0
  5 12  1  0
 12 13  1  0
 12 14  2  0
  7 15  1  0
 15 16  1  0
 15 17  2  0
  6 18  1  0
  1  2  2  0
  2  6  1  0
  5  6  2  0
  4  5  1  0
  3  4  2  0
  1  3  1  0
M  END

$$$$
No_907-/export/home/yangzhenyu/potential_scad_32_flow//YTHDC2/2024-12-06-03-22-00/
     RDKit          3D

 18 18  0  0  1  0  0  0  0  0999 V2000
    1.1787   -8.0297    3.5154 C   0  0  0  0  0  0  0  0  0  0  0  0
    1.0491   -6.8434    2.9820 C   0  0  0  0  0  0  0  0  0  0  0  0
    0.9905   -9.0774    2.6527 C   0  0  0  0  0  0  0  0  0  0  0  0
    0.7897   -8.9519    1.3691 C   0  0  0  0  0  0  0  0  0  0  0  0
    0.7018   -7.7198    0.7892 C   0  0  0  0  0  0  0  0  0  0  0  0
    0.8918   -6.5957    1.6117 C   0  0  0  0  0  0  0  0  0  0  0  0
    1.0600  -10.5680    3.3321 N   0  0  0  0  0  0  0  0  0  0  0  0
   -0.0362  -11.2156    3.5098 C   0  0  0  0  0  0  0  0  0  0  0  0
   -1.1961  -10.5219    3.7499 O   0  0  0  0  0  0  0  0  0  0  0  0
    0.0622  -12.5135    3.7185 C   0  0  0  0  0  0  0  0  0  0  0  0
    0.8686   -5.2690    1.1723 O   0  0  0  0  0  0  0  0  0  0  0  0
    0.6283  -10.0588    0.4124 C   0  0  1  0  0  0  0  0  0  0  0  0
    1.7321  -10.8458    0.2367 C   0  0  0  0  0  0  0  0  0  0  0  0
   -0.5497  -10.3225   -0.1109 C   0  0  0  0  0  0  0  0  0  0  0  0
   -1.2152  -11.4220    0.1710 C   0  0  0  0  0  0  0  0  0  0  0  0
   -2.4303  -11.7648   -0.4808 C   0  0  0  0  0  0  0  0  0  0  0  0
   -3.4272  -11.7295   -0.2793 N   0  0  0  0  0  0  0  0  0  0  0  0
   -2.1651  -11.8874   -1.9383 O   0  0  0  0  0  0  0  0  0  0  0  0
  1  2  1  0
  3  4  1  0
  2  6  1  0
  5  6  1  0
  3  7  1  0
  7  8  1  0
  8  9  2  0
  8 10  1  0
  6 11  2  0
  4 12  1  0
 12 13  1  1
 12 14  1  0
 14 15  2  3
 15 16  1  0
 16 17  1  0
 16 18  2  0
  1  3  1  0
  4  5  1  0
M  END

$$$$
No_908-/export/home/yangzhenyu/potential_scad_32_flow//YTHDC2/2024-12-06-03-22-00/
     RDKit          3D

 17 18  0  0  1  0  0  0  0  0999 V2000
    1.1787   -8.0297    3.5154 O   0  0  0  0  0  0  0  0  0  0  0  0
    0.6747   -7.4019    2.7838 C   0  0  0  0  0  0  0  0  0  0  0  0
    0.7594   -8.0032    1.4295 C   0  0  1  0  0  0  0  0  0  0  0  0
    0.3459   -9.1500    1.3581 C   0  0  0  0  0  0  0  0  0  0  0  0
    1.1876  -10.0065    2.0240 C   0  0  0  0  0  0  0  0  0  0  0  0
    1.2267   -9.5257    3.5507 C   0  0  0  0  0  0  0  0  0  0  0  0
    1.6039  -10.3725    4.5012 C   0  0  0  0  0  0  0  0  0  0  0  0
    2.1546  -11.6410    3.9991 C   0  0  0  0  0  0  0  0  0  0  0  0
    1.9186  -12.0910    2.7762 C   0  0  0  0  0  0  0  0  0  0  0  0
    1.4531  -11.2329    1.8163 C   0  0  0  0  0  0  0  0  0  0  0  0
    2.2201  -13.4369    2.5108 C   0  0  0  0  0  0  0  0  0  0  0  0
    1.7737  -14.3798    3.2261 N   0  0  0  0  0  0  0  0  0  0  0  0
    2.8214  -13.8409    1.4747 O   0  0  0  0  0  0  0  0  0  0  0  0
    0.2714   -6.9848    0.4819 C   0  0  0  0  0  0  0  0  0  0  0  0
   -1.0444   -6.7250    0.5437 O   0  0  0  0  0  0  0  0  0  0  0  0
    1.3098  -15.6220    2.9263 C   0  0  0  0  0  0  0  0  0  0  0  0
    0.5546  -16.1956    3.4382 C   0  0  0  0  0  0  0  0  0  0  0  0
  1  2  1  0
  2  3  1  0
  3  4  1  0
  4  5  1  0
  1  6  1  0
  9 11  1  0
 11 12  1  0
 11 13  2  0
  3 14  1  6
 14 15  1  0
 12 16  1  0
 16 17  1  0
  5  6  2  0
  6  7  1  0
  7  8  2  0
  8  9  1  0
  9 10  2  0
  5 10  1  0
M  END

$$$$
No_909-/export/home/yangzhenyu/potential_scad_32_flow//YTHDC2/2024-12-06-03-22-00/
     RDKit          3D

 19 20  0  0  1  0  0  0  0  0999 V2000
    1.1787   -8.0297    3.5154 C   0  0  0  0  0  0  0  0  0  0  0  0
    1.0491   -6.8434    2.9820 C   0  0  0  0  0  0  0  0  0  0  0  0
    0.9905   -9.0774    2.6527 C   0  0  0  0  0  0  0  0  0  0  0  0
    0.7897   -8.9519    1.3691 C   0  0  0  0  0  0  0  0  0  0  0  0
    0.7018   -7.7198    0.7892 C   0  0  0  0  0  0  0  0  0  0  0  0
    0.8918   -6.5957    1.6117 C   0  0  0  0  0  0  0  0  0  0  0  0
    1.0998  -10.4710    3.2437 C   0  0  1  0  0  0  0  0  0  0  0  0
    0.0472  -11.2546    3.3963 C   0  0  0  0  0  0  0  0  0  0  0  0
    0.1622  -12.5732    3.4140 N   0  0  0  0  0  0  0  0  0  0  0  0
    1.4168  -13.0379    3.4220 C   0  0  2  0  0  0  0  0  0  0  0  0
    2.2196  -11.9424    2.9996 C   0  0  0  0  0  0  0  0  0  0  0  0
    0.8385   -5.2828    1.2208 C   0  0  0  0  0  0  0  0  0  0  0  0
    1.8908  -14.1887    3.2485 C   0  0  0  0  0  0  0  0  0  0  0  0
    0.9393  -15.3274    3.5116 O   0  0  0  0  0  0  0  0  0  0  0  0
   -0.2215   -4.7679    0.7281 N   0  0  0  0  0  0  0  0  0  0  0  0
    1.7474   -4.2855    1.6796 O   0  0  0  0  0  0  0  0  0  0  0  0
    2.9607  -14.5714    2.7471 O   0  0  0  0  0  0  0  0  0  0  0  0
   -1.2699  -10.4608    3.7352 C   0  0  0  0  0  0  0  0  0  0  0  0
   -1.0011   -5.3593    0.4779 H   0  0  0  0  0  0  0  0  0  0  0  0
  7  3  1  6
  7  8  1  0
  8  9  2  0
  9 10  1  0
  7 11  1  0
 10 11  1  0
  6 12  1  0
 10 13  1  6
 13 14  1  0
 12 15  2  0
 12 16  1  0
 13 17  2  0
  8 18  1  0
  1  2  2  0
  2  6  1  0
  5  6  2  0
  4  5  1  0
  3  4  2  0
  1  3  1  0
 15 19  1  0
M  END

$$$$
No_910-/export/home/yangzhenyu/potential_scad_32_flow//YTHDC2/2024-12-06-03-22-00/
     RDKit          3D

 18 19  0  0  1  0  0  0  0  0999 V2000
    1.1787   -8.0297    3.5154 O   0  0  0  0  0  0  0  0  0  0  0  0
    0.6747   -7.4019    2.7838 C   0  0  0  0  0  0  0  0  0  0  0  0
    0.7594   -8.0032    1.4295 C   0  0  1  0  0  0  0  0  0  0  0  0
    0.3459   -9.1500    1.3581 C   0  0  0  0  0  0  0  0  0  0  0  0
    1.1876  -10.0065    2.0240 C   0  0  0  0  0  0  0  0  0  0  0  0
    1.2267   -9.5257    3.5507 C   0  0  0  0  0  0  0  0  0  0  0  0
    1.9919  -10.3918    4.3814 C   0  0  0  0  0  0  0  0  0  0  0  0
    2.3610  -11.5716    4.0213 N   0  0  0  0  0  0  0  0  0  0  0  0
    1.9831  -12.0442    2.8352 C   0  0  0  0  0  0  0  0  0  0  0  0
    1.4069  -11.2901    1.8548 C   0  0  0  0  0  0  0  0  0  0  0  0
    2.3125  -13.4592    2.5725 C   0  0  0  0  0  0  0  0  0  0  0  0
    0.9416   -7.0791    0.5082 C   0  0  0  0  0  0  0  0  0  0  0  0
    1.1512   -5.7424    1.0234 O   0  0  0  0  0  0  0  0  0  0  0  0
    0.6855   -7.1950   -0.5122 O   0  0  0  0  0  0  0  0  0  0  0  0
    1.9960  -14.4117    3.2571 N   0  0  0  0  0  0  0  0  0  0  0  0
    2.3763  -13.8581    1.2310 O   0  0  0  0  0  0  0  0  0  0  0  0
    1.6533  -15.6599    3.0140 C   0  0  0  0  0  0  0  0  0  0  0  0
    0.3087  -15.8914    2.8123 C   0  0  0  0  0  0  0  0  0  0  0  0
  1  2  1  0
  2  3  1  0
  3  4  1  0
  4  5  1  0
  1  6  1  0
  9 11  1  0
  3 12  1  6
 12 13  1  0
 12 14  2  0
 11 15  1  0
 11 16  2  0
 15 17  1  0
 17 18  1  0
  5  6  2  0
  6  7  1  0
  7  8  2  0
  8  9  1  0
  9 10  2  0
  5 10  1  0
M  END

$$$$
No_911-/export/home/yangzhenyu/potential_scad_32_flow//YTHDC2/2024-12-06-03-22-00/
     RDKit          3D

 21 22  0  0  1  0  0  0  0  0999 V2000
    1.1787   -8.0297    3.5154 C   0  0  0  0  0  0  0  0  0  0  0  0
    1.0491   -6.8434    2.9820 C   0  0  0  0  0  0  0  0  0  0  0  0
    0.0950   -8.8404    3.2292 C   0  0  0  0  0  0  0  0  0  0  0  0
   -0.9173   -8.4596    2.5152 C   0  0  2  0  0  0  0  0  0  0  0  0
   -1.0331   -7.2162    2.0653 C   0  0  0  0  0  0  0  0  0  0  0  0
   -0.0105   -6.3168    2.3081 C   0  0  2  0  0  0  0  0  0  0  0  0
    0.1150   -4.9910    1.8495 C   0  0  1  0  0  0  0  0  0  0  0  0
   -0.1376   -4.7952    0.5550 P   0  0  0  0  0  0  0  0  0  0  0  0
   -0.3416   -5.8032   -0.2817 O   0  0  0  0  0  0  0  0  0  0  0  0
   -1.5691   -3.9514    0.4928 O   0  0  0  0  0  0  0  0  0  0  0  0
    0.7166   -3.6546   -0.1076 O   0  0  0  0  0  0  0  0  0  0  0  0
    0.1937  -10.3753    3.8679 Cl  0  0  0  0  0  0  0  0  0  0  0  0
    0.3338   -4.0602    2.8821 C   0  0  2  0  0  0  0  0  0  0  0  0
   -0.4891   -3.1464    3.4098 C   0  0  0  0  0  0  0  0  0  0  0  0
    1.8717   -3.6574    3.2629 C   0  0  0  0  0  0  0  0  0  0  0  0
   -0.0494   -1.7967    3.4418 C   0  0  0  0  0  0  0  0  0  0  0  0
    1.2935   -1.5969    3.8066 C   0  0  0  0  0  0  0  0  0  0  0  0
    2.2020   -2.4595    3.0584 C   0  0  0  0  0  0  0  0  0  0  0  0
    2.2723   -6.0767    3.1407 O   0  0  0  0  0  0  0  0  0  0  0  0
   -1.6678   -3.5206    3.8426 O   0  0  0  0  0  0  0  0  0  0  0  0
   -2.0701   -9.2722    2.3583 C   0  0  0  0  0  0  0  0  0  0  0  0
  1  2  1  0
  3  4  1  0
  2  6  1  0
  6  5  1  6
  6  7  1  0
  7  8  1  1
  8  9  1  0
  8 10  2  0
  8 11  1  0
  3 12  1  0
  7 13  1  0
 13 14  1  0
 13 15  1  6
 14 16  1  0
 16 17  1  0
 15 18  1  0
 17 18  1  0
  2 19  2  0
 14 20  2  0
  4 21  1  1
  1  3  1  0
  4  5  1  0
M  END

$$$$
No_912-/export/home/yangzhenyu/potential_scad_32_flow//YTHDC2/2024-12-06-03-22-00/
     RDKit          3D

 19 19  0  0  1  0  0  0  0  0999 V2000
    1.1787   -8.0297    3.5154 C   0  0  0  0  0  0  0  0  0  0  0  0
    1.0491   -6.8434    2.9820 C   0  0  1  0  0  0  0  0  0  0  0  0
    1.9985   -8.9840    2.8958 C   0  0  0  0  0  0  0  0  0  0  0  0
    1.9135  -10.3404    3.6266 C   0  0  0  0  0  0  0  0  0  0  0  0
    2.2847  -10.5440    4.7936 N   0  0  0  0  0  0  0  0  0  0  0  0
    1.7675   -5.7585    3.2789 N   0  0  0  0  0  0  0  0  0  0  0  0
    0.8769  -11.2672    3.3369 N   0  0  0  0  0  0  0  0  0  0  0  0
    0.4044   -6.7061    1.7905 C   0  0  0  0  0  0  0  0  0  0  0  0
   -0.0336   -7.6008    1.1192 C   0  0  0  0  0  0  0  0  0  0  0  0
    0.2372   -5.3187    1.4331 O   0  0  0  0  0  0  0  0  0  0  0  0
    0.9036  -12.3282    3.9315 C   0  0  0  0  0  0  0  0  0  0  0  0
    2.0638  -11.8679    4.9407 C   0  0  0  0  0  0  0  0  0  0  0  0
   -1.2861   -8.0691    1.1027 C   0  0  0  0  0  0  0  0  0  0  0  0
   -1.7507   -9.1250    0.1641 C   0  0  0  0  0  0  0  0  0  0  0  0
   -1.3611  -10.4202    0.4587 C   0  0  0  0  0  0  0  0  0  0  0  0
   -1.9656  -11.1147    1.3272 C   0  0  0  0  0  0  0  0  0  0  0  0
   -1.6386  -12.5464    1.4419 C   0  0  0  0  0  0  0  0  0  0  0  0
   -0.7280  -13.0450    0.6170 C   0  0  0  0  0  0  0  0  0  0  0  0
   -0.1311  -12.3455   -0.3203 C   0  0  0  0  0  0  0  0  0  0  0  0
  1  2  1  0
  1  3  1  0
  3  4  1  0
  4  5  1  0
  2  6  1  6
  4  7  2  0
  2  8  1  0
  8  9  1  0
  8 10  2  0
  7 11  1  0
  5 12  2  0
 11 12  1  0
  9 13  2  3
 13 14  1  0
 14 15  1  0
 15 16  2  3
 16 17  1  0
 17 18  2  3
 18 19  1  0
M  END

$$$$
No_913-/export/home/yangzhenyu/potential_scad_32_flow//YTHDC2/2024-12-06-03-22-00/
     RDKit          3D

 18 17  0  0  1  0  0  0  0  0999 V2000
    1.1787   -8.0297    3.5154 C   0  0  0  0  0  0  0  0  0  0  0  0
    1.0491   -6.8434    2.9820 C   0  0  1  0  0  0  0  0  0  0  0  0
    0.9905   -9.0774    2.6527 C   0  0  0  0  0  0  0  0  0  0  0  0
    1.1655  -10.4663    3.1286 C   0  0  2  0  0  0  0  0  0  0  0  0
    1.7409  -10.6480    4.4599 C   0  0  0  0  0  0  0  0  0  0  0  0
    1.6536   -5.6667    3.5105 N   0  0  0  0  0  0  0  0  0  0  0  0
    0.5630   -6.5950    1.7693 C   0  0  0  0  0  0  0  0  0  0  0  0
    0.6229   -7.3207    0.8628 O   0  0  0  0  0  0  0  0  0  0  0  0
    0.1352   -5.2812    1.5503 N   0  0  0  0  0  0  0  0  0  0  0  0
    1.8074  -11.3536    2.1292 C   0  0  0  0  0  0  0  0  0  0  0  0
    1.7937  -10.7577    0.8252 C   0  0  0  0  0  0  0  0  0  0  0  0
    2.7076  -10.1359    0.2331 O   0  0  0  0  0  0  0  0  0  0  0  0
    0.6851  -11.1896    0.0750 O   0  0  0  0  0  0  0  0  0  0  0  0
    2.2557  -12.0060    4.6464 O   0  0  0  0  0  0  0  0  0  0  0  0
   -0.3737   -4.9284    0.3811 C   0  0  0  0  0  0  0  0  0  0  0  0
   -0.2911   -3.6977   -0.0695 C   0  0  0  0  0  0  0  0  0  0  0  0
   -0.9802   -3.3366   -1.1918 C   0  0  0  0  0  0  0  0  0  0  0  0
   -1.6816   -4.2142   -1.8450 C   0  0  0  0  0  0  0  0  0  0  0  0
  1  2  1  0
  1  3  2  3
  3  4  1  0
  4  5  1  0
  2  6  1  6
  2  7  1  0
  7  8  2  0
  7  9  1  0
  4 10  1  6
 10 11  1  0
 11 12  1  0
 11 13  2  0
  5 14  2  0
  9 15  1  0
 15 16  1  0
 16 17  2  3
 17 18  1  0
M  END

$$$$
No_914-/export/home/yangzhenyu/potential_scad_32_flow//YTHDC2/2024-12-06-03-22-00/
     RDKit          3D

 20 20  0  0  0  0  0  0  0  0999 V2000
    1.1787   -8.0297    3.5154 C   0  0  0  0  0  0  0  0  0  0  0  0
    1.0491   -6.8434    2.9820 C   0  0  0  0  0  0  0  0  0  0  0  0
    0.0950   -8.8404    3.2292 C   0  0  0  0  0  0  0  0  0  0  0  0
   -0.9173   -8.4596    2.5152 C   0  0  0  0  0  0  0  0  0  0  0  0
   -1.0331   -7.2162    2.0653 C   0  0  0  0  0  0  0  0  0  0  0  0
   -0.0105   -6.3168    2.3081 C   0  0  0  0  0  0  0  0  0  0  0  0
    0.0485   -4.9783    1.8782 C   0  0  0  0  0  0  0  0  0  0  0  0
    0.9625   -4.1072    2.3252 N   0  0  0  0  0  0  0  0  0  0  0  0
   -0.8420   -4.3903    1.0303 N   0  0  0  0  0  0  0  0  0  0  0  0
    0.1908  -10.2865    3.6557 C   0  0  0  0  0  0  0  0  0  0  0  0
    1.2418  -10.9397    4.0873 C   0  0  0  0  0  0  0  0  0  0  0  0
    1.1300  -12.3205    4.3580 C   0  0  0  0  0  0  0  0  0  0  0  0
    1.9895  -13.0528    3.4543 C   0  0  0  0  0  0  0  0  0  0  0  0
    1.3454  -13.7554    2.3595 C   0  0  0  0  0  0  0  0  0  0  0  0
    0.5912  -13.1114    1.6045 C   0  0  0  0  0  0  0  0  0  0  0  0
    1.1602  -12.0613    0.7072 C   0  0  0  0  0  0  0  0  0  0  0  0
    0.9500  -10.8243    0.9677 C   0  0  0  0  0  0  0  0  0  0  0  0
    1.8885   -9.9414    0.2918 C   0  0  0  0  0  0  0  0  0  0  0  0
    1.9182   -8.9892   -0.2103 O   0  0  0  0  0  0  0  0  0  0  0  0
    1.6693   -4.4087    2.9807 H   0  0  0  0  0  0  0  0  0  0  0  0
  6  7  1  0
  7  8  2  0
  7  9  1  0
  3 10  1  0
 10 11  2  3
 11 12  1  0
 12 13  1  0
 13 14  1  0
 14 15  1  0
 15 16  1  0
 16 17  1  0
 17 18  1  0
 18 19  1  0
  1  2  2  0
  2  6  1  0
  5  6  2  0
  4  5  1  0
  3  4  2  0
  1  3  1  0
  8 20  1  0
M  END

$$$$
No_915-/export/home/yangzhenyu/potential_scad_32_flow//YTHDC2/2024-12-06-03-22-00/
     RDKit          3D

 18 18  0  0  0  0  0  0  0  0999 V2000
    1.1787   -8.0297    3.5154 C   0  0  0  0  0  0  0  0  0  0  0  0
    1.1048   -9.2215    3.2892 C   0  0  0  0  0  0  0  0  0  0  0  0
    1.3627  -10.1721    4.3044 C   0  0  0  0  0  0  0  0  0  0  0  0
    1.7354  -11.4730    3.9023 C   0  0  0  0  0  0  0  0  0  0  0  0
    1.8080  -11.8127    2.7216 C   0  0  0  0  0  0  0  0  0  0  0  0
    1.5854  -11.0021    1.7249 C   0  0  0  0  0  0  0  0  0  0  0  0
    1.3573   -9.7389    1.9287 C   0  0  0  0  0  0  0  0  0  0  0  0
    1.1102   -8.8712    0.9017 C   0  0  0  0  0  0  0  0  0  0  0  0
    1.5724   -9.1697   -0.3048 C   0  0  0  0  0  0  0  0  0  0  0  0
    1.2378   -8.2159   -1.4226 N   0  0  0  0  0  0  0  0  0  0  0  0
    2.1044  -13.3970    2.2926 C   0  0  0  0  0  0  0  0  0  0  0  0
    1.9855  -14.3030    3.1795 N   0  0  0  0  0  0  0  0  0  0  0  0
    2.2853  -13.6423    1.0375 O   0  0  0  0  0  0  0  0  0  0  0  0
    2.0137  -15.6214    2.9209 C   0  0  0  0  0  0  0  0  0  0  0  0
    2.1148   -7.0938    3.0785 O   0  0  0  0  0  0  0  0  0  0  0  0
   -0.0654   -7.4163    3.6022 O   0  0  0  0  0  0  0  0  0  0  0  0
    0.9103  -16.3606    3.0169 C   0  0  0  0  0  0  0  0  0  0  0  0
    0.9384  -17.6683    3.0334 O   0  0  0  0  0  0  0  0  0  0  0  0
  1  2  1  0
  7  8  1  0
  8  9  2  3
  9 10  1  0
  5 11  1  0
 11 12  1  0
 11 13  2  0
 12 14  1  0
  1 15  2  0
  1 16  1  0
 14 17  1  0
 17 18  2  0
  2  3  2  0
  3  4  1  0
  4  5  2  0
  5  6  1  0
  6  7  2  0
  2  7  1  0
M  END

$$$$
No_916-/export/home/yangzhenyu/potential_scad_32_flow//YTHDC2/2024-12-06-03-22-00/
     RDKit          3D

 19 20  0  0  1  0  0  0  0  0999 V2000
    1.1787   -8.0297    3.5154 C   0  0  0  0  0  0  0  0  0  0  0  0
    1.0491   -6.8434    2.9820 C   0  0  0  0  0  0  0  0  0  0  0  0
    0.9905   -9.0774    2.6527 Cl  0  0  0  0  0  0  0  0  0  0  0  0
    1.4019   -5.6545    3.5911 C   0  0  0  0  0  0  0  0  0  0  0  0
    2.0304   -5.5593    4.7026 O   0  0  0  0  0  0  0  0  0  0  0  0
    1.0570   -4.3795    2.9783 N   0  0  0  0  0  0  0  0  0  0  0  0
    0.6223   -4.3164    1.7196 C   0  0  0  0  0  0  0  0  0  0  0  0
    0.4698   -5.5916    1.0896 C   0  0  0  0  0  0  0  0  0  0  0  0
    0.5869   -6.7532    1.7145 C   0  0  0  0  0  0  0  0  0  0  0  0
    0.4224   -3.0856    1.1540 C   0  0  0  0  0  0  0  0  0  0  0  0
   -0.1800   -2.2021    1.3902 C   0  0  0  0  0  0  0  0  0  0  0  0
   -1.0350   -2.3508    2.4558 C   0  0  0  0  0  0  0  0  0  0  0  0
   -0.1813   -0.9363    0.6441 C   0  0  1  0  0  0  0  0  0  0  0  0
    0.5185   -0.0427    0.9825 C   0  0  0  0  0  0  0  0  0  0  0  0
    0.5734    1.2558    0.4225 C   0  0  0  0  0  0  0  0  0  0  0  0
   -0.1404    1.4500   -0.6983 C   0  0  0  0  0  0  0  0  0  0  0  0
   -0.7851    0.3113   -1.2744 C   0  0  0  0  0  0  0  0  0  0  0  0
   -0.8598   -0.8571   -0.5623 C   0  0  0  0  0  0  0  0  0  0  0  0
   -1.5753   -1.7986   -1.0813 O   0  0  0  0  0  0  0  0  0  0  0  0
  1  2  1  0
  1  3  1  0
  2  4  1  0
  4  5  2  0
  4  6  1  0
  6  7  1  0
  2  9  1  0
  8  9  1  0
  7 10  1  0
 10 11  2  3
 11 12  1  0
 11 13  1  0
 13 14  1  6
 15 16  1  0
 13 18  1  0
 17 18  1  0
 18 19  2  0
  7  8  1  0
 14 15  1  0
 16 17  1  0
M  END

$$$$
No_917-/export/home/yangzhenyu/potential_scad_32_flow//YTHDC2/2024-12-06-03-22-00/
     RDKit          3D

 16 16  0  0  1  0  0  0  0  0999 V2000
    1.1787   -8.0297    3.5154 C   0  0  0  0  0  0  0  0  0  0  0  0
    1.0491   -6.8434    2.9820 C   0  0  0  0  0  0  0  0  0  0  0  0
    1.9985   -8.9840    2.8958 C   0  0  2  0  0  0  0  0  0  0  0  0
    1.7297   -9.2108    1.6335 C   0  0  0  0  0  0  0  0  0  0  0  0
    1.7343   -8.0566    0.8408 C   0  0  2  0  0  0  0  0  0  0  0  0
    1.0269   -6.8892    1.4456 C   0  0  0  0  0  0  0  0  0  0  0  0
    2.0740   -7.9416   -0.3682 C   0  0  0  0  0  0  0  0  0  0  0  0
    2.2588   -9.0634   -1.1089 C   0  0  0  0  0  0  0  0  0  0  0  0
    3.4999   -9.2524   -1.6422 Cl  0  0  0  0  0  0  0  0  0  0  0  0
    1.9111  -10.3603    3.6088 C   0  0  2  0  0  0  0  0  0  0  0  0
    2.8869  -10.5307    4.5061 C   0  0  0  0  0  0  0  0  0  0  0  0
    1.2210  -11.4029    3.2228 C   0  0  0  0  0  0  0  0  0  0  0  0
   -0.2319  -11.2826    3.3298 C   0  0  0  0  0  0  0  0  0  0  0  0
   -1.0561  -12.1868    2.7943 O   0  0  0  0  0  0  0  0  0  0  0  0
   -0.8862  -10.4137    4.0506 O   0  0  0  0  0  0  0  0  0  0  0  0
    3.6690  -11.0889    4.8401 O   0  0  0  0  0  0  0  0  0  0  0  0
  1  2  1  0
  3  1  1  1
  3  4  1  0
  4  5  1  0
  2  6  1  0
  5  6  1  0
  5  7  1  6
  7  8  1  0
  8  9  1  0
  3 10  1  0
 10 11  1  0
 10 12  1  6
 12 13  1  0
 13 14  2  0
 13 15  1  0
 11 16  2  0
M  END

$$$$
No_918-/export/home/yangzhenyu/potential_scad_32_flow//YTHDC2/2024-12-06-03-22-00/
     RDKit          3D

 18 18  0  0  0  0  0  0  0  0999 V2000
    1.1787   -8.0297    3.5154 C   0  0  0  0  0  0  0  0  0  0  0  0
    1.0491   -6.8434    2.9820 C   0  0  0  0  0  0  0  0  0  0  0  0
    1.9985   -8.9840    2.8958 C   0  0  0  0  0  0  0  0  0  0  0  0
    1.1815  -10.1889    2.5497 C   0  0  0  0  0  0  0  0  0  0  0  0
    0.3496  -10.1352    1.6536 C   0  0  0  0  0  0  0  0  0  0  0  0
    0.2726  -10.8443    0.9221 C   0  0  0  0  0  0  0  0  0  0  0  0
    0.8884  -12.2473    1.0851 C   0  0  0  0  0  0  0  0  0  0  0  0
    1.9321  -12.4155    1.9755 C   0  0  0  0  0  0  0  0  0  0  0  0
    2.0858  -11.2296    2.8823 C   0  0  0  0  0  0  0  0  0  0  0  0
    0.2681   -6.5509    1.8745 C   0  0  0  0  0  0  0  0  0  0  0  0
    0.4622   -6.0080    0.7348 O   0  0  0  0  0  0  0  0  0  0  0  0
   -0.9056   -7.3018    1.9179 O   0  0  0  0  0  0  0  0  0  0  0  0
    2.7804  -11.3197    4.0260 C   0  0  0  0  0  0  0  0  0  0  0  0
    2.1976  -11.0959    5.2546 O   0  0  0  0  0  0  0  0  0  0  0  0
    4.0305  -10.7606    4.0781 O   0  0  0  0  0  0  0  0  0  0  0  0
   -0.7584  -11.0643   -0.1454 O   0  0  0  0  0  0  0  0  0  0  0  0
   -0.8351   -9.9274   -0.9175 C   0  0  0  0  0  0  0  0  0  0  0  0
   -2.0526   -9.6062   -1.4191 C   0  0  0  0  0  0  0  0  0  0  0  0
  1  2  1  0
  1  3  1  0
  3  4  1  0
  2 10  1  0
 10 11  2  0
 10 12  1  0
  9 13  1  0
 13 14  1  0
 13 15  2  0
  6 16  1  0
 16 17  1  0
 17 18  1  0
  4  5  2  0
  5  6  1  0
  6  7  2  0
  7  8  1  0
  8  9  2  0
  4  9  1  0
M  END

$$$$
No_919-/export/home/yangzhenyu/potential_scad_32_flow//YTHDC2/2024-12-06-03-22-00/
     RDKit          3D

 19 19  0  0  1  0  0  0  0  0999 V2000
    1.1787   -8.0297    3.5154 C   0  0  0  0  0  0  0  0  0  0  0  0
    1.0491   -6.8434    2.9820 C   0  0  0  0  0  0  0  0  0  0  0  0
    1.0690   -9.1150    2.7206 C   0  0  0  0  0  0  0  0  0  0  0  0
    0.9689   -6.6391    1.6260 C   0  0  0  0  0  0  0  0  0  0  0  0
    0.9670   -9.0334    1.3824 C   0  0  0  0  0  0  0  0  0  0  0  0
    0.8189   -7.7113    0.8022 C   0  0  0  0  0  0  0  0  0  0  0  0
    1.2185  -10.5958    3.3076 C   0  0  1  0  0  0  0  0  0  0  0  0
    2.2773  -10.9096    3.8744 C   0  0  0  0  0  0  0  0  0  0  0  0
    0.8755   -5.3195    1.1132 O   0  0  0  0  0  0  0  0  0  0  0  0
    0.1017  -11.3225    3.3112 C   0  0  0  0  0  0  0  0  0  0  0  0
    0.3312  -12.6872    3.0821 C   0  0  0  0  0  0  0  0  0  0  0  0
    0.6233  -13.0236    1.8465 C   0  0  2  0  0  0  0  0  0  0  0  0
    0.1811  -12.5913    0.9262 C   0  0  0  0  0  0  0  0  0  0  0  0
   -0.9869  -12.5055    0.6341 C   0  0  0  0  0  0  0  0  0  0  0  0
   -1.5489  -11.4569   -0.2016 O   0  0  0  0  0  0  0  0  0  0  0  0
   -1.9589  -13.2866    1.0926 O   0  0  0  0  0  0  0  0  0  0  0  0
    2.3833  -10.7843    5.3170 O   0  0  0  0  0  0  0  0  0  0  0  0
    1.0523  -14.5186    1.7671 C   0  0  0  0  0  0  0  0  0  0  0  0
    1.8117  -15.0453    2.7052 O   0  0  0  0  0  0  0  0  0  0  0  0
  1  3  1  0
  2  4  1  0
  4  6  1  0
  5  6  1  0
  3  7  1  0
  7  8  1  1
  4  9  2  0
  7 10  1  0
 10 11  1  0
 12 11  1  1
 12 13  1  0
 13 14  1  0
 14 15  1  0
 14 16  2  0
  8 17  1  0
 12 18  1  0
 18 19  1  0
  1  2  1  0
  3  5  1  0
M  END

$$$$
No_920-/export/home/yangzhenyu/potential_scad_32_flow//YTHDC2/2024-12-06-03-22-00/
     RDKit          3D

 18 18  0  0  0  0  0  0  0  0999 V2000
    1.1787   -8.0297    3.5154 O   0  0  0  0  0  0  0  0  0  0  0  0
    0.9969   -8.9689    3.0048 C   0  0  0  0  0  0  0  0  0  0  0  0
    1.3055  -10.1056    3.6616 C   0  0  0  0  0  0  0  0  0  0  0  0
    1.1249  -11.3503    3.0941 C   0  0  0  0  0  0  0  0  0  0  0  0
    0.6932  -11.4484    1.8586 C   0  0  0  0  0  0  0  0  0  0  0  0
    0.5498  -10.3736    1.0579 C   0  0  0  0  0  0  0  0  0  0  0  0
    0.7643   -9.1185    1.6383 C   0  0  0  0  0  0  0  0  0  0  0  0
    0.5937   -7.8467    1.0482 C   0  0  0  0  0  0  0  0  0  0  0  0
   -0.4358   -7.6746    0.4159 O   0  0  0  0  0  0  0  0  0  0  0  0
    1.6386   -7.1686    0.4707 O   0  0  0  0  0  0  0  0  0  0  0  0
    1.1671  -12.6321    3.8527 C   0  0  0  0  0  0  0  0  0  0  0  0
    0.4402  -13.7448    3.2108 F   0  0  0  0  0  0  0  0  0  0  0  0
    0.4988  -12.5191    4.9846 F   0  0  0  0  0  0  0  0  0  0  0  0
    2.3354  -12.9649    3.9578 Br  0  0  0  0  0  0  0  0  0  0  0  0
    0.4691  -12.6210    1.0465 Cl  0  0  0  0  0  0  0  0  0  0  0  0
    0.2854  -10.3855   -0.3039 C   0  0  0  0  0  0  0  0  0  0  0  0
    1.0540   -9.8531   -1.2025 O   0  0  0  0  0  0  0  0  0  0  0  0
   -0.9616  -10.6690   -0.7611 O   0  0  0  0  0  0  0  0  0  0  0  0
  1  2  1  0
  7  8  1  0
  8  9  2  0
  8 10  1  0
  4 11  1  0
 11 12  1  0
 11 13  1  0
 11 14  1  0
  5 15  1  0
  6 16  1  0
 16 17  1  0
 16 18  2  0
  2  3  2  0
  3  4  1  0
  4  5  2  0
  5  6  1  0
  6  7  2  0
  2  7  1  0
M  END

$$$$
No_921-/export/home/yangzhenyu/potential_scad_32_flow//YTHDC2/2024-12-06-03-22-00/
     RDKit          3D

 19 19  0  0  1  0  0  0  0  0999 V2000
    1.1787   -8.0297    3.5154 C   0  0  0  0  0  0  0  0  0  0  0  0
    1.0491   -6.8434    2.9820 C   0  0  2  0  0  0  0  0  0  0  0  0
    1.9985   -8.9840    2.8958 C   0  0  2  0  0  0  0  0  0  0  0  0
    1.7297   -9.2108    1.6335 C   0  0  0  0  0  0  0  0  0  0  0  0
    1.7343   -8.0566    0.8408 C   0  0  2  0  0  0  0  0  0  0  0  0
    1.0268   -6.8892    1.4456 C   0  0  0  0  0  0  0  0  0  0  0  0
    1.7596   -8.0979   -0.4723 C   0  0  0  0  0  0  0  0  0  0  0  0
    0.8317   -7.8698   -1.2086 O   0  0  0  0  0  0  0  0  0  0  0  0
    2.9935   -8.1987   -1.1162 Cl  0  0  0  0  0  0  0  0  0  0  0  0
    1.9814  -10.3621    3.5935 C   0  0  0  0  0  0  0  0  0  0  0  0
    1.1952  -11.3271    3.3837 O   0  0  0  0  0  0  0  0  0  0  0  0
    2.9095  -10.5245    4.6276 N   0  0  0  0  0  0  0  0  0  0  0  0
    1.8047   -5.6911    3.3863 O   0  0  0  0  0  0  0  0  0  0  0  0
    1.3289   -4.4203    3.0216 C   0  0  0  0  0  0  0  0  0  0  0  0
    3.0667  -11.7718    5.2272 N   0  0  0  0  0  0  0  0  0  0  0  0
    2.0985  -10.3403    1.0304 O   0  0  0  0  0  0  0  0  0  0  0  0
    4.3896  -12.0933    5.0886 C   0  0  0  0  0  0  0  0  0  0  0  0
    5.3744  -11.0382    5.2743 O   0  0  0  0  0  0  0  0  0  0  0  0
    0.5916   -3.7852    4.0871 C   0  0  0  0  0  0  0  0  0  0  0  0
  1  2  1  0
  1  3  1  0
  3  4  1  0
  4  5  1  0
  2  6  1  0
  5  6  1  0
  5  7  1  6
  7  8  2  0
  7  9  1  0
  3 10  1  1
 10 11  2  0
 10 12  1  0
  2 13  1  6
 13 14  1  0
 12 15  1  0
  4 16  2  0
 15 17  1  0
 17 18  2  0
 14 19  1  0
M  END

$$$$
No_922-/export/home/yangzhenyu/potential_scad_32_flow//YTHDC2/2024-12-06-03-22-00/
     RDKit          3D

 18 18  0  0  0  0  0  0  0  0999 V2000
    1.1787   -8.0297    3.5154 C   0  0  0  0  0  0  0  0  0  0  0  0
    1.1048   -9.2215    3.2892 C   0  0  0  0  0  0  0  0  0  0  0  0
    1.3627  -10.1721    4.3044 C   0  0  0  0  0  0  0  0  0  0  0  0
    1.7354  -11.4730    3.9023 C   0  0  0  0  0  0  0  0  0  0  0  0
    1.6166  -11.5515    2.5159 C   0  0  0  0  0  0  0  0  0  0  0  0
    1.4172  -10.6242    1.6178 C   0  0  0  0  0  0  0  0  0  0  0  0
    1.5676  -11.0724    0.2067 C   0  0  0  0  0  0  0  0  0  0  0  0
    1.2059   -9.4176    1.9220 C   0  0  0  0  0  0  0  0  0  0  0  0
    1.1185   -8.4428    1.1163 C   0  0  0  0  0  0  0  0  0  0  0  0
    0.4161   -7.3840    1.2594 O   0  0  0  0  0  0  0  0  0  0  0  0
    2.0484   -8.1851    0.0206 N   0  0  0  0  0  0  0  0  0  0  0  0
    1.9286  -12.9671    2.0578 C   0  0  0  0  0  0  0  0  0  0  0  0
    2.2966  -13.3250    1.0006 O   0  0  0  0  0  0  0  0  0  0  0  0
    1.8513  -14.0865    2.9531 O   0  0  0  0  0  0  0  0  0  0  0  0
    2.0464  -15.3479    2.4823 C   0  0  0  0  0  0  0  0  0  0  0  0
    1.0480  -16.2405    2.7146 C   0  0  0  0  0  0  0  0  0  0  0  0
    0.0189  -15.7316    3.2508 C   0  0  0  0  0  0  0  0  0  0  0  0
   -0.8867  -16.7230    3.7486 C   0  0  0  0  0  0  0  0  0  0  0  0
  1  2  1  0
  6  7  1  0
  8  9  1  0
  9 10  2  0
  9 11  1  0
  5 12  1  0
 12 13  2  0
 12 14  1  0
 14 15  1  0
 15 16  1  0
 16 17  1  0
 17 18  2  0
  2  3  2  0
  3  4  1  0
  4  5  2  0
  5  6  1  0
  6  8  2  0
  2  8  1  0
M  END

$$$$
No_923-/export/home/yangzhenyu/potential_scad_32_flow//YTHDC2/2024-12-06-03-22-00/
     RDKit          3D

 19 19  0  0  1  0  0  0  0  0999 V2000
    1.1787   -8.0297    3.5154 C   0  0  2  0  0  0  0  0  0  0  0  0
    1.0491   -6.8434    2.9820 Cl  0  0  0  0  0  0  0  0  0  0  0  0
    2.1643   -8.9961    3.0118 C   0  0  0  0  0  0  0  0  0  0  0  0
    2.0542  -10.3454    3.7325 C   0  0  2  0  0  0  0  0  0  0  0  0
    1.0539  -10.6340    4.5979 C   0  0  0  0  0  0  0  0  0  0  0  0
   -0.0044   -9.7649    4.6652 C   0  0  1  0  0  0  0  0  0  0  0  0
   -0.0119   -8.5383    4.1066 C   0  0  0  0  0  0  0  0  0  0  0  0
   -1.0182   -7.7174    4.3477 O   0  0  0  0  0  0  0  0  0  0  0  0
    3.1993  -11.1648    3.5669 C   0  0  0  0  0  0  0  0  0  0  0  0
    3.2225  -12.1347    4.6567 N   0  0  0  0  0  0  0  0  0  0  0  0
    3.9118  -11.5186    5.6124 C   0  0  0  0  0  0  0  0  0  0  0  0
    4.4978  -10.4299    5.7893 O   0  0  0  0  0  0  0  0  0  0  0  0
   -1.1584  -10.2433    5.2876 C   0  0  0  0  0  0  0  0  0  0  0  0
   -1.9940  -11.2636    4.7185 O   0  0  0  0  0  0  0  0  0  0  0  0
   -1.8509   -9.6475    6.1758 O   0  0  0  0  0  0  0  0  0  0  0  0
   -3.2329   -9.2130    6.0352 C   0  0  0  0  0  0  0  0  0  0  0  0
   -3.7641   -8.1210    6.9034 C   0  0  0  0  0  0  0  0  0  0  0  0
   -4.6984   -8.0055    7.2607 O   0  0  0  0  0  0  0  0  0  0  0  0
   -4.9787   -7.8260    8.5900 C   0  0  0  0  0  0  0  0  0  0  0  0
  1  2  1  6
  1  3  1  0
  4  5  1  0
  1  7  1  0
  6  7  1  0
  7  8  2  0
  4  9  1  1
  9 10  1  0
 10 11  1  0
 11 12  2  0
  6 13  1  6
 13 14  2  0
 13 15  1  0
 15 16  1  0
 16 17  1  0
 17 18  1  0
 18 19  1  0
  3  4  1  0
  5  6  1  0
M  END

$$$$
No_924-/export/home/yangzhenyu/potential_scad_32_flow//YTHDC2/2024-12-06-03-22-00/
     RDKit          3D

 20 21  0  0  1  0  0  0  0  0999 V2000
    1.1787   -8.0297    3.5154 C   0  0  0  0  0  0  0  0  0  0  0  0
    1.0491   -6.8434    2.9820 C   0  0  0  0  0  0  0  0  0  0  0  0
    0.9905   -9.0774    2.6527 C   0  0  0  0  0  0  0  0  0  0  0  0
    0.7897   -8.9519    1.3691 C   0  0  0  0  0  0  0  0  0  0  0  0
    0.7018   -7.7198    0.7892 C   0  0  0  0  0  0  0  0  0  0  0  0
    0.8918   -6.5957    1.6117 C   0  0  0  0  0  0  0  0  0  0  0  0
    1.0711  -10.4814    3.2282 C   0  0  2  0  0  0  0  0  0  0  0  0
    2.1432  -11.0138    3.5962 C   0  0  0  0  0  0  0  0  0  0  0  0
   -0.0553  -11.2345    3.2841 C   0  0  1  0  0  0  0  0  0  0  0  0
   -1.2156  -10.5474    3.8659 O   0  0  0  0  0  0  0  0  0  0  0  0
    2.3787  -11.6300    4.5954 O   0  0  0  0  0  0  0  0  0  0  0  0
    0.8486   -5.2872    1.1070 O   0  0  0  0  0  0  0  0  0  0  0  0
   -0.5403  -11.7887    1.9887 C   0  0  0  0  0  0  0  0  0  0  0  0
    0.3043  -12.7284    1.4593 C   0  0  0  0  0  0  0  0  0  0  0  0
    0.5698  -13.8231    2.1698 C   0  0  0  0  0  0  0  0  0  0  0  0
    1.9082  -14.3367    2.4783 C   0  0  0  0  0  0  0  0  0  0  0  0
    2.3375  -15.4775    1.6935 C   0  0  0  0  0  0  0  0  0  0  0  0
    1.5113  -16.6411    2.1343 N   0  0  0  0  0  0  0  0  0  0  0  0
   -0.4382  -14.7067    2.4637 C   0  0  0  0  0  0  0  0  0  0  0  0
    0.0282  -16.2373    1.9584 C   0  0  0  0  0  0  0  0  0  0  0  0
  3  7  1  0
  7  8  1  6
  7  9  1  0
  9 10  1  6
  8 11  2  0
  6 12  1  0
  9 13  1  0
 13 14  1  0
 14 15  1  0
 15 16  1  0
 16 17  1  0
 17 18  1  0
 15 19  1  0
 18 20  1  0
 19 20  1  0
  1  2  2  0
  2  6  1  0
  5  6  2  0
  4  5  1  0
  3  4  2  0
  1  3  1  0
M  END

$$$$
No_925-/export/home/yangzhenyu/potential_scad_32_flow//YTHDC2/2024-12-06-03-22-00/
     RDKit          3D

 19 18  0  0  1  0  0  0  0  0999 V2000
    1.1787   -8.0297    3.5154 C   0  0  0  0  0  0  0  0  0  0  0  0
    1.1048   -9.2215    3.2892 P   0  0  1  0  0  0  0  0  0  0  0  0
    1.2211  -10.0703    4.4625 O   0  0  0  0  0  0  0  0  0  0  0  0
   -0.3247   -9.5757    2.6396 O   0  0  0  0  0  0  0  0  0  0  0  0
    0.5453   -6.9224    2.4727 C   0  0  0  0  0  0  0  0  0  0  0  0
    0.8217   -5.5096    2.5225 C   0  0  0  0  0  0  0  0  0  0  0  0
    2.1169   -9.8936    2.2487 O   0  0  0  0  0  0  0  0  0  0  0  0
    1.4999   -5.0400    3.5870 O   0  0  0  0  0  0  0  0  0  0  0  0
    0.5721   -4.6258    1.7153 O   0  0  0  0  0  0  0  0  0  0  0  0
    1.9874  -11.5202    4.5452 C   0  0  0  0  0  0  0  0  0  0  0  0
    1.0553  -12.5151    4.1527 C   0  0  0  0  0  0  0  0  0  0  0  0
    1.7072  -13.5315    3.3173 C   0  0  0  0  0  0  0  0  0  0  0  0
    0.8646  -14.6608    3.0593 C   0  0  0  0  0  0  0  0  0  0  0  0
   -0.2162  -14.5035    2.5238 O   0  0  0  0  0  0  0  0  0  0  0  0
    1.2043  -15.8229    3.5844 O   0  0  0  0  0  0  0  0  0  0  0  0
    0.8113  -16.9624    2.9825 C   0  0  0  0  0  0  0  0  0  0  0  0
    1.4099  -17.9433    3.3215 C   0  0  0  0  0  0  0  0  0  0  0  0
    2.8199  -18.1126    2.9489 O   0  0  0  0  0  0  0  0  0  0  0  0
    1.0450  -18.9965    3.8922 O   0  0  0  0  0  0  0  0  0  0  0  0
  1  2  1  0
  2  3  1  0
  2  4  2  0
  1  5  2  3
  5  6  1  0
  2  7  1  6
  6  8  1  0
  6  9  2  0
  3 10  1  0
 10 11  1  0
 11 12  1  0
 12 13  1  0
 13 14  2  0
 13 15  1  0
 15 16  1  0
 16 17  1  0
 17 18  2  0
 17 19  1  0
M  END

$$$$
No_926-/export/home/yangzhenyu/potential_scad_32_flow//YTHDC2/2024-12-06-03-22-00/
     RDKit          3D

 18 18  0  0  1  0  0  0  0  0999 V2000
    1.1787   -8.0297    3.5154 O   0  0  0  0  0  0  0  0  0  0  0  0
    0.9969   -8.9689    3.0048 C   0  0  1  0  0  0  0  0  0  0  0  0
    0.9976   -8.9567    1.6341 C   0  0  2  0  0  0  0  0  0  0  0  0
    1.6062   -9.9071    0.9292 C   0  0  0  0  0  0  0  0  0  0  0  0
    2.1191  -10.9757    1.6503 C   0  0  0  0  0  0  0  0  0  0  0  0
    2.1177  -10.9891    3.0403 C   0  0  0  0  0  0  0  0  0  0  0  0
    1.5441   -9.8905    3.6897 C   0  0  0  0  0  0  0  0  0  0  0  0
    0.5010   -7.8164    1.0436 C   0  0  0  0  0  0  0  0  0  0  0  0
    1.0624   -6.6356    1.1779 O   0  0  0  0  0  0  0  0  0  0  0  0
   -0.4567   -7.7893    0.1161 N   0  0  0  0  0  0  0  0  0  0  0  0
    1.6302  -10.1476    5.0158 O   0  0  0  0  0  0  0  0  0  0  0  0
   -1.1013   -9.0423   -0.2817 C   0  0  0  0  0  0  0  0  0  0  0  0
   -2.2782   -9.3888    0.4644 C   0  0  0  0  0  0  0  0  0  0  0  0
   -3.0340   -8.4196    0.9285 C   0  0  0  0  0  0  0  0  0  0  0  0
   -3.6360   -7.4755    0.1950 C   0  0  0  0  0  0  0  0  0  0  0  0
   -4.0885   -7.8078   -0.9871 C   0  0  0  0  0  0  0  0  0  0  0  0
   -3.6545   -7.2300   -2.1084 C   0  0  0  0  0  0  0  0  0  0  0  0
   -3.1576   -5.9270   -2.0877 C   0  0  0  0  0  0  0  0  0  0  0  0
  2  1  1  1
  2  3  1  0
  4  5  1  0
  2  7  1  0
  6  7  1  0
  3  8  1  1
  8  9  2  0
  8 10  1  0
  7 11  2  0
 10 12  1  0
 12 13  1  0
 13 14  1  0
 14 15  1  0
 15 16  1  0
 16 17  1  0
 17 18  1  0
  3  4  1  0
  5  6  1  0
M  END

$$$$
No_927-/export/home/yangzhenyu/potential_scad_32_flow//YTHDC2/2024-12-06-03-22-00/
     RDKit          3D

 19 19  0  0  1  0  0  0  0  0999 V2000
    1.1787   -8.0297    3.5154 C   0  0  2  0  0  0  0  0  0  0  0  0
    1.0491   -6.8434    2.9820 C   0  0  0  0  0  0  0  0  0  0  0  0
    1.9985   -8.9840    2.8958 C   0  0  2  0  0  0  0  0  0  0  0  0
    1.7297   -9.2108    1.6335 C   0  0  0  0  0  0  0  0  0  0  0  0
    1.7343   -8.0566    0.8408 C   0  0  2  0  0  0  0  0  0  0  0  0
    1.0269   -6.8892    1.4456 C   0  0  0  0  0  0  0  0  0  0  0  0
    1.7596   -8.0979   -0.4723 C   0  0  0  0  0  0  0  0  0  0  0  0
    0.8317   -7.8698   -1.2086 O   0  0  0  0  0  0  0  0  0  0  0  0
    2.9935   -8.1987   -1.1162 O   0  0  0  0  0  0  0  0  0  0  0  0
    2.3840  -10.1834    3.6374 C   0  0  0  0  0  0  0  0  0  0  0  0
    1.7457  -11.0617    4.1347 O   0  0  0  0  0  0  0  0  0  0  0  0
    3.7650  -10.3325    3.9445 O   0  0  0  0  0  0  0  0  0  0  0  0
    0.9210   -5.6536    3.5088 O   0  0  0  0  0  0  0  0  0  0  0  0
    1.8205  -10.3756    1.0251 O   0  0  0  0  0  0  0  0  0  0  0  0
    0.7715   -5.7286    0.8614 O   0  0  0  0  0  0  0  0  0  0  0  0
    4.1216  -11.0814    4.9975 C   0  0  0  0  0  0  0  0  0  0  0  0
    5.4996  -11.3777    4.9251 O   0  0  0  0  0  0  0  0  0  0  0  0
    3.6229  -10.8847    6.1240 O   0  0  0  0  0  0  0  0  0  0  0  0
   -0.1742   -8.3811    3.8476 O   0  0  0  0  0  0  0  0  0  0  0  0
  1  2  1  0
  1  3  1  0
  3  4  1  0
  4  5  1  0
  2  6  1  0
  5  6  1  0
  5  7  1  6
  7  8  2  0
  7  9  1  0
  3 10  1  1
 10 11  2  0
 10 12  1  0
  2 13  2  0
  4 14  2  0
  6 15  2  0
 12 16  1  0
 16 17  2  0
 16 18  1  0
  1 19  1  6
M  END

$$$$
No_928-/export/home/yangzhenyu/potential_scad_32_flow//YTHDC2/2024-12-06-03-22-00/
     RDKit          3D

 15 15  0  0  1  0  0  0  0  0999 V2000
    1.1787   -8.0297    3.5154 C   0  0  0  0  0  0  0  0  0  0  0  0
    1.0491   -6.8434    2.9820 C   0  0  0  0  0  0  0  0  0  0  0  0
    1.9985   -8.9840    2.8958 C   0  0  2  0  0  0  0  0  0  0  0  0
    1.7297   -9.2108    1.6335 C   0  0  0  0  0  0  0  0  0  0  0  0
    1.7343   -8.0566    0.8408 C   0  0  2  0  0  0  0  0  0  0  0  0
    1.0269   -6.8892    1.4456 C   0  0  0  0  0  0  0  0  0  0  0  0
    1.7596   -8.0979   -0.4723 C   0  0  0  0  0  0  0  0  0  0  0  0
    2.7309   -8.8718   -1.0817 O   0  0  0  0  0  0  0  0  0  0  0  0
    0.9162   -8.0111   -1.3179 O   0  0  0  0  0  0  0  0  0  0  0  0
    1.9733  -10.3593    3.5850 C   0  0  0  0  0  0  0  0  0  0  0  0
    2.9330  -10.5216    4.4803 O   0  0  0  0  0  0  0  0  0  0  0  0
    1.6224  -11.4763    2.9751 O   0  0  0  0  0  0  0  0  0  0  0  0
    0.8773   -5.6600    3.5106 O   0  0  0  0  0  0  0  0  0  0  0  0
    1.1387   -5.6030    0.8930 O   0  0  0  0  0  0  0  0  0  0  0  0
    2.0350  -10.3008    1.0418 O   0  0  0  0  0  0  0  0  0  0  0  0
  1  2  1  0
  1  3  1  0
  3  4  1  0
  4  5  1  0
  2  6  1  0
  5  6  1  0
  5  7  1  6
  7  8  1  0
  7  9  2  0
  3 10  1  1
 10 11  1  0
 10 12  2  0
  2 13  2  0
  6 14  2  0
  4 15  2  0
M  END

$$$$
No_929-/export/home/yangzhenyu/potential_scad_32_flow//YTHDC2/2024-12-06-03-22-00/
     RDKit          3D

 18 18  0  0  1  0  0  0  0  0999 V2000
    1.1787   -8.0297    3.5154 C   0  0  0  0  0  0  0  0  0  0  0  0
    1.0491   -6.8434    2.9820 C   0  0  2  0  0  0  0  0  0  0  0  0
    1.9985   -8.9840    2.8958 C   0  0  2  0  0  0  0  0  0  0  0  0
    1.7297   -9.2108    1.6335 C   0  0  0  0  0  0  0  0  0  0  0  0
    1.7343   -8.0566    0.8408 C   0  0  0  0  0  0  0  0  0  0  0  0
    1.0269   -6.8892    1.4456 C   0  0  0  0  0  0  0  0  0  0  0  0
    2.0740   -7.9416   -0.3682 C   0  0  0  0  0  0  0  0  0  0  0  0
    2.2588   -9.0634   -1.1089 C   0  0  0  0  0  0  0  0  0  0  0  0
    1.3343   -9.8745   -1.3425 O   0  0  0  0  0  0  0  0  0  0  0  0
    3.4329   -9.1682   -1.7939 O   0  0  0  0  0  0  0  0  0  0  0  0
    1.9284  -10.3463    3.6400 C   0  0  0  0  0  0  0  0  0  0  0  0
    1.1514  -11.2421    3.4972 O   0  0  0  0  0  0  0  0  0  0  0  0
    3.0869  -10.6056    4.3799 O   0  0  0  0  0  0  0  0  0  0  0  0
    0.0291   -6.2851    0.9671 O   0  0  0  0  0  0  0  0  0  0  0  0
    1.1611   -5.5839    3.4293 C   0  0  0  0  0  0  0  0  0  0  0  0
    2.4095   -5.1248    3.8737 O   0  0  0  0  0  0  0  0  0  0  0  0
    0.2449   -4.7033    3.3589 O   0  0  0  0  0  0  0  0  0  0  0  0
    2.5188  -10.2646    1.0329 O   0  0  0  0  0  0  0  0  0  0  0  0
  1  2  1  0
  1  3  1  0
  3  4  1  0
  4  5  1  0
  2  6  1  0
  5  6  1  0
  5  7  1  0
  7  8  1  0
  8  9  1  0
  8 10  2  0
  3 11  1  1
 11 12  2  0
 11 13  1  0
  6 14  2  0
  2 15  1  6
 15 16  1  0
 15 17  2  0
  4 18  2  0
M  END

$$$$
No_930-/export/home/yangzhenyu/potential_scad_32_flow//YTHDC2/2024-12-06-03-22-00/
     RDKit          3D

 18 18  0  0  1  0  0  0  0  0999 V2000
    1.1787   -8.0297    3.5154 C   0  0  0  0  0  0  0  0  0  0  0  0
    1.0491   -6.8434    2.9820 C   0  0  0  0  0  0  0  0  0  0  0  0
    0.9905   -9.0774    2.6527 C   0  0  0  0  0  0  0  0  0  0  0  0
    0.7897   -8.9519    1.3691 C   0  0  0  0  0  0  0  0  0  0  0  0
    0.7018   -7.7198    0.7892 C   0  0  0  0  0  0  0  0  0  0  0  0
    0.8918   -6.5957    1.6117 C   0  0  0  0  0  0  0  0  0  0  0  0
    1.0774  -10.6059    3.3145 C   0  0  1  0  0  0  0  0  0  0  0  0
    2.1444  -11.0408    3.6446 C   0  0  0  0  0  0  0  0  0  0  0  0
   -0.0296  -10.6866    4.2784 P   0  0  0  0  0  0  0  0  0  0  0  0
   -0.0410  -12.0472    4.5881 O   0  0  0  0  0  0  0  0  0  0  0  0
    0.2423   -9.8618    5.4878 O   0  0  0  0  0  0  0  0  0  0  0  0
   -1.4333  -10.3607    3.6731 O   0  0  0  0  0  0  0  0  0  0  0  0
    0.8164   -5.0980    1.0325 O   0  0  0  0  0  0  0  0  0  0  0  0
    1.2652   -4.1622    1.8649 C   0  0  0  0  0  0  0  0  0  0  0  0
    2.6970  -11.9769    3.0347 O   0  0  0  0  0  0  0  0  0  0  0  0
    2.0204  -12.2970    1.7647 C   0  0  0  0  0  0  0  0  0  0  0  0
    1.7494  -11.5154    0.9515 C   0  0  0  0  0  0  0  0  0  0  0  0
    2.0252  -13.7834    1.5614 C   0  0  0  0  0  0  0  0  0  0  0  0
  3  7  1  0
  7  8  1  1
  7  9  1  0
  9 10  1  0
  9 11  1  0
  9 12  2  0
  6 13  1  0
 13 14  1  0
  8 15  1  0
 15 16  1  0
 16 17  1  0
 16 18  1  0
  1  2  2  0
  2  6  1  0
  5  6  2  0
  4  5  1  0
  3  4  2  0
  1  3  1  0
M  END

$$$$
No_931-/export/home/yangzhenyu/potential_scad_32_flow//YTHDC2/2024-12-06-03-22-00/
     RDKit          3D

 18 19  0  0  1  0  0  0  0  0999 V2000
    1.1787   -8.0297    3.5154 C   0  0  0  0  0  0  0  0  0  0  0  0
    1.1048   -9.2215    3.2892 C   0  0  2  0  0  0  0  0  0  0  0  0
    1.3627  -10.1721    4.3044 C   0  0  0  0  0  0  0  0  0  0  0  0
    1.0682  -11.5187    4.0618 C   0  0  0  0  0  0  0  0  0  0  0  0
    0.6332  -11.9655    2.9682 C   0  0  2  0  0  0  0  0  0  0  0  0
    0.4719  -13.4293    2.7591 C   0  0  2  0  0  0  0  0  0  0  0  0
   -0.2373  -13.9045    1.9156 N   0  0  0  0  0  0  0  0  0  0  0  0
    0.7368  -11.0505    1.9835 C   0  0  0  0  0  0  0  0  0  0  0  0
    0.3076  -11.6996    0.6264 C   0  0  0  0  0  0  0  0  0  0  0  0
   -0.1373  -13.1630    0.7214 C   0  0  0  0  0  0  0  0  0  0  0  0
    1.0607   -9.8368    1.8441 C   0  0  0  0  0  0  0  0  0  0  0  0
    0.8395   -8.9361    0.9206 O   0  0  0  0  0  0  0  0  0  0  0  0
    0.2124   -7.1027    3.3098 O   0  0  0  0  0  0  0  0  0  0  0  0
   -0.5199  -13.7073   -0.4506 O   0  0  0  0  0  0  0  0  0  0  0  0
    0.9449  -14.3233    3.7822 N   0  0  0  0  0  0  0  0  0  0  0  0
   -0.9745   -7.4536    3.0823 C   0  0  0  0  0  0  0  0  0  0  0  0
   -1.5338   -6.9946    1.9470 C   0  0  0  0  0  0  0  0  0  0  0  0
   -2.2138   -7.7357    1.2117 O   0  0  0  0  0  0  0  0  0  0  0  0
  2  1  1  6
  2  3  1  0
  5  4  1  1
  5  6  1  0
  5  8  1  0
  8  9  1  0
  7 10  1  0
  9 10  1  0
  2 11  1  0
  8 11  1  0
 11 12  2  0
  1 13  1  0
 10 14  2  0
  6 15  1  1
 13 16  1  0
 16 17  1  0
 17 18  2  0
  6  7  1  0
  3  4  1  0
M  END

$$$$
No_932-/export/home/yangzhenyu/potential_scad_32_flow//YTHDC2/2024-12-06-03-22-00/
     RDKit          3D

 18 18  0  0  1  0  0  0  0  0999 V2000
    1.1787   -8.0297    3.5154 Cl  0  0  0  0  0  0  0  0  0  0  0  0
    0.6986   -7.2038    2.6409 C   0  0  1  0  0  0  0  0  0  0  0  0
    0.4102   -5.8836    2.8581 C   0  0  0  0  0  0  0  0  0  0  0  0
    0.4771   -4.9184    1.7890 C   0  0  1  0  0  0  0  0  0  0  0  0
    0.9611   -5.2964    0.6115 C   0  0  0  0  0  0  0  0  0  0  0  0
    1.4349   -7.1689    1.1800 C   0  0  2  0  0  0  0  0  0  0  0  0
    1.5048   -6.2485    0.3281 C   0  0  0  0  0  0  0  0  0  0  0  0
    1.9630   -8.5528    0.9485 C   0  0  0  0  0  0  0  0  0  0  0  0
    1.8405   -9.6191    1.6158 O   0  0  0  0  0  0  0  0  0  0  0  0
    2.3883   -8.7756   -0.4269 O   0  0  0  0  0  0  0  0  0  0  0  0
   -0.1791   -3.3894    2.2299 Cl  0  0  0  0  0  0  0  0  0  0  0  0
    0.9683   -4.0971   -0.1646 O   0  0  0  0  0  0  0  0  0  0  0  0
   -0.3687   -7.9105    2.1273 O   0  0  0  0  0  0  0  0  0  0  0  0
   -1.5623   -7.4300    1.5127 C   0  0  0  0  0  0  0  0  0  0  0  0
   -2.5032   -7.5784    1.1948 C   0  0  0  0  0  0  0  0  0  0  0  0
   -3.3946   -6.9707    0.2974 C   0  0  0  0  0  0  0  0  0  0  0  0
   -2.4752   -5.8745   -0.2162 C   0  0  0  0  0  0  0  0  0  0  0  0
   -2.9441   -5.0028   -1.3191 C   0  0  0  0  0  0  0  0  0  0  0  0
  2  1  1  1
  2  3  1  0
  4  5  1  0
  2  6  1  0
  5  7  1  0
  6  7  1  0
  6  8  1  6
  8  9  2  0
  8 10  1  0
  4 11  1  6
  5 12  2  0
  2 13  1  0
 13 14  1  0
 14 15  2  3
 15 16  1  0
 16 17  2  3
 17 18  1  0
  3  4  1  0
M  END

$$$$
No_933-/export/home/yangzhenyu/potential_scad_32_flow//YTHDC2/2024-12-06-03-22-00/
     RDKit          3D

 20 21  0  0  1  0  0  0  0  0999 V2000
    1.1787   -8.0297    3.5154 C   0  0  0  0  0  0  0  0  0  0  0  0
    1.0491   -6.8434    2.9820 C   0  0  0  0  0  0  0  0  0  0  0  0
    0.0950   -8.8404    3.2292 C   0  0  0  0  0  0  0  0  0  0  0  0
   -0.9173   -8.4596    2.5152 C   0  0  0  0  0  0  0  0  0  0  0  0
   -1.0331   -7.2162    2.0653 C   0  0  0  0  0  0  0  0  0  0  0  0
    0.1897   -6.3124    2.3579 C   0  0  0  0  0  0  0  0  0  0  0  0
    0.1723   -4.9828    1.8746 C   0  0  0  0  0  0  0  0  0  0  0  0
    0.8857   -4.0792    2.4831 O   0  0  0  0  0  0  0  0  0  0  0  0
    0.0993  -10.2750    3.6702 C   0  0  1  0  0  0  0  0  0  0  0  0
    1.1393  -10.9466    4.1228 C   0  0  0  0  0  0  0  0  0  0  0  0
    2.2835  -10.6260    4.1431 O   0  0  0  0  0  0  0  0  0  0  0  0
    0.9471  -12.2461    4.5434 O   0  0  0  0  0  0  0  0  0  0  0  0
   -0.2831   -4.5793    0.7583 O   0  0  0  0  0  0  0  0  0  0  0  0
   -1.0390  -10.8873    3.9155 C   0  0  0  0  0  0  0  0  0  0  0  0
   -2.0178  -10.3629    4.9028 C   0  0  0  0  0  0  0  0  0  0  0  0
   -3.2870  -10.9383    4.9243 N   0  0  0  0  0  0  0  0  0  0  0  0
   -3.3991  -11.7972    4.0077 C   0  0  0  0  0  0  0  0  0  0  0  0
   -2.5779  -12.1013    3.0778 N   0  0  0  0  0  0  0  0  0  0  0  0
   -1.4672  -11.7821    3.0710 C   0  0  0  0  0  0  0  0  0  0  0  0
   -4.7326  -12.4477    4.0789 N   0  0  0  0  0  0  0  0  0  0  0  0
  6  7  1  0
  7  8  1  0
  3  9  1  0
  9 10  1  1
 10 11  2  0
 10 12  1  0
  7 13  2  0
  9 14  1  0
 17 20  1  0
 14 15  2  0
 15 16  1  0
 16 17  2  0
 17 18  1  0
 18 19  2  0
 14 19  1  0
  1  2  2  0
  2  6  1  0
  5  6  2  0
  4  5  1  0
  3  4  2  0
  1  3  1  0
M  END

$$$$
No_934-/export/home/yangzhenyu/potential_scad_32_flow//YTHDC2/2024-12-06-03-22-00/
     RDKit          3D

 20 20  0  0  1  0  0  0  0  0999 V2000
    1.1787   -8.0297    3.5154 C   0  0  0  0  0  0  0  0  0  0  0  0
    1.0491   -6.8434    2.9820 C   0  0  0  0  0  0  0  0  0  0  0  0
    1.9985   -8.9840    2.8958 C   0  0  0  0  0  0  0  0  0  0  0  0
    1.1815  -10.1889    2.5497 C   0  0  1  0  0  0  0  0  0  0  0  0
    0.3496  -10.1352    1.6537 C   0  0  0  0  0  0  0  0  0  0  0  0
   -0.4562  -11.3268    1.4138 C   0  0  0  0  0  0  0  0  0  0  0  0
   -0.1834  -12.2742    1.6376 C   0  0  2  0  0  0  0  0  0  0  0  0
    1.0469  -12.6500    2.5364 C   0  0  1  0  0  0  0  0  0  0  0  0
    1.6544  -11.4674    3.0803 C   0  0  0  0  0  0  0  0  0  0  0  0
    1.8699   -5.7112    3.2702 O   0  0  0  0  0  0  0  0  0  0  0  0
    1.2728  -13.9248    3.0205 C   0  0  0  0  0  0  0  0  0  0  0  0
    2.2262  -14.6875    2.6135 O   0  0  0  0  0  0  0  0  0  0  0  0
    0.5116  -14.5208    3.9214 O   0  0  0  0  0  0  0  0  0  0  0  0
    0.4665   -6.6404    1.7812 O   0  0  0  0  0  0  0  0  0  0  0  0
   -0.9077  -13.6907    1.0561 O   0  0  0  0  0  0  0  0  0  0  0  0
   -1.7856  -13.4304    0.3219 C   0  0  0  0  0  0  0  0  0  0  0  0
   -1.3887  -13.6808   -1.0294 C   0  0  0  0  0  0  0  0  0  0  0  0
   -1.6555  -12.7929   -2.0360 O   0  0  0  0  0  0  0  0  0  0  0  0
   -0.7598  -14.8192   -1.4293 O   0  0  0  0  0  0  0  0  0  0  0  0
    2.6887  -11.6451    3.8496 O   0  0  0  0  0  0  0  0  0  0  0  0
  1  2  1  0
  1  3  1  0
  4  3  1  6
  5  6  1  0
  7  8  1  0
  4  9  1  0
  8  9  1  0
  2 10  1  0
  8 11  1  1
 11 12  2  0
 11 13  1  0
  2 14  2  0
  7 15  1  6
 15 16  1  0
 16 17  1  0
 17 18  1  0
 17 19  2  0
  9 20  2  0
  4  5  1  0
  6  7  1  0
M  END

$$$$
No_935-/export/home/yangzhenyu/potential_scad_32_flow//YTHDC2/2024-12-06-03-22-00/
     RDKit          3D

 18 19  0  0  0  0  0  0  0  0999 V2000
    1.1787   -8.0297    3.5154 C   0  0  0  0  0  0  0  0  0  0  0  0
    1.1048   -9.2215    3.2892 C   0  0  0  0  0  0  0  0  0  0  0  0
    1.3627  -10.1721    4.3044 N   0  0  0  0  0  0  0  0  0  0  0  0
    0.9525   -6.9720    2.5932 C   0  0  0  0  0  0  0  0  0  0  0  0
    0.7500   -7.4173    1.3424 C   0  0  0  0  0  0  0  0  0  0  0  0
    0.6609   -8.6866    0.9881 C   0  0  0  0  0  0  0  0  0  0  0  0
    0.8627   -9.6609    1.9163 C   0  0  0  0  0  0  0  0  0  0  0  0
    1.7818  -11.3937    4.0397 C   0  0  0  0  0  0  0  0  0  0  0  0
    1.5080  -11.9003    2.7499 N   0  0  0  0  0  0  0  0  0  0  0  0
    1.1858  -11.0536    1.7583 C   0  0  0  0  0  0  0  0  0  0  0  0
    1.2585  -11.5950    0.5265 O   0  0  0  0  0  0  0  0  0  0  0  0
    1.0103   -5.3303    2.9346 Br  0  0  0  0  0  0  0  0  0  0  0  0
    1.8823  -13.2412    2.4963 C   0  0  0  0  0  0  0  0  0  0  0  0
    2.8492  -13.7044    1.8682 O   0  0  0  0  0  0  0  0  0  0  0  0
    1.1433  -14.1815    3.2686 C   0  0  0  0  0  0  0  0  0  0  0  0
    1.4360  -15.6132    3.1002 C   0  0  0  0  0  0  0  0  0  0  0  0
    0.6865  -16.5762    3.6783 C   0  0  0  0  0  0  0  0  0  0  0  0
    1.0963  -17.8785    3.6956 C   0  0  0  0  0  0  0  0  0  0  0  0
  2  3  1  0
  8  9  1  0
  7 10  1  0
  9 10  1  0
 10 11  2  0
  4 12  1  0
  9 13  1  0
 13 14  2  0
 13 15  1  0
 15 16  1  0
 16 17  1  0
 17 18  2  0
  3  8  1  0
  1  2  2  0
  2  7  1  0
  6  7  2  0
  5  6  1  0
  4  5  2  0
  1  4  1  0
M  END

$$$$
No_936-/export/home/yangzhenyu/potential_scad_32_flow//YTHDC2/2024-12-06-03-22-00/
     RDKit          3D

 20 20  0  0  1  0  0  0  0  0999 V2000
    1.1787   -8.0297    3.5154 C   0  0  0  0  0  0  0  0  0  0  0  0
    1.0491   -6.8434    2.9820 C   0  0  0  0  0  0  0  0  0  0  0  0
    1.9985   -8.9840    2.8958 C   0  0  0  0  0  0  0  0  0  0  0  0
    1.9135  -10.3404    3.6266 C   0  0  0  0  0  0  0  0  0  0  0  0
    1.3291  -11.3908    3.0222 C   0  0  2  0  0  0  0  0  0  0  0  0
    1.2749  -12.5326    3.7562 C   0  0  0  0  0  0  0  0  0  0  0  0
    0.4248   -6.6481    1.7861 C   0  0  0  0  0  0  0  0  0  0  0  0
    0.3130   -5.3457    1.3131 O   0  0  0  0  0  0  0  0  0  0  0  0
    0.1665   -7.5538    1.0002 O   0  0  0  0  0  0  0  0  0  0  0  0
    0.7627  -13.6838    3.1407 C   0  0  0  0  0  0  0  0  0  0  0  0
    0.4379  -13.6859    1.8707 C   0  0  0  0  0  0  0  0  0  0  0  0
    0.5663  -12.6279    1.0920 C   0  0  0  0  0  0  0  0  0  0  0  0
    1.0886  -11.4620    1.5983 C   0  0  0  0  0  0  0  0  0  0  0  0
    1.1424  -10.3962    0.7553 O   0  0  0  0  0  0  0  0  0  0  0  0
    0.6779  -14.8411    3.9390 O   0  0  0  0  0  0  0  0  0  0  0  0
    2.6154  -10.3484    4.7632 O   0  0  0  0  0  0  0  0  0  0  0  0
    0.5819  -16.1030    3.5814 C   0  0  0  0  0  0  0  0  0  0  0  0
    1.6373  -16.5177    2.7480 C   0  0  0  0  0  0  0  0  0  0  0  0
    2.7901  -15.9347    2.5728 O   0  0  0  0  0  0  0  0  0  0  0  0
    1.5158  -17.8648    2.2579 O   0  0  0  0  0  0  0  0  0  0  0  0
  1  2  1  0
  1  3  1  0
  3  4  1  0
  5  4  1  6
  5  6  1  0
  2  7  1  0
  7  8  2  0
  7  9  1  0
 10 11  1  0
  5 13  1  0
 12 13  1  0
 13 14  2  0
 10 15  1  0
  4 16  2  0
 15 17  1  0
 17 18  1  0
 18 19  2  0
 18 20  1  0
  6 10  1  0
 11 12  1  0
M  END

$$$$
No_937-/export/home/yangzhenyu/potential_scad_32_flow//YTHDC2/2024-12-06-03-22-00/
     RDKit          3D

 19 19  0  0  1  0  0  0  0  0999 V2000
    1.1787   -8.0297    3.5154 C   0  0  0  0  0  0  0  0  0  0  0  0
    1.0491   -6.8434    2.9820 C   0  0  0  0  0  0  0  0  0  0  0  0
    1.9985   -8.9840    2.8958 C   0  0  2  0  0  0  0  0  0  0  0  0
    1.7297   -9.2108    1.6335 C   0  0  0  0  0  0  0  0  0  0  0  0
    1.7343   -8.0566    0.8408 C   0  0  2  0  0  0  0  0  0  0  0  0
    1.0269   -6.8892    1.4456 C   0  0  0  0  0  0  0  0  0  0  0  0
    2.0740   -7.9416   -0.3682 C   0  0  0  0  0  0  0  0  0  0  0  0
    2.2588   -9.0634   -1.1089 O   0  0  0  0  0  0  0  0  0  0  0  0
    1.9403  -10.3752    3.5545 C   0  0  0  0  0  0  0  0  0  0  0  0
    0.9645  -10.9368    3.7762 O   0  0  0  0  0  0  0  0  0  0  0  0
    3.0889  -10.8096    3.9917 O   0  0  0  0  0  0  0  0  0  0  0  0
    0.8891   -5.7469    0.8836 O   0  0  0  0  0  0  0  0  0  0  0  0
    0.8031   -5.7544    3.5310 O   0  0  0  0  0  0  0  0  0  0  0  0
    2.4591   -7.0180   -1.0551 O   0  0  0  0  0  0  0  0  0  0  0  0
    0.5512  -12.1098    3.1498 C   0  0  0  0  0  0  0  0  0  0  0  0
   -0.4860  -12.3119    2.4177 C   0  0  0  0  0  0  0  0  0  0  0  0
   -1.3619  -11.3885    2.4709 C   0  0  0  0  0  0  0  0  0  0  0  0
   -2.1920  -11.0861    3.5204 C   0  0  0  0  0  0  0  0  0  0  0  0
   -2.6123  -10.1661    4.0040 C   0  0  0  0  0  0  0  0  0  0  0  0
  1  2  1  0
  1  3  1  0
  3  4  1  0
  4  5  1  0
  2  6  1  0
  5  6  1  0
  5  7  1  6
  7  8  2  0
  3  9  1  1
  9 10  1  0
  9 11  2  0
  6 12  2  0
  2 13  2  0
  7 14  1  0
 10 15  1  0
 15 16  1  0
 16 17  1  0
 17 18  1  0
 18 19  2  0
M  END

$$$$
No_938-/export/home/yangzhenyu/potential_scad_32_flow//YTHDC2/2024-12-06-03-22-00/
     RDKit          3D

 17 16  0  0  1  0  0  0  0  0999 V2000
    1.1787   -8.0297    3.5154 C   0  0  0  0  0  0  0  0  0  0  0  0
    1.1048   -9.2215    3.2892 O   0  0  0  0  0  0  0  0  0  0  0  0
    1.3935  -10.1059    4.2463 C   0  0  0  0  0  0  0  0  0  0  0  0
    2.6237  -10.7591    4.0332 C   0  0  0  0  0  0  0  0  0  0  0  0
    1.1085   -7.1185    2.4218 C   0  0  0  0  0  0  0  0  0  0  0  0
    0.9482   -5.7890    2.5847 C   0  0  0  0  0  0  0  0  0  0  0  0
    0.5484   -5.0877    1.4948 C   0  0  0  0  0  0  0  0  0  0  0  0
   -0.3134   -4.2166    1.5719 C   0  0  1  0  0  0  0  0  0  0  0  0
   -1.2805   -4.3433    2.2098 C   0  0  0  0  0  0  0  0  0  0  0  0
    3.3964  -10.6105    5.0853 O   0  0  0  0  0  0  0  0  0  0  0  0
   -1.7997   -3.3870    3.2286 C   0  0  0  0  0  0  0  0  0  0  0  0
   -0.1227   -2.9328    0.9559 C   0  0  0  0  0  0  0  0  0  0  0  0
   -2.9887   -3.7186    3.7765 C   0  0  0  0  0  0  0  0  0  0  0  0
   -3.6613   -4.7960    3.4727 F   0  0  0  0  0  0  0  0  0  0  0  0
   -0.9860   -2.5358   -0.1510 C   0  0  0  0  0  0  0  0  0  0  0  0
   -1.2639   -1.2976   -0.4105 O   0  0  0  0  0  0  0  0  0  0  0  0
   -1.3787   -3.4420   -1.0932 O   0  0  0  0  0  0  0  0  0  0  0  0
  1  2  1  0
  2  3  1  0
  3  4  1  0
  1  5  1  0
  5  6  1  0
  6  7  1  0
  8  7  1  1
  8  9  1  0
  4 10  1  0
  9 11  1  0
  8 12  1  0
 11 13  2  3
 13 14  1  0
 12 15  1  0
 15 16  2  0
 15 17  1  0
M  END

$$$$
No_939-/export/home/yangzhenyu/potential_scad_32_flow//YTHDC2/2024-12-06-03-22-00/
     RDKit          3D

 16 15  0  0  1  0  0  0  0  0999 V2000
    1.1787   -8.0297    3.5154 O   0  0  0  0  0  0  0  0  0  0  0  0
    0.6747   -7.4019    2.7838 C   0  0  0  0  0  0  0  0  0  0  0  0
    0.7594   -8.0032    1.4295 C   0  0  0  0  0  0  0  0  0  0  0  0
    0.3459   -9.1500    1.3581 C   0  0  0  0  0  0  0  0  0  0  0  0
    0.9462   -9.9230    0.3351 C   0  0  2  0  0  0  0  0  0  0  0  0
    1.6884   -9.1549   -0.6693 C   0  0  0  0  0  0  0  0  0  0  0  0
    2.0524   -8.0315   -0.3557 F   0  0  0  0  0  0  0  0  0  0  0  0
    2.2716   -9.6941   -1.5386 O   0  0  0  0  0  0  0  0  0  0  0  0
    0.4293   -6.2164    3.1515 O   0  0  0  0  0  0  0  0  0  0  0  0
    0.7241  -11.1672    0.0215 C   0  0  0  0  0  0  0  0  0  0  0  0
   -0.6665  -11.5485   -0.3290 C   0  0  0  0  0  0  0  0  0  0  0  0
   -1.5198  -10.5130   -0.6538 C   0  0  0  0  0  0  0  0  0  0  0  0
   -1.5597   -9.9076   -1.8732 O   0  0  0  0  0  0  0  0  0  0  0  0
   -2.6013  -10.4025    0.0419 N   0  0  0  0  0  0  0  0  0  0  0  0
   -2.9115  -11.1178    1.1997 C   0  0  0  0  0  0  0  0  0  0  0  0
   -2.6162  -10.5920    2.4633 C   0  0  0  0  0  0  0  0  0  0  0  0
  1  2  1  0
  2  3  1  0
  3  4  1  0
  5  4  1  6
  5  6  1  0
  6  7  1  0
  6  8  2  0
  2  9  2  0
  5 10  1  0
 10 11  2  3
 11 12  1  0
 12 13  2  0
 12 14  1  0
 14 15  1  0
 15 16  1  0
M  END

$$$$
No_940-/export/home/yangzhenyu/potential_scad_32_flow//YTHDC2/2024-12-06-03-22-00/
     RDKit          3D

 17 17  0  0  1  0  0  0  0  0999 V2000
    1.1787   -8.0297    3.5154 C   0  0  0  0  0  0  0  0  0  0  0  0
    1.0491   -6.8434    2.9820 C   0  0  0  0  0  0  0  0  0  0  0  0
    0.9905   -9.0774    2.6527 C   0  0  0  0  0  0  0  0  0  0  0  0
    0.7897   -8.9519    1.3691 C   0  0  0  0  0  0  0  0  0  0  0  0
    0.7018   -7.7198    0.7892 C   0  0  0  0  0  0  0  0  0  0  0  0
    0.8918   -6.5957    1.6117 C   0  0  0  0  0  0  0  0  0  0  0  0
    1.0711  -10.4814    3.2282 C   0  0  2  0  0  0  0  0  0  0  0  0
    2.1432  -11.0138    3.5962 C   0  0  0  0  0  0  0  0  0  0  0  0
   -0.0553  -11.2345    3.2841 C   0  0  0  0  0  0  0  0  0  0  0  0
   -1.2156  -10.5474    3.8659 O   0  0  0  0  0  0  0  0  0  0  0  0
    3.3541  -10.5275    3.7582 N   0  0  0  0  0  0  0  0  0  0  0  0
    2.1327  -12.3047    4.1439 O   0  0  0  0  0  0  0  0  0  0  0  0
    0.8764   -5.2787    1.1139 Cl  0  0  0  0  0  0  0  0  0  0  0  0
   -0.3280  -12.3104    2.6641 O   0  0  0  0  0  0  0  0  0  0  0  0
    4.4091  -11.0731    4.4476 N   0  0  0  0  0  0  0  0  0  0  0  0
    4.2113  -11.0365    5.8428 O   0  0  0  0  0  0  0  0  0  0  0  0
    0.6956  -10.0901    0.3933 Cl  0  0  0  0  0  0  0  0  0  0  0  0
  3  7  1  0
  7  8  1  6
  7  9  1  0
  9 10  1  0
  8 11  1  0
  8 12  2  0
  6 13  1  0
  9 14  2  0
 11 15  1  0
 15 16  2  0
  4 17  1  0
  1  2  2  0
  2  6  1  0
  5  6  2  0
  4  5  1  0
  3  4  2  0
  1  3  1  0
M  END

$$$$
No_941-/export/home/yangzhenyu/potential_scad_32_flow//YTHDC2/2024-12-06-03-22-00/
     RDKit          3D

 19 20  0  0  1  0  0  0  0  0999 V2000
    1.1787   -8.0297    3.5154 O   0  0  0  0  0  0  0  0  0  0  0  0
    0.9969   -8.9689    3.0048 C   0  0  1  0  0  0  0  0  0  0  0  0
    0.9976   -8.9567    1.6341 C   0  0  0  0  0  0  0  0  0  0  0  0
    0.7663   -7.7728    1.0082 C   0  0  1  0  0  0  0  0  0  0  0  0
    1.1468   -6.5619    1.6541 C   0  0  0  0  0  0  0  0  0  0  0  0
    1.3592   -6.6155    3.0007 C   0  0  0  0  0  0  0  0  0  0  0  0
    1.2035  -10.1894    3.6215 C   0  0  0  0  0  0  0  0  0  0  0  0
    0.3377  -11.1521    3.8136 C   0  0  0  0  0  0  0  0  0  0  0  0
    0.4958  -12.4692    3.8093 C   0  0  0  0  0  0  0  0  0  0  0  0
    1.8160  -12.8999    3.6196 C   0  0  0  0  0  0  0  0  0  0  0  0
    2.8313  -12.0335    3.3159 C   0  0  0  0  0  0  0  0  0  0  0  0
    2.5674  -10.7299    3.2287 C   0  0  0  0  0  0  0  0  0  0  0  0
    0.3691   -7.7145   -0.1966 C   0  0  0  0  0  0  0  0  0  0  0  0
   -0.8761   -7.2385   -0.5262 O   0  0  0  0  0  0  0  0  0  0  0  0
    0.8039   -8.4683   -1.1885 O   0  0  0  0  0  0  0  0  0  0  0  0
    1.6845   -5.6363    3.7288 O   0  0  0  0  0  0  0  0  0  0  0  0
    2.1047  -14.2618    3.4475 F   0  0  0  0  0  0  0  0  0  0  0  0
    0.5243  -10.1034    0.9545 O   0  0  0  0  0  0  0  0  0  0  0  0
   -0.9400  -10.6360    4.1706 Cl  0  0  0  0  0  0  0  0  0  0  0  0
  1  2  1  0
  2  3  1  0
  3  4  1  0
  4  5  1  0
  1  6  1  0
  5  6  1  0
  2  7  1  6
  4 13  1  6
 13 14  1  0
 13 15  2  0
  6 16  2  0
 10 17  1  0
  3 18  2  0
  8 19  1  0
  7  8  2  0
  8  9  1  0
  9 10  2  0
 10 11  1  0
 11 12  2  0
  7 12  1  0
M  END

$$$$
No_942-/export/home/yangzhenyu/potential_scad_32_flow//YTHDC2/2024-12-06-03-22-00/
     RDKit          3D

 20 20  0  0  1  0  0  0  0  0999 V2000
    1.1787   -8.0297    3.5154 C   0  0  0  0  0  0  0  0  0  0  0  0
    1.1048   -9.2215    3.2892 C   0  0  0  0  0  0  0  0  0  0  0  0
    1.3627  -10.1721    4.3044 C   0  0  0  0  0  0  0  0  0  0  0  0
    1.7354  -11.4730    3.9023 C   0  0  0  0  0  0  0  0  0  0  0  0
    1.8080  -11.8127    2.7216 C   0  0  0  0  0  0  0  0  0  0  0  0
    1.5854  -11.0021    1.7249 C   0  0  0  0  0  0  0  0  0  0  0  0
    1.3573   -9.7389    1.9287 C   0  0  0  0  0  0  0  0  0  0  0  0
    1.2865   -8.8078    0.9161 C   0  0  2  0  0  0  0  0  0  0  0  0
    1.6845   -9.1638   -0.2896 C   0  0  0  0  0  0  0  0  0  0  0  0
    2.8611   -9.7120   -0.5522 O   0  0  0  0  0  0  0  0  0  0  0  0
    1.0038   -8.9122   -1.3119 O   0  0  0  0  0  0  0  0  0  0  0  0
    2.0935  -13.4579    2.3844 C   0  0  0  0  0  0  0  0  0  0  0  0
    2.2570  -13.8050    1.2173 O   0  0  0  0  0  0  0  0  0  0  0  0
    2.2597  -14.3082    3.3212 Br  0  0  0  0  0  0  0  0  0  0  0  0
    2.2948   -7.1847    3.6450 O   0  0  0  0  0  0  0  0  0  0  0  0
    0.0105   -7.4097    3.4929 O   0  0  0  0  0  0  0  0  0  0  0  0
    0.9467   -7.5624    1.0274 C   0  0  0  0  0  0  0  0  0  0  0  0
   -0.2925   -7.1363    0.7758 C   0  0  0  0  0  0  0  0  0  0  0  0
   -0.7406   -5.7584    0.7415 O   0  0  0  0  0  0  0  0  0  0  0  0
   -1.1553   -7.7013   -0.0491 N   0  0  0  0  0  0  0  0  0  0  0  0
  1  2  1  0
  7  8  1  0
  8  9  1  0
  9 10  1  0
  9 11  2  0
  5 12  1  0
 12 13  2  0
 12 14  1  0
  1 15  1  0
  1 16  2  0
  8 17  1  1
 17 18  1  0
 18 19  2  0
 18 20  1  0
  2  3  2  0
  3  4  1  0
  4  5  2  0
  5  6  1  0
  6  7  2  0
  2  7  1  0
M  END

$$$$
No_943-/export/home/yangzhenyu/potential_scad_32_flow//YTHDC2/2024-12-06-03-22-00/
     RDKit          3D

 18 18  0  0  0  0  0  0  0  0999 V2000
    1.1787   -8.0297    3.5154 C   0  0  0  0  0  0  0  0  0  0  0  0
    1.1048   -9.2215    3.2892 C   0  0  0  0  0  0  0  0  0  0  0  0
    1.3627  -10.1721    4.3044 C   0  0  0  0  0  0  0  0  0  0  0  0
    1.7354  -11.4730    3.9023 C   0  0  0  0  0  0  0  0  0  0  0  0
    1.8080  -11.8127    2.7216 C   0  0  0  0  0  0  0  0  0  0  0  0
    1.5854  -11.0021    1.7249 C   0  0  0  0  0  0  0  0  0  0  0  0
    1.3573   -9.7389    1.9287 C   0  0  0  0  0  0  0  0  0  0  0  0
    1.1102   -8.8712    0.9017 C   0  0  0  0  0  0  0  0  0  0  0  0
    1.5724   -9.1697   -0.3048 C   0  0  0  0  0  0  0  0  0  0  0  0
    1.2378   -8.2159   -1.4226 O   0  0  0  0  0  0  0  0  0  0  0  0
    2.0610  -13.2069    2.3284 C   0  0  0  0  0  0  0  0  0  0  0  0
    1.2085  -14.0560    1.7042 C   0  0  0  0  0  0  0  0  0  0  0  0
    0.4564  -14.5093    2.3879 C   0  0  0  0  0  0  0  0  0  0  0  0
    0.7318  -15.7061    3.1375 O   0  0  0  0  0  0  0  0  0  0  0  0
   -0.8321  -14.3940    2.3919 O   0  0  0  0  0  0  0  0  0  0  0  0
    0.1368   -7.1977    3.4134 C   0  0  0  0  0  0  0  0  0  0  0  0
   -1.0781   -7.8810    3.0034 N   0  0  0  0  0  0  0  0  0  0  0  0
   -0.9402   -9.2563    3.0089 C   0  0  0  0  0  0  0  0  0  0  0  0
  1  2  1  0
  7  8  1  0
  8  9  2  3
  9 10  1  0
  5 11  1  0
 11 12  1  0
 12 13  1  0
 13 14  2  0
 13 15  1  0
  1 16  2  3
 16 17  1  0
 17 18  1  0
  2  3  2  0
  3  4  1  0
  4  5  2  0
  5  6  1  0
  6  7  2  0
  2  7  1  0
M  END

$$$$
No_944-/export/home/yangzhenyu/potential_scad_32_flow//YTHDC2/2024-12-06-03-22-00/
     RDKit          3D

 19 18  0  0  1  0  0  0  0  0999 V2000
    1.1787   -8.0297    3.5154 C   0  0  0  0  0  0  0  0  0  0  0  0
    1.0491   -6.8434    2.9820 N   0  0  0  0  0  0  0  0  0  0  0  0
    2.0155   -8.9614    2.9776 C   0  0  0  0  0  0  0  0  0  0  0  0
    1.9576  -10.2720    3.7353 C   0  0  0  0  0  0  0  0  0  0  0  0
    2.1525  -10.3592    4.9514 C   0  0  0  0  0  0  0  0  0  0  0  0
    0.3792   -6.6354    1.8186 C   0  0  2  0  0  0  0  0  0  0  0  0
    0.1538   -7.6857    1.0583 C   0  0  0  0  0  0  0  0  0  0  0  0
    0.1770   -5.3154    1.5797 C   0  0  0  0  0  0  0  0  0  0  0  0
    1.1419   -8.1428    0.1182 C   0  0  0  0  0  0  0  0  0  0  0  0
    0.9450   -9.1051   -0.8455 C   0  0  0  0  0  0  0  0  0  0  0  0
    1.5734  -10.1519   -0.7249 O   0  0  0  0  0  0  0  0  0  0  0  0
   -0.2005   -9.1708   -1.4287 O   0  0  0  0  0  0  0  0  0  0  0  0
    1.7121  -11.5070    2.9619 C   0  0  0  0  0  0  0  0  0  0  0  0
    1.2964  -12.5702    3.4359 C   0  0  0  0  0  0  0  0  0  0  0  0
    0.8617  -13.6505    2.5543 C   0  0  0  0  0  0  0  0  0  0  0  0
   -0.1585  -13.5396    1.8346 O   0  0  0  0  0  0  0  0  0  0  0  0
    1.5245  -14.8385    2.7452 O   0  0  0  0  0  0  0  0  0  0  0  0
    3.7141  -10.4463    5.2642 O   0  0  0  0  0  0  0  0  0  0  0  0
    1.1235   -4.4076    1.7623 C   0  0  0  0  0  0  0  0  0  0  0  0
  1  2  1  0
  1  3  1  0
  3  4  1  0
  4  5  1  0
  2  6  1  0
  6  7  1  6
  6  8  1  0
  7  9  1  0
  9 10  1  0
 10 11  1  0
 10 12  2  0
  4 13  1  0
 13 14  1  0
 14 15  1  0
 15 16  2  0
 15 17  1  0
  5 18  1  0
  8 19  1  0
M  END

$$$$
No_945-/export/home/yangzhenyu/potential_scad_32_flow//YTHDC2/2024-12-06-03-22-00/
     RDKit          3D

 19 19  0  0  1  0  0  0  0  0999 V2000
    1.1787   -8.0297    3.5154 C   0  0  0  0  0  0  0  0  0  0  0  0
    1.0491   -6.8434    2.9820 C   0  0  0  0  0  0  0  0  0  0  0  0
    1.9985   -8.9840    2.8958 C   0  0  2  0  0  0  0  0  0  0  0  0
    1.7297   -9.2108    1.6335 C   0  0  0  0  0  0  0  0  0  0  0  0
    1.7343   -8.0566    0.8408 C   0  0  2  0  0  0  0  0  0  0  0  0
    1.0269   -6.8892    1.4456 C   0  0  0  0  0  0  0  0  0  0  0  0
    2.0740   -7.9416   -0.3682 C   0  0  0  0  0  0  0  0  0  0  0  0
    2.2588   -9.0634   -1.1089 O   0  0  0  0  0  0  0  0  0  0  0  0
    1.9233  -10.3831    3.5649 C   0  0  0  0  0  0  0  0  0  0  0  0
    0.9771  -11.0864    3.7290 O   0  0  0  0  0  0  0  0  0  0  0  0
    3.1645  -10.9553    3.8512 O   0  0  0  0  0  0  0  0  0  0  0  0
    2.3567   -7.0490   -1.0421 O   0  0  0  0  0  0  0  0  0  0  0  0
    0.9037   -5.6736    3.5365 O   0  0  0  0  0  0  0  0  0  0  0  0
    0.7627   -5.7096    0.9219 O   0  0  0  0  0  0  0  0  0  0  0  0
    1.8755  -10.3449    1.0819 O   0  0  0  0  0  0  0  0  0  0  0  0
    3.2783  -11.3872    5.3425 C   0  0  0  0  0  0  0  0  0  0  0  0
    3.9633   -9.9943    6.1020 C   0  0  0  0  0  0  0  0  0  0  0  0
    5.0035  -10.0025    5.7691 O   0  0  0  0  0  0  0  0  0  0  0  0
    3.4115   -9.4399    6.8915 O   0  0  0  0  0  0  0  0  0  0  0  0
  1  2  1  0
  1  3  1  0
  3  4  1  0
  4  5  1  0
  2  6  1  0
  5  6  1  0
  5  7  1  6
  7  8  1  0
  3  9  1  1
  9 10  2  0
  9 11  1  0
  7 12  2  0
  2 13  2  0
  6 14  2  0
  4 15  2  0
 11 16  1  0
 16 17  1  0
 17 18  2  0
 17 19  1  0
M  END

$$$$
No_946-/export/home/yangzhenyu/potential_scad_32_flow//YTHDC2/2024-12-06-03-22-00/
     RDKit          3D

 17 17  0  0  0  0  0  0  0  0999 V2000
    1.1787   -8.0297    3.5154 C   0  0  0  0  0  0  0  0  0  0  0  0
    1.0491   -6.8434    2.9820 Cl  0  0  0  0  0  0  0  0  0  0  0  0
    0.9474   -9.1766    2.6032 C   0  0  0  0  0  0  0  0  0  0  0  0
    0.8298   -8.9426    1.3809 C   0  0  0  0  0  0  0  0  0  0  0  0
   -0.3695   -8.9922    0.7951 C   0  0  0  0  0  0  0  0  0  0  0  0
   -1.3535   -9.7739    1.3508 C   0  0  0  0  0  0  0  0  0  0  0  0
   -1.0737  -10.4085    2.5685 C   0  0  0  0  0  0  0  0  0  0  0  0
    0.0907  -10.1294    3.2297 C   0  0  0  0  0  0  0  0  0  0  0  0
    1.8226   -8.1767    0.5962 O   0  0  0  0  0  0  0  0  0  0  0  0
    0.8927  -11.3906    3.3850 C   0  0  0  0  0  0  0  0  0  0  0  0
    1.8460  -11.4563    4.3267 O   0  0  0  0  0  0  0  0  0  0  0  0
    0.5805  -12.5871    2.9447 O   0  0  0  0  0  0  0  0  0  0  0  0
   -0.6798   -8.6845   -0.5790 C   0  0  0  0  0  0  0  0  0  0  0  0
   -1.3302   -7.6395   -0.8235 O   0  0  0  0  0  0  0  0  0  0  0  0
   -0.0879   -9.2038   -1.6412 O   0  0  0  0  0  0  0  0  0  0  0  0
   -2.0599  -11.3153    3.0797 N   0  0  0  0  0  0  0  0  0  0  0  0
   -3.0446  -10.7322    3.8997 O   0  0  0  0  0  0  0  0  0  0  0  0
  1  2  1  0
  1  3  1  0
  4  9  1  0
  8 10  1  0
 10 11  1  0
 10 12  2  0
  5 13  1  0
 13 14  2  0
 13 15  1  0
  7 16  1  0
 16 17  2  0
  3  4  2  0
  4  5  1  0
  5  6  2  0
  6  7  1  0
  7  8  2  0
  3  8  1  0
M  END

$$$$
No_947-/export/home/yangzhenyu/potential_scad_32_flow//YTHDC2/2024-12-06-03-22-00/
     RDKit          3D

 18 17  0  0  0  0  0  0  0  0999 V2000
    1.1787   -8.0297    3.5154 C   0  0  0  0  0  0  0  0  0  0  0  0
    1.0491   -6.8434    2.9820 P   0  0  0  0  0  0  0  0  0  0  0  0
    1.0985   -5.7885    3.7951 O   0  0  0  0  0  0  0  0  0  0  0  0
    2.2379   -6.6755    1.7941 O   0  0  0  0  0  0  0  0  0  0  0  0
   -0.2865   -6.7360    2.1431 O   0  0  0  0  0  0  0  0  0  0  0  0
    1.3314   -9.3575    2.6249 C   0  0  0  0  0  0  0  0  0  0  0  0
    1.5799  -10.6688    3.1417 C   0  0  0  0  0  0  0  0  0  0  0  0
    1.6949  -11.6164    2.1857 C   0  0  0  0  0  0  0  0  0  0  0  0
    1.7952  -12.9092    2.7016 C   0  0  0  0  0  0  0  0  0  0  0  0
    0.7978  -13.8583    2.2189 C   0  0  0  0  0  0  0  0  0  0  0  0
    0.8250  -15.2055    2.7389 O   0  0  0  0  0  0  0  0  0  0  0  0
   -0.0427  -13.5906    1.3613 O   0  0  0  0  0  0  0  0  0  0  0  0
    1.6301  -10.8513    4.5021 C   0  0  0  0  0  0  0  0  0  0  0  0
    3.0043  -11.1863    4.9167 P   0  0  0  0  0  0  0  0  0  0  0  0
    3.2530  -10.3859    6.3226 O   0  0  0  0  0  0  0  0  0  0  0  0
    3.4094  -12.4232    5.0972 O   0  0  0  0  0  0  0  0  0  0  0  0
    4.0575  -10.4008    4.1456 O   0  0  0  0  0  0  0  0  0  0  0  0
    1.5834  -16.1058    2.3602 C   0  0  0  0  0  0  0  0  0  0  0  0
  1  2  1  0
  2  3  1  0
  2  4  2  0
  2  5  1  0
  1  6  2  3
  6  7  1  0
  7  8  1  0
  8  9  1  0
  9 10  1  0
 10 11  1  0
 10 12  2  0
  7 13  1  0
 13 14  1  0
 14 15  1  0
 14 16  1  0
 14 17  2  0
 11 18  1  0
M  END

$$$$
No_948-/export/home/yangzhenyu/potential_scad_32_flow//YTHDC2/2024-12-06-03-22-00/
     RDKit          3D

 19 18  0  0  1  0  0  0  0  0999 V2000
    1.1787   -8.0297    3.5154 C   0  0  0  0  0  0  0  0  0  0  0  0
    1.0491   -6.8434    2.9820 P   0  0  0  0  0  0  0  0  0  0  0  0
    1.0985   -5.7885    3.7951 O   0  0  0  0  0  0  0  0  0  0  0  0
   -0.2220   -6.7915    2.0912 O   0  0  0  0  0  0  0  0  0  0  0  0
    0.7919   -9.3787    2.7449 C   0  0  1  0  0  0  0  0  0  0  0  0
    1.5544  -10.0136    1.7044 P   0  0  0  0  0  0  0  0  0  0  0  0
    2.6404   -9.1892    1.1933 O   0  0  0  0  0  0  0  0  0  0  0  0
    0.5725  -10.3370    0.4955 O   0  0  0  0  0  0  0  0  0  0  0  0
    2.1409  -11.3608    2.0566 O   0  0  0  0  0  0  0  0  0  0  0  0
    2.1136   -6.4843    1.7332 O   0  0  0  0  0  0  0  0  0  0  0  0
    0.2629  -10.3747    3.8186 C   0  0  0  0  0  0  0  0  0  0  0  0
    0.5530  -11.4204    4.1504 C   0  0  0  0  0  0  0  0  0  0  0  0
   -0.9932   -9.6904    4.6298 C   0  0  0  0  0  0  0  0  0  0  0  0
   -1.4208   -8.5164    4.6215 C   0  0  0  0  0  0  0  0  0  0  0  0
   -1.6628  -10.7561    5.3148 O   0  0  0  0  0  0  0  0  0  0  0  0
   -2.8217   -8.3462    4.9250 O   0  0  0  0  0  0  0  0  0  0  0  0
   -3.6383   -8.2132    3.9060 C   0  0  0  0  0  0  0  0  0  0  0  0
   -4.8871   -7.9762    4.5002 C   0  0  0  0  0  0  0  0  0  0  0  0
   -5.3342   -6.7373    4.5537 C   0  0  0  0  0  0  0  0  0  0  0  0
  1  2  1  0
  2  3  1  0
  2  4  2  0
  5  1  1  1
  5  6  1  0
  6  7  1  0
  6  8  2  0
  6  9  1  0
  2 10  1  0
  5 11  1  0
 11 12  2  0
 11 13  1  0
 13 14  1  0
 13 15  2  0
 14 16  1  0
 16 17  1  0
 17 18  1  0
 18 19  1  0
M  END

$$$$
No_949-/export/home/yangzhenyu/potential_scad_32_flow//YTHDC2/2024-12-06-03-22-00/
     RDKit          3D

 19 19  0  0  1  0  0  0  0  0999 V2000
    1.1787   -8.0297    3.5154 C   0  0  0  0  0  0  0  0  0  0  0  0
    1.0491   -6.8434    2.9820 C   0  0  0  0  0  0  0  0  0  0  0  0
    1.9985   -8.9840    2.8958 C   0  0  2  0  0  0  0  0  0  0  0  0
    1.7297   -9.2108    1.6335 C   0  0  1  0  0  0  0  0  0  0  0  0
    1.7343   -8.0566    0.8408 C   0  0  0  0  0  0  0  0  0  0  0  0
    1.0269   -6.8892    1.4456 C   0  0  0  0  0  0  0  0  0  0  0  0
    1.7596   -8.0979   -0.4723 O   0  0  0  0  0  0  0  0  0  0  0  0
    1.9839  -10.3478    3.5826 C   0  0  0  0  0  0  0  0  0  0  0  0
    2.8942  -10.5701    4.4576 O   0  0  0  0  0  0  0  0  0  0  0  0
    1.3460  -11.3579    3.1701 O   0  0  0  0  0  0  0  0  0  0  0  0
    0.8592   -5.6585    3.4803 O   0  0  0  0  0  0  0  0  0  0  0  0
    2.4555  -10.1915    0.8677 C   0  0  0  0  0  0  0  0  0  0  0  0
    1.7164  -10.9636    0.0409 O   0  0  0  0  0  0  0  0  0  0  0  0
    0.8986   -5.7308    0.8609 O   0  0  0  0  0  0  0  0  0  0  0  0
    3.6425  -10.0474    0.4074 O   0  0  0  0  0  0  0  0  0  0  0  0
    0.4824   -8.1267    4.5115 O   0  0  0  0  0  0  0  0  0  0  0  0
    3.4214  -11.7110    4.9402 C   0  0  0  0  0  0  0  0  0  0  0  0
    4.8963  -11.4594    5.0958 C   0  0  0  0  0  0  0  0  0  0  0  0
    5.2334  -10.2669    5.3337 O   0  0  0  0  0  0  0  0  0  0  0  0
  1  2  1  0
  1  3  1  0
  3  4  1  0
  4  5  1  0
  2  6  1  0
  5  6  1  0
  5  7  2  0
  3  8  1  1
  8  9  1  0
  8 10  2  0
  2 11  2  0
  4 12  1  6
 12 13  2  0
  6 14  2  0
 12 15  1  0
  1 16  2  0
  9 17  1  0
 17 18  1  0
 18 19  1  0
M  END

$$$$
No_950-/export/home/yangzhenyu/potential_scad_32_flow//YTHDC2/2024-12-06-03-22-00/
     RDKit          3D

 17 18  0  0  1  0  0  0  0  0999 V2000
    1.1787   -8.0297    3.5154 C   0  0  0  0  0  0  0  0  0  0  0  0
    1.0491   -6.8434    2.9820 C   0  0  0  0  0  0  0  0  0  0  0  0
    0.9905   -9.0774    2.6527 C   0  0  0  0  0  0  0  0  0  0  0  0
    0.7897   -8.9519    1.3691 C   0  0  0  0  0  0  0  0  0  0  0  0
    0.7018   -7.7198    0.7892 C   0  0  0  0  0  0  0  0  0  0  0  0
    0.8918   -6.5957    1.6117 C   0  0  0  0  0  0  0  0  0  0  0  0
    1.0600  -10.5680    3.3321 C   0  0  1  0  0  0  0  0  0  0  0  0
    2.1422  -11.0089    3.6867 C   0  0  0  0  0  0  0  0  0  0  0  0
    0.8608   -5.2505    1.2071 O   0  0  0  0  0  0  0  0  0  0  0  0
   -0.0330  -10.6487    4.3367 C   0  0  0  0  0  0  0  0  0  0  0  0
    2.3397  -12.0044    3.9307 C   0  0  0  0  0  0  0  0  0  0  0  0
   -1.2969  -10.0467    3.8837 C   0  0  0  0  0  0  0  0  0  0  0  0
   -2.0815  -10.6788    2.9055 C   0  0  0  0  0  0  0  0  0  0  0  0
   -2.9035   -9.8825    2.2280 C   0  0  0  0  0  0  0  0  0  0  0  0
   -3.3059   -8.7325    2.8518 C   0  0  0  0  0  0  0  0  0  0  0  0
   -2.7268   -8.1474    3.9228 C   0  0  0  0  0  0  0  0  0  0  0  0
   -1.6046   -8.8094    4.5042 C   0  0  0  0  0  0  0  0  0  0  0  0
  1  2  1  0
  3  4  1  0
  2  6  1  0
  5  6  1  0
  3  7  1  0
  7  8  1  0
  6  9  2  0
  7 10  1  1
  8 11  2  0
 10 12  1  0
  1  3  1  0
  4  5  1  0
 12 13  2  0
 13 14  1  0
 14 15  2  0
 15 16  1  0
 16 17  2  0
 12 17  1  0
M  END

$$$$
No_951-/export/home/yangzhenyu/potential_scad_32_flow//YTHDC2/2024-12-06-03-22-00/
     RDKit          3D

 20 21  0  0  1  0  0  0  0  0999 V2000
    1.1787   -8.0297    3.5154 C   0  0  0  0  0  0  0  0  0  0  0  0
    1.1048   -9.2215    3.2892 C   0  0  2  0  0  0  0  0  0  0  0  0
    1.3627  -10.1721    4.3044 C   0  0  0  0  0  0  0  0  0  0  0  0
    1.7354  -11.4730    3.9023 C   0  0  0  0  0  0  0  0  0  0  0  0
    1.6166  -11.5515    2.5159 C   0  0  1  0  0  0  0  0  0  0  0  0
    1.4080  -10.1475    2.0704 C   0  0  2  0  0  0  0  0  0  0  0  0
    1.0837   -7.1462    2.2374 C   0  0  2  0  0  0  0  0  0  0  0  0
    1.3901   -7.8684    1.0270 C   0  0  0  0  0  0  0  0  0  0  0  0
    1.5319   -9.2097    0.9492 C   0  0  0  0  0  0  0  0  0  0  0  0
    1.7955   -9.7511   -0.2799 O   0  0  0  0  0  0  0  0  0  0  0  0
    0.9527   -5.5602    2.2177 C   0  0  0  0  0  0  0  0  0  0  0  0
    1.9091  -12.4165    1.6897 C   0  0  0  0  0  0  0  0  0  0  0  0
    1.5664  -12.6180    0.5142 C   0  0  0  0  0  0  0  0  0  0  0  0
    2.6573  -13.5633    2.2245 O   0  0  0  0  0  0  0  0  0  0  0  0
    0.1056   -5.1526    1.2202 C   0  0  0  0  0  0  0  0  0  0  0  0
   -1.0088   -5.7003    0.9252 C   0  0  0  0  0  0  0  0  0  0  0  0
   -1.4253   -5.7431   -0.3752 C   0  0  0  0  0  0  0  0  0  0  0  0
   -2.5643   -6.5353   -0.6837 C   0  0  0  0  0  0  0  0  0  0  0  0
   -3.2475   -7.2099    0.2975 N   0  0  0  0  0  0  0  0  0  0  0  0
   -2.9429   -7.1483    1.2585 H   0  0  0  0  0  0  0  0  0  0  0  0
  2  1  1  1
  2  3  1  0
  3  4  2  0
  4  5  1  0
  2  6  1  0
  5  6  1  0
  7  8  1  0
  6  9  1  1
  8  9  1  0
  9 10  2  0
  7 11  1  1
  5 12  1  6
 12 13  1  0
 12 14  2  0
 11 15  1  0
 15 16  1  0
 16 17  2  3
 17 18  1  0
 18 19  2  0
  1  7  1  0
 19 20  1  0
M  END

$$$$
No_952-/export/home/yangzhenyu/potential_scad_32_flow//YTHDC2/2024-12-06-03-22-00/
     RDKit          3D

 18 20  0  0  1  0  0  0  0  0999 V2000
    1.1787   -8.0297    3.5154 C   0  0  0  0  0  0  0  0  0  0  0  0
    1.1048   -9.2215    3.2892 C   0  0  0  0  0  0  0  0  0  0  0  0
    1.3627  -10.1721    4.3044 C   0  0  0  0  0  0  0  0  0  0  0  0
    1.0682  -11.5187    4.0618 C   0  0  0  0  0  0  0  0  0  0  0  0
    0.6332  -11.9655    2.9682 C   0  0  0  0  0  0  0  0  0  0  0  0
    0.4776  -11.1308    1.9203 C   0  0  0  0  0  0  0  0  0  0  0  0
    0.7470   -9.8274    2.0368 C   0  0  0  0  0  0  0  0  0  0  0  0
    0.5535   -7.1314    2.6861 C   0  0  0  0  0  0  0  0  0  0  0  0
    0.2950   -7.6000    1.3275 C   0  0  0  0  0  0  0  0  0  0  0  0
    0.2693   -8.8631    1.0973 C   0  0  1  0  0  0  0  0  0  0  0  0
   -0.0069   -6.7080    0.3888 O   0  0  0  0  0  0  0  0  0  0  0  0
    0.4919  -13.3974    2.7286 C   0  0  0  0  0  0  0  0  0  0  0  0
   -0.5952  -13.8054    2.2659 C   0  0  0  0  0  0  0  0  0  0  0  0
    1.5836  -14.2854    3.0966 C   0  0  0  0  0  0  0  0  0  0  0  0
   -0.7887  -15.0188    1.9350 C   0  0  0  0  0  0  0  0  0  0  0  0
    0.2545  -16.0499    2.3127 C   0  0  0  0  0  0  0  0  0  0  0  0
    1.3932  -15.6295    2.9081 C   0  0  0  0  0  0  0  0  0  0  0  0
    0.0316   -9.2940   -0.1783 C   0  0  0  0  0  0  0  0  0  0  0  0
  1  2  1  0
  8  9  1  0
  7 10  1  0
  9 10  1  0
  9 11  2  0
  5 12  1  0
 10 18  1  6
  1  8  1  0
  2  3  2  0
  3  4  1  0
  4  5  2  0
  5  6  1  0
  6  7  2  0
  2  7  1  0
 12 13  2  0
 13 15  1  0
 15 16  2  0
 16 17  1  0
 14 17  2  0
 12 14  1  0
M  END

$$$$
No_953-/export/home/yangzhenyu/potential_scad_32_flow//YTHDC2/2024-12-06-03-22-00/
     RDKit          3D

 19 20  0  0  1  0  0  0  0  0999 V2000
    1.1787   -8.0297    3.5154 O   0  0  0  0  0  0  0  0  0  0  0  0
    0.9969   -8.9689    3.0048 C   0  0  1  0  0  0  0  0  0  0  0  0
    0.9976   -8.9567    1.6341 C   0  0  2  0  0  0  0  0  0  0  0  0
    1.6062   -9.9071    0.9292 C   0  0  0  0  0  0  0  0  0  0  0  0
    2.1191  -10.9757    1.6503 C   0  0  0  0  0  0  0  0  0  0  0  0
    2.1177  -10.9891    3.0403 C   0  0  0  0  0  0  0  0  0  0  0  0
    1.5441   -9.8905    3.6897 C   0  0  0  0  0  0  0  0  0  0  0  0
    0.5010   -7.8164    1.0436 C   0  0  0  0  0  0  0  0  0  0  0  0
   -0.3627   -7.9721    0.1048 C   0  0  0  0  0  0  0  0  0  0  0  0
   -1.0530   -6.9027   -0.6332 N   0  0  0  0  0  0  0  0  0  0  0  0
   -2.1263   -6.6235   -0.4368 C   0  0  0  0  0  0  0  0  0  0  0  0
   -2.6333   -5.4863   -1.2225 N   0  0  0  0  0  0  0  0  0  0  0  0
   -3.0716   -7.1599    0.4819 C   0  0  0  0  0  0  0  0  0  0  0  0
    1.8145  -10.1738    5.0279 O   0  0  0  0  0  0  0  0  0  0  0  0
   -3.1818   -6.5372    1.7080 C   0  0  0  0  0  0  0  0  0  0  0  0
   -3.7392   -7.2722    2.8407 C   0  0  0  0  0  0  0  0  0  0  0  0
   -4.2584   -8.4518    2.6444 C   0  0  0  0  0  0  0  0  0  0  0  0
   -4.0526   -9.1277    1.5306 C   0  0  0  0  0  0  0  0  0  0  0  0
   -3.4061   -8.5351    0.4399 C   0  0  0  0  0  0  0  0  0  0  0  0
  2  1  1  1
  2  3  1  0
  4  5  1  0
  2  7  1  0
  6  7  1  0
  3  8  1  0
  8  9  2  3
  9 10  1  0
 10 11  2  3
 11 12  1  0
 11 13  1  0
  7 14  2  0
  3  4  1  1
  5  6  1  0
 13 15  2  0
 15 16  1  0
 16 17  2  0
 17 18  1  0
 18 19  2  0
 13 19  1  0
M  END

$$$$
No_954-/export/home/yangzhenyu/potential_scad_32_flow//YTHDC2/2024-12-06-03-22-00/
     RDKit          3D

 19 20  0  0  1  0  0  0  0  0999 V2000
    1.1787   -8.0297    3.5154 C   0  0  0  0  0  0  0  0  0  0  0  0
    1.1048   -9.2215    3.2892 C   0  0  0  0  0  0  0  0  0  0  0  0
    1.0239   -9.7790    2.0239 C   0  0  0  0  0  0  0  0  0  0  0  0
    1.1393   -9.0211    0.9686 C   0  0  0  0  0  0  0  0  0  0  0  0
    1.4051   -7.6500    1.1251 C   0  0  0  0  0  0  0  0  0  0  0  0
    1.4868   -7.1041    2.3534 C   0  0  1  0  0  0  0  0  0  0  0  0
    1.5885   -5.7190    2.5687 C   0  0  0  0  0  0  0  0  0  0  0  0
    0.8710  -11.2137    1.9144 C   0  0  0  0  0  0  0  0  0  0  0  0
    1.8887  -12.0352    2.0512 C   0  0  0  0  0  0  0  0  0  0  0  0
    1.7070  -13.3672    1.7487 C   0  0  0  0  0  0  0  0  0  0  0  0
    0.5962  -13.8403    1.2955 C   0  0  0  0  0  0  0  0  0  0  0  0
   -0.4368  -13.0391    0.9937 C   0  0  0  0  0  0  0  0  0  0  0  0
   -0.2989  -11.6535    1.3070 C   0  0  0  0  0  0  0  0  0  0  0  0
   -1.4063  -10.8511    1.1662 N   0  0  0  0  0  0  0  0  0  0  0  0
    1.6310   -6.8616    0.1469 O   0  0  0  0  0  0  0  0  0  0  0  0
    1.5559   -5.1990    3.8302 O   0  0  0  0  0  0  0  0  0  0  0  0
    1.5675   -4.8492    1.5975 O   0  0  0  0  0  0  0  0  0  0  0  0
    2.8759  -14.2528    1.9463 Cl  0  0  0  0  0  0  0  0  0  0  0  0
   -1.7132  -13.3863    0.5008 C   0  0  0  0  0  0  0  0  0  0  0  0
  2  3  1  0
  4  5  1  0
  1  6  1  0
  5  6  1  0
  6  7  1  6
  3  8  1  0
  5 15  2  0
  7 16  1  0
  7 17  2  0
 10 18  1  0
 12 19  1  0
 13 14  1  0
  3  4  1  0
  1  2  1  0
  8  9  2  0
  9 10  1  0
 10 11  2  0
 11 12  1  0
 12 13  2  0
  8 13  1  0
M  END

$$$$
No_955-/export/home/yangzhenyu/potential_scad_32_flow//YTHDC2/2024-12-06-03-22-00/
     RDKit          3D

 18 19  0  0  0  0  0  0  0  0999 V2000
    1.1787   -8.0297    3.5154 C   0  0  0  0  0  0  0  0  0  0  0  0
    1.1048   -9.2215    3.2892 C   0  0  0  0  0  0  0  0  0  0  0  0
    1.2339   -9.7611    2.0189 C   0  0  0  0  0  0  0  0  0  0  0  0
    1.3583   -9.0036    0.9764 C   0  0  0  0  0  0  0  0  0  0  0  0
    1.5996   -7.6362    1.1311 C   0  0  0  0  0  0  0  0  0  0  0  0
    1.4830   -7.0928    2.3626 C   0  0  0  0  0  0  0  0  0  0  0  0
    1.5395   -5.7300    2.6182 C   0  0  0  0  0  0  0  0  0  0  0  0
    1.1775  -11.2233    1.8407 C   0  0  0  0  0  0  0  0  0  0  0  0
    0.5085  -11.9762    2.1989 C   0  0  0  0  0  0  0  0  0  0  0  0
    0.4247  -13.3704    2.0465 C   0  0  0  0  0  0  0  0  0  0  0  0
    1.6054  -14.1557    2.4664 C   0  0  0  0  0  0  0  0  0  0  0  0
    1.8317  -15.3638    2.3262 C   0  0  0  0  0  0  0  0  0  0  0  0
    0.9230  -16.1669    1.7304 C   0  0  0  0  0  0  0  0  0  0  0  0
   -0.2162  -15.6318    1.2999 C   0  0  0  0  0  0  0  0  0  0  0  0
   -0.4566  -14.2720    1.4479 C   0  0  0  0  0  0  0  0  0  0  0  0
   -1.6024  -13.7137    0.8986 C   0  0  0  0  0  0  0  0  0  0  0  0
   -2.7672  -13.8005    1.4793 C   0  0  0  0  0  0  0  0  0  0  0  0
   -3.9505  -13.1805    0.8159 C   0  0  0  0  0  0  0  0  0  0  0  0
  6  7  1  0
  3  8  1  0
  8  9  2  3
  9 10  1  0
 15 16  1  0
 16 17  2  3
 17 18  1  0
  1  2  2  0
  2  3  1  0
  3  4  2  0
  4  5  1  0
  5  6  2  0
  1  6  1  0
 10 11  2  0
 11 12  1  0
 12 13  2  0
 13 14  1  0
 14 15  2  0
 10 15  1  0
M  END

$$$$
No_956-/export/home/yangzhenyu/potential_scad_32_flow//YTHDC2/2024-12-06-03-22-00/
     RDKit          3D

 20 20  0  0  0  0  0  0  0  0999 V2000
    1.1787   -8.0297    3.5154 C   0  0  0  0  0  0  0  0  0  0  0  0
    1.1048   -9.2215    3.2892 C   0  0  0  0  0  0  0  0  0  0  0  0
    1.2339   -9.7611    2.0189 C   0  0  0  0  0  0  0  0  0  0  0  0
    1.3583   -9.0036    0.9764 C   0  0  0  0  0  0  0  0  0  0  0  0
    1.5996   -7.6362    1.1311 C   0  0  0  0  0  0  0  0  0  0  0  0
    1.4830   -7.0928    2.3626 C   0  0  0  0  0  0  0  0  0  0  0  0
    1.1008  -11.2372    1.8542 C   0  0  0  0  0  0  0  0  0  0  0  0
    1.9749  -12.0938    2.2342 C   0  0  0  0  0  0  0  0  0  0  0  0
    1.7533  -13.4231    1.8956 O   0  0  0  0  0  0  0  0  0  0  0  0
    2.7632  -11.8520    3.2582 O   0  0  0  0  0  0  0  0  0  0  0  0
    1.5505   -5.6379    2.6187 Cl  0  0  0  0  0  0  0  0  0  0  0  0
    1.5856   -9.4817   -0.3198 C   0  0  0  0  0  0  0  0  0  0  0  0
    1.4361   -8.9013   -1.3259 O   0  0  0  0  0  0  0  0  0  0  0  0
    1.6481  -10.7605   -0.4649 O   0  0  0  0  0  0  0  0  0  0  0  0
    0.8865  -10.1066    4.4158 C   0  0  0  0  0  0  0  0  0  0  0  0
   -0.5862  -10.4610    4.5226 C   0  0  0  0  0  0  0  0  0  0  0  0
   -1.3740  -10.4318    3.6408 C   0  0  0  0  0  0  0  0  0  0  0  0
   -2.6818  -10.7007    3.8002 C   0  0  0  0  0  0  0  0  0  0  0  0
   -3.3611  -11.7536    3.4838 C   0  0  0  0  0  0  0  0  0  0  0  0
   -4.6789  -11.8608    3.8325 Cl  0  0  0  0  0  0  0  0  0  0  0  0
  3  7  1  0
  7  8  1  0
  8  9  2  0
  8 10  1  0
  6 11  1  0
  4 12  1  0
 12 13  2  0
 12 14  1  0
  2 15  1  0
 15 16  1  0
 16 17  2  3
 17 18  1  0
 18 19  2  3
 19 20  1  0
  1  2  2  0
  2  3  1  0
  3  4  2  0
  4  5  1  0
  5  6  2  0
  1  6  1  0
M  END

$$$$
No_957-/export/home/yangzhenyu/potential_scad_32_flow//YTHDC2/2024-12-06-03-22-00/
     RDKit          3D

 17 18  0  0  0  0  0  0  0  0999 V2000
    1.1787   -8.0297    3.5154 C   0  0  0  0  0  0  0  0  0  0  0  0
    1.1048   -9.2215    3.2892 C   0  0  0  0  0  0  0  0  0  0  0  0
    1.2339   -9.7611    2.0189 C   0  0  0  0  0  0  0  0  0  0  0  0
    1.3583   -9.0036    0.9764 C   0  0  0  0  0  0  0  0  0  0  0  0
    1.5996   -7.6362    1.1311 C   0  0  0  0  0  0  0  0  0  0  0  0
    1.4830   -7.0928    2.3626 C   0  0  0  0  0  0  0  0  0  0  0  0
    1.5395   -5.7300    2.6182 C   0  0  0  0  0  0  0  0  0  0  0  0
    1.1969  -11.3760    1.8433 C   0  0  0  0  0  0  0  0  0  0  0  0
    1.7910  -12.1287    2.5491 C   0  0  0  0  0  0  0  0  0  0  0  0
    1.1433  -13.3521    2.7532 C   0  0  0  0  0  0  0  0  0  0  0  0
    0.1299  -13.8302    2.1502 C   0  0  0  0  0  0  0  0  0  0  0  0
   -0.4780  -12.8927    1.2842 C   0  0  0  0  0  0  0  0  0  0  0  0
    0.0359  -11.6324    1.1189 C   0  0  0  0  0  0  0  0  0  0  0  0
   -0.3266  -15.0845    2.3540 C   0  0  0  0  0  0  0  0  0  0  0  0
    0.4186  -16.0884    2.8528 C   0  0  0  0  0  0  0  0  0  0  0  0
   -0.1300  -17.3141    3.0455 C   0  0  0  0  0  0  0  0  0  0  0  0
   -1.3899  -17.5230    2.7997 C   0  0  0  0  0  0  0  0  0  0  0  0
  6  7  1  0
  3  8  1  0
 11 14  1  0
 14 15  2  3
 15 16  1  0
 16 17  2  0
  1  2  2  0
  2  3  1  0
  3  4  2  0
  4  5  1  0
  5  6  2  0
  1  6  1  0
  8  9  2  0
  9 10  1  0
 10 11  2  0
 11 12  1  0
 12 13  2  0
  8 13  1  0
M  END

$$$$
No_958-/export/home/yangzhenyu/potential_scad_32_flow//YTHDC2/2024-12-06-03-22-00/
     RDKit          3D

 18 19  0  0  0  0  0  0  0  0999 V2000
    1.1787   -8.0297    3.5154 C   0  0  0  0  0  0  0  0  0  0  0  0
    1.0491   -6.8434    2.9820 C   0  0  0  0  0  0  0  0  0  0  0  0
    0.0950   -8.8404    3.2292 C   0  0  0  0  0  0  0  0  0  0  0  0
    0.0602  -10.1764    3.8231 C   0  0  0  0  0  0  0  0  0  0  0  0
    0.2248   -6.3830    2.0648 C   0  0  0  0  0  0  0  0  0  0  0  0
   -0.6745   -7.2322    1.6857 C   0  0  0  0  0  0  0  0  0  0  0  0
   -0.7374   -8.4992    2.1291 C   0  0  0  0  0  0  0  0  0  0  0  0
    1.0517  -10.8728    4.0967 C   0  0  0  0  0  0  0  0  0  0  0  0
    1.3585  -12.0468    3.5683 C   0  0  0  0  0  0  0  0  0  0  0  0
    0.6079  -12.4038    2.3440 C   0  0  0  0  0  0  0  0  0  0  0  0
   -0.6040  -11.8145    2.2451 C   0  0  0  0  0  0  0  0  0  0  0  0
   -0.9212  -10.6034    2.8436 C   0  0  0  0  0  0  0  0  0  0  0  0
    0.3609   -5.0439    1.4674 Cl  0  0  0  0  0  0  0  0  0  0  0  0
    0.8611  -13.7715    1.9448 C   0  0  0  0  0  0  0  0  0  0  0  0
    0.0033  -14.6786    1.5910 C   0  0  0  0  0  0  0  0  0  0  0  0
    0.5552  -16.0123    1.6140 C   0  0  0  0  0  0  0  0  0  0  0  0
    2.0405  -16.0132    1.8238 C   0  0  0  0  0  0  0  0  0  0  0  0
    2.8965  -15.0775    2.1866 C   0  0  0  0  0  0  0  0  0  0  0  0
  3  4  1  0
  5 13  1  0
 10 14  1  0
 14 15  1  0
 15 16  2  3
 16 17  1  0
 17 18  2  0
  4  8  2  0
  8  9  1  0
  9 10  2  0
 10 11  1  0
 11 12  2  0
  4 12  1  0
  1  2  2  0
  2  5  1  0
  5  6  2  0
  6  7  1  0
  3  7  2  0
  1  3  1  0
M  END

$$$$
No_959-/export/home/yangzhenyu/potential_scad_32_flow//YTHDC2/2024-12-06-03-22-00/
     RDKit          3D

 20 21  0  0  0  0  0  0  0  0999 V2000
    1.1787   -8.0297    3.5154 C   0  0  0  0  0  0  0  0  0  0  0  0
    1.0491   -6.8434    2.9820 I   0  0  0  0  0  0  0  0  0  0  0  0
    0.9718   -9.2778    2.6638 C   0  0  0  0  0  0  0  0  0  0  0  0
    1.2154  -10.6122    3.3535 C   0  0  0  0  0  0  0  0  0  0  0  0
    1.1850  -11.6994    2.6821 C   0  0  0  0  0  0  0  0  0  0  0  0
    1.0678  -11.6934    1.3116 C   0  0  0  0  0  0  0  0  0  0  0  0
    1.1711  -10.5122    0.6210 C   0  0  0  0  0  0  0  0  0  0  0  0
    1.1563   -9.3209    1.3021 C   0  0  0  0  0  0  0  0  0  0  0  0
    0.8237   -8.2224    0.6007 C   0  0  0  0  0  0  0  0  0  0  0  0
    1.7740   -7.7469   -0.2255 O   0  0  0  0  0  0  0  0  0  0  0  0
   -0.3117   -7.6350    0.4534 O   0  0  0  0  0  0  0  0  0  0  0  0
    1.3298  -12.9716    3.3507 C   0  0  0  0  0  0  0  0  0  0  0  0
    2.0856  -14.0828    2.5661 O   0  0  0  0  0  0  0  0  0  0  0  0
    1.4732  -15.1286    2.1550 C   0  0  0  0  0  0  0  0  0  0  0  0
    0.4841  -14.9074    1.3036 C   0  0  0  0  0  0  0  0  0  0  0  0
   -0.7434  -14.8725    1.7666 C   0  0  0  0  0  0  0  0  0  0  0  0
   -1.0568  -15.8482    2.7743 C   0  0  0  0  0  0  0  0  0  0  0  0
    0.0261  -16.3800    3.5700 C   0  0  0  0  0  0  0  0  0  0  0  0
    1.3440  -16.0138    3.2464 C   0  0  0  0  0  0  0  0  0  0  0  0
   -0.0925  -17.2180    4.6960 C   0  0  0  0  0  0  0  0  0  0  0  0
  1  2  1  0
  1  3  1  0
  8  9  1  0
  9 10  2  0
  9 11  1  0
  5 12  1  0
 12 13  1  0
 13 14  1  0
 18 20  1  0
 14 15  2  0
 15 16  1  0
 16 17  2  0
 17 18  1  0
 18 19  2  0
 14 19  1  0
  3  4  2  0
  4  5  1  0
  5  6  2  0
  6  7  1  0
  7  8  2  0
  3  8  1  0
M  END

$$$$
No_960-/export/home/yangzhenyu/potential_scad_32_flow//YTHDC2/2024-12-06-03-22-00/
     RDKit          3D

 18 19  0  0  1  0  0  0  0  0999 V2000
    1.1787   -8.0297    3.5154 C   0  0  0  0  0  0  0  0  0  0  0  0
    1.1048   -9.2215    3.2892 C   0  0  0  0  0  0  0  0  0  0  0  0
    1.3627  -10.1721    4.3044 C   0  0  0  0  0  0  0  0  0  0  0  0
    1.0682  -11.5187    4.0618 C   0  0  0  0  0  0  0  0  0  0  0  0
    0.7653  -11.7320    2.7387 C   0  0  0  0  0  0  0  0  0  0  0  0
    0.7465  -10.3365    2.0821 C   0  0  0  0  0  0  0  0  0  0  0  0
    1.0657   -7.1804    2.2093 C   0  0  0  0  0  0  0  0  0  0  0  0
    1.1068   -5.6316    2.5857 N   0  0  0  0  0  0  0  0  0  0  0  0
    1.1525   -7.4322    1.0280 N   0  0  0  0  0  0  0  0  0  0  0  0
    0.5261  -12.6802    2.0333 C   0  0  2  0  0  0  0  0  0  0  0  0
    1.0231  -13.9081    2.4787 C   0  0  0  0  0  0  0  0  0  0  0  0
    0.1494  -14.8454    2.9808 C   0  0  0  0  0  0  0  0  0  0  0  0
    0.7167  -16.1754    3.4138 C   0  0  0  0  0  0  0  0  0  0  0  0
    2.0945  -16.4951    3.0523 C   0  0  0  0  0  0  0  0  0  0  0  0
    2.8960  -15.5096    2.4450 C   0  0  0  0  0  0  0  0  0  0  0  0
    2.3974  -14.2890    2.0524 C   0  0  0  0  0  0  0  0  0  0  0  0
    0.0005  -12.6229    0.8531 C   0  0  0  0  0  0  0  0  0  0  0  0
   -0.5100  -11.5848    0.3005 O   0  0  0  0  0  0  0  0  0  0  0  0
  1  2  1  0
  2  3  1  0
  3  4  2  0
  4  5  1  0
  2  6  1  0
  5  6  1  0
  1  7  2  3
  7  8  1  0
  7  9  1  0
 10  5  1  6
 10 11  1  0
 10 17  1  0
 17 18  2  0
 11 12  2  0
 12 13  1  0
 13 14  2  0
 14 15  1  0
 15 16  2  0
 11 16  1  0
M  END

$$$$
No_961-/export/home/yangzhenyu/potential_scad_32_flow//YTHDC2/2024-12-06-03-22-00/
     RDKit          3D

 17 18  0  0  1  0  0  0  0  0999 V2000
    1.1787   -8.0297    3.5154 C   0  0  0  0  0  0  0  0  0  0  0  0
    1.0491   -6.8434    2.9820 C   0  0  0  0  0  0  0  0  0  0  0  0
    0.0950   -8.8404    3.2292 C   0  0  0  0  0  0  0  0  0  0  0  0
   -0.9173   -8.4596    2.5152 C   0  0  0  0  0  0  0  0  0  0  0  0
   -1.0331   -7.2162    2.0653 C   0  0  0  0  0  0  0  0  0  0  0  0
    0.1897   -6.3124    2.3579 C   0  0  0  0  0  0  0  0  0  0  0  0
    0.1193  -10.2475    3.6957 C   0  0  2  0  0  0  0  0  0  0  0  0
    1.2103  -10.8364    4.0231 C   0  0  0  0  0  0  0  0  0  0  0  0
    1.0317  -12.3055    4.3670 C   0  0  0  0  0  0  0  0  0  0  0  0
   -0.0208  -12.8683    3.9116 C   0  0  0  0  0  0  0  0  0  0  0  0
   -1.0883  -12.2918    3.5055 C   0  0  0  0  0  0  0  0  0  0  0  0
   -1.0734  -10.9607    3.3452 C   0  0  0  0  0  0  0  0  0  0  0  0
    0.0613   -4.9690    1.8623 C   0  0  0  0  0  0  0  0  0  0  0  0
    0.7868   -4.0371    2.4928 C   0  0  0  0  0  0  0  0  0  0  0  0
    0.8838   -2.6259    2.1569 C   0  0  0  0  0  0  0  0  0  0  0  0
   -2.1567  -13.0542    3.1863 O   0  0  0  0  0  0  0  0  0  0  0  0
   -0.5731   -4.4280    0.7232 C   0  0  0  0  0  0  0  0  0  0  0  0
  7  3  1  6
  8  9  1  0
 10 11  1  0
  7 12  1  0
 11 12  1  0
  6 13  1  0
 13 14  2  3
 14 15  1  0
 11 16  2  0
 13 17  1  0
  9 10  1  0
  7  8  1  0
  1  2  2  0
  2  6  1  0
  5  6  2  0
  4  5  1  0
  3  4  2  0
  1  3  1  0
M  END

$$$$
No_962-/export/home/yangzhenyu/potential_scad_32_flow//YTHDC2/2024-12-06-03-22-00/
     RDKit          3D

 19 21  0  0  0  0  0  0  0  0999 V2000
    1.1787   -8.0297    3.5154 C   0  0  0  0  0  0  0  0  0  0  0  0
    1.1048   -9.2215    3.2892 C   0  0  0  0  0  0  0  0  0  0  0  0
    1.3627  -10.1721    4.3044 C   0  0  0  0  0  0  0  0  0  0  0  0
    1.0682  -11.5187    4.0618 C   0  0  0  0  0  0  0  0  0  0  0  0
    0.6332  -11.9655    2.9682 C   0  0  0  0  0  0  0  0  0  0  0  0
    0.4776  -11.1308    1.9203 C   0  0  0  0  0  0  0  0  0  0  0  0
    0.7470   -9.8274    2.0368 C   0  0  0  0  0  0  0  0  0  0  0  0
    1.0387   -7.0301    2.5175 C   0  0  0  0  0  0  0  0  0  0  0  0
    0.9130   -7.5288    1.2013 C   0  0  0  0  0  0  0  0  0  0  0  0
    0.7893   -8.7979    0.9542 C   0  0  0  0  0  0  0  0  0  0  0  0
    0.3998  -13.3695    2.7114 C   0  0  0  0  0  0  0  0  0  0  0  0
   -0.8069  -13.8090    2.3159 C   0  0  0  0  0  0  0  0  0  0  0  0
   -1.0012  -15.1954    2.1657 C   0  0  0  0  0  0  0  0  0  0  0  0
   -0.0060  -16.1116    2.2775 C   0  0  0  0  0  0  0  0  0  0  0  0
    1.3310  -15.6885    2.7363 C   0  0  0  0  0  0  0  0  0  0  0  0
    1.5390  -14.2972    2.9647 C   0  0  0  0  0  0  0  0  0  0  0  0
    0.4415   -9.2683   -0.3642 O   0  0  0  0  0  0  0  0  0  0  0  0
    1.2957   -5.6005    2.5961 Cl  0  0  0  0  0  0  0  0  0  0  0  0
    2.3489  -16.5627    2.9716 O   0  0  0  0  0  0  0  0  0  0  0  0
  5 11  1  0
 10 17  1  0
  8 18  1  0
 15 19  1  0
 11 12  2  0
 12 13  1  0
 13 14  2  0
 14 15  1  0
 15 16  2  0
 11 16  1  0
  2  3  1  0
  3  4  2  0
  4  5  1  0
  5  6  2  0
  6  7  1  0
  1  2  2  0
  2  7  1  0
  7 10  2  0
  9 10  1  0
  8  9  2  0
  1  8  1  0
M  END

$$$$
No_963-/export/home/yangzhenyu/potential_scad_32_flow//YTHDC2/2024-12-06-03-22-00/
     RDKit          3D

 21 22  0  0  0  0  0  0  0  0999 V2000
    1.1787   -8.0297    3.5154 C   0  0  0  0  0  0  0  0  0  0  0  0
    1.0491   -6.8434    2.9820 C   0  0  0  0  0  0  0  0  0  0  0  0
    0.0950   -8.8404    3.2292 C   0  0  0  0  0  0  0  0  0  0  0  0
   -0.9173   -8.4596    2.5152 C   0  0  0  0  0  0  0  0  0  0  0  0
   -1.0331   -7.2162    2.0653 C   0  0  0  0  0  0  0  0  0  0  0  0
   -0.0105   -6.3168    2.3081 C   0  0  0  0  0  0  0  0  0  0  0  0
    0.0485   -4.9783    1.8782 C   0  0  0  0  0  0  0  0  0  0  0  0
   -0.4744   -4.1559    2.2381 C   0  0  0  0  0  0  0  0  0  0  0  0
   -1.3679   -4.2621    3.3724 C   0  0  0  0  0  0  0  0  0  0  0  0
    0.1387  -10.2563    3.6626 C   0  0  0  0  0  0  0  0  0  0  0  0
    0.1945  -11.2999    2.8768 C   0  0  0  0  0  0  0  0  0  0  0  0
   -0.4216  -11.5219    2.0285 C   0  0  0  0  0  0  0  0  0  0  0  0
    1.2725  -12.3289    3.3331 C   0  0  0  0  0  0  0  0  0  0  0  0
    1.3507  -13.4994    2.7308 C   0  0  0  0  0  0  0  0  0  0  0  0
    0.5700  -13.8532    1.8031 C   0  0  0  0  0  0  0  0  0  0  0  0
   -0.3418  -12.9153    1.3077 C   0  0  0  0  0  0  0  0  0  0  0  0
    0.7033  -15.1096    1.1607 C   0  0  0  0  0  0  0  0  0  0  0  0
    1.8181  -15.8062    1.4348 C   0  0  0  0  0  0  0  0  0  0  0  0
    1.8195  -17.2285    1.1989 C   0  0  0  0  0  0  0  0  0  0  0  0
    0.7856  -17.8383    0.6582 C   0  0  0  0  0  0  0  0  0  0  0  0
   -0.2562  -17.1788    0.3931 C   0  0  0  0  0  0  0  0  0  0  0  0
  6  7  1  0
  7  8  2  3
  8  9  1  0
  3 10  1  0
 10 11  1  0
 15 17  1  0
 17 18  2  3
 18 19  1  0
 19 20  2  3
 20 21  1  0
 11 12  2  0
 12 16  1  0
 15 16  2  0
 14 15  1  0
 13 14  2  0
 11 13  1  0
  1  2  2  0
  2  6  1  0
  5  6  2  0
  4  5  1  0
  3  4  2  0
  1  3  1  0
M  END

$$$$
No_964-/export/home/yangzhenyu/potential_scad_32_flow//YTHDC2/2024-12-06-03-22-00/
     RDKit          3D

 19 20  0  0  1  0  0  0  0  0999 V2000
    1.1787   -8.0297    3.5154 C   0  0  0  0  0  0  0  0  0  0  0  0
    1.1048   -9.2215    3.2892 C   0  0  0  0  0  0  0  0  0  0  0  0
    1.2339   -9.7611    2.0189 C   0  0  0  0  0  0  0  0  0  0  0  0
    1.1954  -11.2312    1.8661 C   0  0  0  0  0  0  0  0  0  0  0  0
    1.5546  -12.1691    2.7931 C   0  0  0  0  0  0  0  0  0  0  0  0
    0.5849   -7.0929    2.5729 N   0  0  0  0  0  0  0  0  0  0  0  0
    1.4449  -13.5430    2.3862 C   0  0  0  0  0  0  0  0  0  0  0  0
    1.0783  -13.8324    1.1212 C   0  0  0  0  0  0  0  0  0  0  0  0
    0.7531  -12.9637    0.1763 C   0  0  0  0  0  0  0  0  0  0  0  0
    0.8268  -11.5687    0.5202 C   0  0  0  0  0  0  0  0  0  0  0  0
    1.3491   -8.8200    0.9317 C   0  0  1  0  0  0  0  0  0  0  0  0
    1.0718   -7.4749    1.2025 C   0  0  0  0  0  0  0  0  0  0  0  0
    1.7776   -9.1193   -0.2485 C   0  0  0  0  0  0  0  0  0  0  0  0
    2.3316   -8.6593   -0.9831 O   0  0  0  0  0  0  0  0  0  0  0  0
    1.8274  -14.4628    3.3465 C   0  0  0  0  0  0  0  0  0  0  0  0
    0.7561   -5.6063    2.6794 C   0  0  0  0  0  0  0  0  0  0  0  0
    1.0037  -15.7795    3.0160 C   0  0  0  0  0  0  0  0  0  0  0  0
    1.2138  -16.6170    3.5580 C   0  0  0  0  0  0  0  0  0  0  0  0
    0.4965  -17.8380    3.6957 O   0  0  0  0  0  0  0  0  0  0  0  0
  1  2  1  0
  3  4  1  0
  1  6  1  0
  3 11  1  0
  6 12  1  0
 11 12  1  0
 11 13  1  1
 13 14  2  0
  7 15  1  0
  6 16  1  0
 15 17  1  0
 17 18  1  0
 18 19  2  0
  2  3  1  0
  4  5  2  0
  5  7  1  0
  7  8  2  0
  8  9  1  0
  9 10  2  0
  4 10  1  0
M  END

$$$$
No_965-/export/home/yangzhenyu/potential_scad_32_flow//YTHDC2/2024-12-06-03-22-00/
     RDKit          3D

 18 20  0  0  0  0  0  0  0  0999 V2000
    1.1787   -8.0297    3.5154 C   0  0  0  0  0  0  0  0  0  0  0  0
    1.1048   -9.2215    3.2892 C   0  0  0  0  0  0  0  0  0  0  0  0
    1.2339   -9.7611    2.0189 C   0  0  0  0  0  0  0  0  0  0  0  0
    1.1954  -11.2312    1.8661 C   0  0  0  0  0  0  0  0  0  0  0  0
    1.5546  -12.1691    2.7931 C   0  0  0  0  0  0  0  0  0  0  0  0
    0.5849   -7.0929    2.5729 C   0  0  0  0  0  0  0  0  0  0  0  0
    0.5567   -7.6699    1.1955 C   0  0  0  0  0  0  0  0  0  0  0  0
    0.7903   -8.9699    0.9209 C   0  0  0  0  0  0  0  0  0  0  0  0
    1.5479  -13.4950    2.3568 C   0  0  0  0  0  0  0  0  0  0  0  0
    1.1940  -13.5390    0.9220 C   0  0  0  0  0  0  0  0  0  0  0  0
    1.0005  -12.0843    0.5043 C   0  0  0  0  0  0  0  0  0  0  0  0
    0.5828   -5.6456    2.6388 C   0  0  0  0  0  0  0  0  0  0  0  0
    0.9765   -4.8564    1.7500 C   0  0  0  0  0  0  0  0  0  0  0  0
    1.8588  -14.6362    2.9613 C   0  0  0  0  0  0  0  0  0  0  0  0
    1.3673   -3.5333    1.9889 C   0  0  0  0  0  0  0  0  0  0  0  0
    1.4113  -15.8535    2.4104 C   0  0  0  0  0  0  0  0  0  0  0  0
    0.8980  -15.7764    1.1081 C   0  0  0  0  0  0  0  0  0  0  0  0
    0.8357  -14.5930    0.3944 C   0  0  0  0  0  0  0  0  0  0  0  0
  3  4  1  0
  4  5  1  0
  4 11  1  0
 10 11  1  0
  6 12  1  0
 12 13  1  0
 13 15  1  0
  5  9  1  0
  1  2  2  0
  2  3  1  0
  3  8  2  0
  7  8  1  0
  6  7  2  0
  1  6  1  0
  9 10  2  0
 10 18  1  0
 17 18  2  0
 16 17  1  0
 14 16  2  0
  9 14  1  0
M  END

$$$$
No_966-/export/home/yangzhenyu/potential_scad_32_flow//YTHDC2/2024-12-06-03-22-00/
     RDKit          3D

 19 20  0  0  1  0  0  0  0  0999 V2000
    1.1787   -8.0297    3.5154 O   0  0  0  0  0  0  0  0  0  0  0  0
    0.9969   -8.9689    3.0048 C   0  0  1  0  0  0  0  0  0  0  0  0
    0.9976   -8.9567    1.6341 C   0  0  0  0  0  0  0  0  0  0  0  0
    0.7663   -7.7728    1.0082 C   0  0  0  0  0  0  0  0  0  0  0  0
    1.1468   -6.5619    1.6541 C   0  0  0  0  0  0  0  0  0  0  0  0
    1.3592   -6.6155    3.0007 C   0  0  1  0  0  0  0  0  0  0  0  0
    0.9781  -10.1276    3.6866 C   0  0  0  0  0  0  0  0  0  0  0  0
   -0.1772  -10.7865    4.0343 N   0  0  0  0  0  0  0  0  0  0  0  0
    2.1459  -10.7891    4.0815 O   0  0  0  0  0  0  0  0  0  0  0  0
    0.4167   -7.7212   -0.2405 O   0  0  0  0  0  0  0  0  0  0  0  0
    1.2979  -10.0829    0.9009 O   0  0  0  0  0  0  0  0  0  0  0  0
    1.4431   -5.5429    3.7719 C   0  0  0  0  0  0  0  0  0  0  0  0
    1.2879   -5.4045    1.0356 O   0  0  0  0  0  0  0  0  0  0  0  0
   -1.3542  -10.4108    3.8319 C   0  0  0  0  0  0  0  0  0  0  0  0
   -2.1925  -11.1102    3.0370 C   0  0  0  0  0  0  0  0  0  0  0  0
   -3.5108  -10.7547    2.8920 C   0  0  0  0  0  0  0  0  0  0  0  0
   -4.0253   -9.7643    3.7624 C   0  0  0  0  0  0  0  0  0  0  0  0
   -3.2639   -9.1587    4.7275 C   0  0  0  0  0  0  0  0  0  0  0  0
   -1.8885   -9.5389    4.8251 C   0  0  0  0  0  0  0  0  0  0  0  0
  1  2  1  0
  2  3  1  0
  3  4  1  0
  4  5  1  0
  1  6  1  0
  5  6  1  0
  2  7  1  6
  7  8  1  0
  7  9  2  0
  4 10  2  0
  3 11  2  0
  6 12  1  1
  5 13  2  0
  8 14  1  0
 14 15  2  0
 15 16  1  0
 16 17  2  0
 17 18  1  0
 18 19  2  0
 14 19  1  0
M  END

$$$$
No_967-/export/home/yangzhenyu/potential_scad_32_flow//YTHDC2/2024-12-06-03-22-00/
     RDKit          3D

 17 17  0  0  0  0  0  0  0  0999 V2000
    1.1787   -8.0297    3.5154 C   0  0  0  0  0  0  0  0  0  0  0  0
    1.1048   -9.2215    3.2892 C   0  0  0  0  0  0  0  0  0  0  0  0
    1.3627  -10.1721    4.3044 C   0  0  0  0  0  0  0  0  0  0  0  0
    1.7354  -11.4730    3.9023 C   0  0  0  0  0  0  0  0  0  0  0  0
    1.8080  -11.8127    2.7216 C   0  0  0  0  0  0  0  0  0  0  0  0
    1.5854  -11.0021    1.7249 C   0  0  0  0  0  0  0  0  0  0  0  0
    1.3573   -9.7389    1.9287 C   0  0  0  0  0  0  0  0  0  0  0  0
    1.2865   -8.8078    0.9161 C   0  0  0  0  0  0  0  0  0  0  0  0
    0.9210   -7.5140    1.1674 O   0  0  0  0  0  0  0  0  0  0  0  0
    1.5321   -9.1645   -0.3432 N   0  0  0  0  0  0  0  0  0  0  0  0
    2.0924  -13.2035    2.3168 C   0  0  0  0  0  0  0  0  0  0  0  0
    2.4356  -13.5662    1.0535 O   0  0  0  0  0  0  0  0  0  0  0  0
    2.0782  -14.1912    3.2036 O   0  0  0  0  0  0  0  0  0  0  0  0
    0.1207   -7.2164    3.6876 N   0  0  0  0  0  0  0  0  0  0  0  0
    0.0073   -6.0259    3.1794 C   0  0  0  0  0  0  0  0  0  0  0  0
    1.0526   -5.0810    3.3695 C   0  0  0  0  0  0  0  0  0  0  0  0
    1.0810   -3.8082    2.8175 C   0  0  0  0  0  0  0  0  0  0  0  0
  1  2  1  0
  7  8  1  0
  8  9  2  0
  8 10  1  0
  5 11  1  0
 11 12  2  0
 11 13  1  0
  1 14  1  0
 14 15  1  0
 15 16  2  3
 16 17  1  0
  2  3  2  0
  3  4  1  0
  4  5  2  0
  5  6  1  0
  6  7  2  0
  2  7  1  0
M  END

$$$$
No_968-/export/home/yangzhenyu/potential_scad_32_flow//YTHDC2/2024-12-06-03-22-00/
     RDKit          3D

 18 18  0  0  0  0  0  0  0  0999 V2000
    1.1787   -8.0297    3.5154 C   0  0  0  0  0  0  0  0  0  0  0  0
    1.1048   -9.2215    3.2892 C   0  0  0  0  0  0  0  0  0  0  0  0
    1.3627  -10.1721    4.3044 C   0  0  0  0  0  0  0  0  0  0  0  0
    1.7354  -11.4730    3.9023 C   0  0  0  0  0  0  0  0  0  0  0  0
    1.8080  -11.8127    2.7216 C   0  0  0  0  0  0  0  0  0  0  0  0
    1.5854  -11.0021    1.7249 C   0  0  0  0  0  0  0  0  0  0  0  0
    1.3573   -9.7389    1.9287 C   0  0  0  0  0  0  0  0  0  0  0  0
    1.1102   -8.8712    0.9017 C   0  0  0  0  0  0  0  0  0  0  0  0
    1.5724   -9.1697   -0.3048 C   0  0  0  0  0  0  0  0  0  0  0  0
    2.8854   -9.3955   -0.5183 O   0  0  0  0  0  0  0  0  0  0  0  0
    0.9709   -8.8651   -1.4536 O   0  0  0  0  0  0  0  0  0  0  0  0
    2.1066  -13.4565    2.3737 C   0  0  0  0  0  0  0  0  0  0  0  0
    2.0706  -14.2343    3.2357 O   0  0  0  0  0  0  0  0  0  0  0  0
    2.1876  -13.7360    1.1730 O   0  0  0  0  0  0  0  0  0  0  0  0
    2.3200   -7.1752    3.6164 O   0  0  0  0  0  0  0  0  0  0  0  0
    0.0195   -7.3965    3.6086 O   0  0  0  0  0  0  0  0  0  0  0  0
    1.5910  -15.5096    3.0156 C   0  0  0  0  0  0  0  0  0  0  0  0
    0.1831  -15.7297    3.2050 C   0  0  0  0  0  0  0  0  0  0  0  0
  1  2  1  0
  7  8  1  0
  8  9  1  0
  9 10  1  0
  9 11  2  0
  5 12  1  0
 12 13  1  0
 12 14  2  0
  1 15  2  0
  1 16  1  0
 13 17  1  0
 17 18  1  0
  2  3  2  0
  3  4  1  0
  4  5  2  0
  5  6  1  0
  6  7  2  0
  2  7  1  0
M  END

$$$$
No_969-/export/home/yangzhenyu/potential_scad_32_flow//YTHDC2/2024-12-06-03-22-00/
     RDKit          3D

 18 19  0  0  1  0  0  0  0  0999 V2000
    1.1787   -8.0297    3.5154 C   0  0  0  0  0  0  0  0  0  0  0  0
    1.0491   -6.8434    2.9820 C   0  0  0  0  0  0  0  0  0  0  0  0
    0.2462   -8.9560    3.0873 C   0  0  0  0  0  0  0  0  0  0  0  0
    0.3295   -6.5187    1.9069 C   0  0  0  0  0  0  0  0  0  0  0  0
   -0.5260   -8.7862    2.1368 C   0  0  0  0  0  0  0  0  0  0  0  0
   -0.5458   -7.5614    1.5054 C   0  0  0  0  0  0  0  0  0  0  0  0
    0.3663  -10.3301    3.7373 C   0  0  2  0  0  0  0  0  0  0  0  0
    0.4170  -11.5175    2.8838 C   0  0  0  0  0  0  0  0  0  0  0  0
    1.6831  -12.1812    3.0385 C   0  0  0  0  0  0  0  0  0  0  0  0
    1.6868  -13.3507    2.2813 C   0  0  0  0  0  0  0  0  0  0  0  0
    0.7779  -13.7745    1.5229 C   0  0  0  0  0  0  0  0  0  0  0  0
   -0.3486  -13.0846    1.3195 C   0  0  2  0  0  0  0  0  0  0  0  0
   -0.5170  -11.9311    2.0641 C   0  0  0  0  0  0  0  0  0  0  0  0
    0.3412   -5.2733    1.3182 Br  0  0  0  0  0  0  0  0  0  0  0  0
   -0.6368  -10.4730    4.7466 C   0  0  0  0  0  0  0  0  0  0  0  0
   -1.6911  -11.3127    1.9105 O   0  0  0  0  0  0  0  0  0  0  0  0
    2.8976  -14.1206    2.4442 Cl  0  0  0  0  0  0  0  0  0  0  0  0
   -1.5661  -13.5629    0.3023 C   0  0  0  0  0  0  0  0  0  0  0  0
  3  7  1  0
  7  8  1  0
  8  9  1  0
 10 11  1  0
  8 13  1  0
 12 13  1  0
  4 14  1  0
  7 15  1  1
 13 16  2  0
 10 17  1  0
 12 18  1  1
  9 10  1  0
 11 12  1  0
  1  2  2  0
  2  4  1  0
  4  6  2  0
  5  6  1  0
  3  5  2  0
  1  3  1  0
M  END

$$$$
No_970-/export/home/yangzhenyu/potential_scad_32_flow//YTHDC2/2024-12-06-03-22-00/
     RDKit          3D

 20 22  0  0  0  0  0  0  0  0999 V2000
    1.1787   -8.0297    3.5154 N   0  0  0  0  0  0  0  0  0  0  0  0
    1.0818   -9.0751    3.2053 C   0  0  0  0  0  0  0  0  0  0  0  0
    0.6776   -9.2823    1.8784 C   0  0  0  0  0  0  0  0  0  0  0  0
    0.6499   -8.2458    1.0911 C   0  0  0  0  0  0  0  0  0  0  0  0
    1.0003   -7.0553    1.3874 C   0  0  0  0  0  0  0  0  0  0  0  0
    1.4198   -6.8540    2.6862 C   0  0  0  0  0  0  0  0  0  0  0  0
    1.0565  -10.2713    4.0457 C   0  0  0  0  0  0  0  0  0  0  0  0
    1.0853  -11.5307    3.3579 C   0  0  0  0  0  0  0  0  0  0  0  0
    0.8568  -11.7212    2.1960 C   0  0  0  0  0  0  0  0  0  0  0  0
    0.7264  -10.5828    1.3596 C   0  0  0  0  0  0  0  0  0  0  0  0
    0.7066  -13.0469    1.6156 C   0  0  0  0  0  0  0  0  0  0  0  0
   -0.3927  -13.3555    0.8632 C   0  0  0  0  0  0  0  0  0  0  0  0
   -1.4759  -12.7307    1.0799 C   0  0  0  0  0  0  0  0  0  0  0  0
   -2.6634  -13.0032    0.3730 C   0  0  0  0  0  0  0  0  0  0  0  0
   -2.5360  -13.9859   -0.6283 C   0  0  0  0  0  0  0  0  0  0  0  0
   -1.3933  -14.6663   -0.7964 C   0  0  0  0  0  0  0  0  0  0  0  0
   -0.2075  -14.2983   -0.1230 C   0  0  0  0  0  0  0  0  0  0  0  0
    0.4504   -8.4442   -0.3707 O   0  0  0  0  0  0  0  0  0  0  0  0
    1.5663   -5.5712    3.3436 I   0  0  0  0  0  0  0  0  0  0  0  0
   -1.2059  -15.6699   -1.8032 O   0  0  0  0  0  0  0  0  0  0  0  0
  9 11  1  0
 11 12  1  0
 13 14  1  0
 15 16  1  0
 12 17  1  0
 16 17  1  0
  4 18  1  0
  6 19  1  0
 16 20  2  0
 14 15  1  0
 12 13  1  0
  1  2  2  0
  3  4  2  0
  4  5  1  0
  5  6  2  0
  1  6  1  0
  2  3  1  0
  3 10  1  0
  9 10  2  0
  8  9  1  0
  7  8  2  0
  2  7  1  0
M  END

$$$$
No_971-/export/home/yangzhenyu/potential_scad_32_flow//YTHDC2/2024-12-06-03-22-00/
     RDKit          3D

 20 21  0  0  1  0  0  0  0  0999 V2000
    1.1787   -8.0297    3.5154 C   0  0  0  0  0  0  0  0  0  0  0  0
    1.0491   -6.8434    2.9820 C   0  0  0  0  0  0  0  0  0  0  0  0
    1.9985   -8.9840    2.8958 C   0  0  0  0  0  0  0  0  0  0  0  0
    1.1815  -10.1889    2.5497 C   0  0  2  0  0  0  0  0  0  0  0  0
    0.9817  -11.1388    2.8134 C   0  0  2  0  0  0  0  0  0  0  0  0
    0.1125  -12.0891    2.4838 C   0  0  0  0  0  0  0  0  0  0  0  0
   -0.6446  -11.8250    1.4596 C   0  0  0  0  0  0  0  0  0  0  0  0
   -0.2941  -10.7598    0.6431 C   0  0  0  0  0  0  0  0  0  0  0  0
    0.5711   -9.8346    1.1239 C   0  0  0  0  0  0  0  0  0  0  0  0
    1.1126   -6.5544    1.9406 C   0  0  0  0  0  0  0  0  0  0  0  0
    0.6894   -5.7805    1.3372 C   0  0  0  0  0  0  0  0  0  0  0  0
   -0.7040   -5.6158    1.1025 C   0  0  0  0  0  0  0  0  0  0  0  0
   -1.3720   -4.6738    0.3320 C   0  0  0  0  0  0  0  0  0  0  0  0
   -0.9755   -3.4027    0.2604 C   0  0  0  0  0  0  0  0  0  0  0  0
    0.0280   -2.8199    1.0876 C   0  0  0  0  0  0  0  0  0  0  0  0
    1.3017   -3.5428    1.2916 C   0  0  0  0  0  0  0  0  0  0  0  0
    1.4755   -4.6418    1.7103 C   0  0  0  0  0  0  0  0  0  0  0  0
    1.6779  -11.5740    4.1847 Cl  0  0  0  0  0  0  0  0  0  0  0  0
    0.9706   -8.7302    0.3343 O   0  0  0  0  0  0  0  0  0  0  0  0
   -1.8575   -2.3820   -0.4602 O   0  0  0  0  0  0  0  0  0  0  0  0
  1  2  1  0
  1  3  1  0
  4  3  1  6
  4  5  1  0
  6  7  1  0
  4  9  1  0
  8  9  1  0
  2 10  2  3
 10 11  1  0
 11 12  2  0
 12 13  1  0
 13 14  2  0
 14 15  1  0
 15 16  1  0
 11 17  1  0
 16 17  1  0
  5 18  1  1
  9 19  2  0
 14 20  1  0
  5  6  1  0
  7  8  1  0
M  END

$$$$
No_972-/export/home/yangzhenyu/potential_scad_32_flow//YTHDC2/2024-12-06-03-22-00/
     RDKit          3D

 19 21  0  0  0  0  0  0  0  0999 V2000
    1.1787   -8.0297    3.5154 C   0  0  0  0  0  0  0  0  0  0  0  0
    1.0491   -6.8434    2.9820 C   0  0  0  0  0  0  0  0  0  0  0  0
    0.9905   -9.0774    2.6527 C   0  0  0  0  0  0  0  0  0  0  0  0
    0.7897   -8.9519    1.3691 C   0  0  0  0  0  0  0  0  0  0  0  0
    0.7018   -7.7198    0.7892 C   0  0  0  0  0  0  0  0  0  0  0  0
    0.8918   -6.5957    1.6117 C   0  0  0  0  0  0  0  0  0  0  0  0
    1.0998  -10.4710    3.2437 C   0  0  0  0  0  0  0  0  0  0  0  0
    2.1917  -10.8879    3.7399 C   0  0  0  0  0  0  0  0  0  0  0  0
    0.8624   -5.2493    1.2482 O   0  0  0  0  0  0  0  0  0  0  0  0
   -0.0197  -11.2254    3.3616 C   0  0  0  0  0  0  0  0  0  0  0  0
   -0.0771  -12.5027    3.1731 C   0  0  0  0  0  0  0  0  0  0  0  0
    1.2175  -13.1282    2.9679 C   0  0  0  0  0  0  0  0  0  0  0  0
    2.4121  -12.2526    3.3960 C   0  0  0  0  0  0  0  0  0  0  0  0
    1.3727  -14.4840    3.1351 C   0  0  0  0  0  0  0  0  0  0  0  0
    0.2916  -15.2478    2.9200 C   0  0  0  0  0  0  0  0  0  0  0  0
    0.4193  -16.6017    2.9507 C   0  0  0  0  0  0  0  0  0  0  0  0
    1.4506  -17.3825    2.3579 C   0  0  0  0  0  0  0  0  0  0  0  0
    2.4619  -16.6011    1.7046 C   0  0  0  0  0  0  0  0  0  0  0  0
    2.5622  -15.2043    2.2297 C   0  0  0  0  0  0  0  0  0  0  0  0
  1  2  1  0
  3  4  1  0
  2  6  1  0
  5  6  1  0
  3  7  1  0
  6  9  2  0
 12 14  1  0
  1  3  1  0
  4  5  1  0
  7  8  2  0
  8 13  1  0
 12 13  2  0
 11 12  1  0
 10 11  2  0
  7 10  1  0
 14 15  2  0
 15 16  1  0
 16 17  2  0
 17 18  1  0
 18 19  2  0
 14 19  1  0
M  END

$$$$
No_973-/export/home/yangzhenyu/potential_scad_32_flow//YTHDC2/2024-12-06-03-22-00/
     RDKit          3D

 20 21  0  0  1  0  0  0  0  0999 V2000
    1.1787   -8.0297    3.5154 C   0  0  0  0  0  0  0  0  0  0  0  0
    1.0491   -6.8434    2.9820 C   0  0  0  0  0  0  0  0  0  0  0  0
    1.9985   -8.9840    2.8958 C   0  0  1  0  0  0  0  0  0  0  0  0
    1.9135  -10.3404    3.6266 C   0  0  0  0  0  0  0  0  0  0  0  0
    0.7479  -10.9191    3.7202 C   0  0  1  0  0  0  0  0  0  0  0  0
    1.3327   -6.5751    1.7543 C   0  0  0  0  0  0  0  0  0  0  0  0
    0.7229  -12.3140    3.5934 C   0  0  0  0  0  0  0  0  0  0  0  0
    1.5509   -7.5470    0.8954 C   0  0  0  0  0  0  0  0  0  0  0  0
    1.9782   -8.8213    1.3756 C   0  0  1  0  0  0  0  0  0  0  0  0
    1.8471  -13.0965    3.5527 C   0  0  0  0  0  0  0  0  0  0  0  0
    1.5931  -14.4696    2.9773 C   0  0  0  0  0  0  0  0  0  0  0  0
    0.4132  -14.8822    2.7397 C   0  0  0  0  0  0  0  0  0  0  0  0
   -0.6937  -14.0493    2.7865 C   0  0  0  0  0  0  0  0  0  0  0  0
   -0.5280  -12.7636    3.1925 C   0  0  0  0  0  0  0  0  0  0  0  0
    2.5806   -9.7133    0.6794 C   0  0  0  0  0  0  0  0  0  0  0  0
    2.1606  -10.5107    0.0226 Br  0  0  0  0  0  0  0  0  0  0  0  0
    1.1275   -5.2889    1.1940 O   0  0  0  0  0  0  0  0  0  0  0  0
    0.2683  -16.2430    2.3448 O   0  0  0  0  0  0  0  0  0  0  0  0
    1.0447  -17.2045    2.9476 C   0  0  0  0  0  0  0  0  0  0  0  0
   -0.2464  -10.3029    4.3736 C   0  0  0  0  0  0  0  0  0  0  0  0
  1  2  1  0
  1  3  1  0
  3  4  1  6
  4  5  1  0
  2  6  1  0
  5  7  1  0
  6  8  1  0
  3  9  1  0
  8  9  1  0
  9 15  1  1
 15 16  1  0
  6 17  2  0
 12 18  1  0
 18 19  1  0
  5 20  1  1
  7 10  2  0
 10 11  1  0
 11 12  2  0
 12 13  1  0
 13 14  2  0
  7 14  1  0
M  END

$$$$
No_974-/export/home/yangzhenyu/potential_scad_32_flow//YTHDC2/2024-12-06-03-22-00/
     RDKit          3D

 21 23  0  0  0  0  0  0  0  0999 V2000
    1.1787   -8.0297    3.5154 N   0  0  0  0  0  0  0  0  0  0  0  0
    1.0818   -9.0751    3.2053 C   0  0  0  0  0  0  0  0  0  0  0  0
    0.7576   -9.3725    1.9159 C   0  0  0  0  0  0  0  0  0  0  0  0
    0.8823   -8.4917    1.0547 C   0  0  0  0  0  0  0  0  0  0  0  0
    1.4631   -7.3107    1.2451 C   0  0  0  0  0  0  0  0  0  0  0  0
    1.6470   -6.9326    2.5669 C   0  0  0  0  0  0  0  0  0  0  0  0
    1.3528  -10.3032    4.1933 C   0  0  0  0  0  0  0  0  0  0  0  0
    1.5521  -11.5457    3.5017 C   0  0  0  0  0  0  0  0  0  0  0  0
    1.2125  -11.8122    2.2891 C   0  0  0  0  0  0  0  0  0  0  0  0
    0.9874  -10.7110    1.4171 C   0  0  0  0  0  0  0  0  0  0  0  0
    1.2482  -13.3828    1.7765 Cl  0  0  0  0  0  0  0  0  0  0  0  0
    1.5992   -5.5738    3.0699 C   0  0  0  0  0  0  0  0  0  0  0  0
    0.7295   -8.6734   -0.4092 C   0  0  0  0  0  0  0  0  0  0  0  0
   -0.7528   -8.9750   -0.6576 O   0  0  0  0  0  0  0  0  0  0  0  0
    1.3137   -8.7800   -1.3788 O   0  0  0  0  0  0  0  0  0  0  0  0
    1.3145   -4.5997    2.1639 C   0  0  0  0  0  0  0  0  0  0  0  0
    1.8927   -3.3450    2.3256 C   0  0  0  0  0  0  0  0  0  0  0  0
    1.5053   -2.3155    1.3507 C   0  0  0  0  0  0  0  0  0  0  0  0
    0.6195   -2.1222    0.7673 C   0  0  0  0  0  0  0  0  0  0  0  0
   -0.2202   -3.4118    0.5319 C   0  0  0  0  0  0  0  0  0  0  0  0
    0.0468   -4.4987    1.2391 C   0  0  0  0  0  0  0  0  0  0  0  0
  9 11  1  0
  6 12  1  0
  4 13  1  0
 13 14  1  0
 13 15  2  0
 12 16  1  0
  1  2  2  0
  3  4  2  0
  4  5  1  0
  5  6  2  0
  1  6  1  0
  2  3  1  0
  3 10  1  0
  9 10  2  0
  8  9  1  0
  7  8  2  0
  2  7  1  0
 16 17  2  0
 17 18  1  0
 18 19  2  0
 19 20  1  0
 20 21  2  0
 16 21  1  0
M  END

$$$$
No_975-/export/home/yangzhenyu/potential_scad_32_flow//YTHDC2/2024-12-06-03-22-00/
     RDKit          3D

 19 21  0  0  0  0  0  0  0  0999 V2000
    1.1787   -8.0297    3.5154 N   0  0  0  0  0  0  0  0  0  0  0  0
    1.0818   -9.0751    3.2053 C   0  0  0  0  0  0  0  0  0  0  0  0
    1.5216  -10.1164    3.9747 C   0  0  0  0  0  0  0  0  0  0  0  0
    1.4420  -11.4363    3.6461 C   0  0  0  0  0  0  0  0  0  0  0  0
    0.5969  -11.7648    2.6785 C   0  0  0  0  0  0  0  0  0  0  0  0
    0.0096  -10.8332    1.9506 C   0  0  0  0  0  0  0  0  0  0  0  0
    0.3359   -9.5186    2.1388 C   0  0  0  0  0  0  0  0  0  0  0  0
    1.1574   -6.9183    2.6875 C   0  0  0  0  0  0  0  0  0  0  0  0
    0.6585   -7.2272    1.4255 N   0  0  0  0  0  0  0  0  0  0  0  0
    0.2295   -8.4509    1.1163 C   0  0  0  0  0  0  0  0  0  0  0  0
   -0.3809   -8.6252   -0.0013 C   0  0  0  0  0  0  0  0  0  0  0  0
    0.3585   -8.9067   -1.2189 O   0  0  0  0  0  0  0  0  0  0  0  0
   -1.6332   -8.3617   -0.2083 O   0  0  0  0  0  0  0  0  0  0  0  0
    0.3163  -13.1786    2.4165 C   0  0  0  0  0  0  0  0  0  0  0  0
    1.1791  -14.1375    2.8692 C   0  0  0  0  0  0  0  0  0  0  0  0
    0.7482  -15.4794    2.9074 C   0  0  0  0  0  0  0  0  0  0  0  0
   -0.3445  -15.8103    2.3758 C   0  0  0  0  0  0  0  0  0  0  0  0
   -1.1522  -14.9903    1.8256 C   0  0  0  0  0  0  0  0  0  0  0  0
   -0.8148  -13.5952    1.8668 C   0  0  0  0  0  0  0  0  0  0  0  0
 10 11  1  0
 11 12  1  0
 11 13  2  0
  5 14  1  0
  2  3  1  0
  3  4  2  0
  4  5  1  0
  5  6  2  0
  6  7  1  0
  1  2  2  0
  2  7  1  0
  7 10  2  0
  9 10  1  0
  8  9  2  0
  1  8  1  0
 14 15  2  0
 15 16  1  0
 16 17  2  0
 17 18  1  0
 18 19  2  0
 14 19  1  0
M  END

$$$$
No_976-/export/home/yangzhenyu/potential_scad_32_flow//YTHDC2/2024-12-06-03-22-00/
     RDKit          3D

 16 17  0  0  1  0  0  0  0  0999 V2000
    1.1787   -8.0297    3.5154 O   0  0  0  0  0  0  0  0  0  0  0  0
    0.9969   -8.9689    3.0048 C   0  0  1  0  0  0  0  0  0  0  0  0
    0.9976   -8.9567    1.6341 C   0  0  0  0  0  0  0  0  0  0  0  0
    0.7663   -7.7728    1.0082 C   0  0  0  0  0  0  0  0  0  0  0  0
    1.1468   -6.5619    1.6541 C   0  0  0  0  0  0  0  0  0  0  0  0
    0.8575   -5.3105    0.9942 C   0  0  0  0  0  0  0  0  0  0  0  0
    1.2629  -10.2709    3.5694 C   0  0  2  0  0  0  0  0  0  0  0  0
    2.4588  -10.6427    3.7491 C   0  0  0  0  0  0  0  0  0  0  0  0
    1.1689   -4.1812    1.9556 C   0  0  0  0  0  0  0  0  0  0  0  0
    1.5521   -4.3950    3.2820 C   0  0  0  0  0  0  0  0  0  0  0  0
    1.6626   -5.5859    3.7851 C   0  0  0  0  0  0  0  0  0  0  0  0
    1.4322   -6.7329    3.0769 C   0  0  0  0  0  0  0  0  0  0  0  0
    0.8772   -7.7829   -0.3506 O   0  0  0  0  0  0  0  0  0  0  0  0
    0.7597  -10.0576    0.8093 O   0  0  0  0  0  0  0  0  0  0  0  0
    0.6208  -11.4756    2.7824 C   0  0  0  0  0  0  0  0  0  0  0  0
   -0.6728  -11.6923    3.1292 O   0  0  0  0  0  0  0  0  0  0  0  0
  2  1  1  1
  2  3  1  0
  3  4  1  0
  4  5  1  0
  2  7  1  0
  7  8  1  6
  1 12  1  0
  4 13  2  0
  3 14  2  0
  7 15  1  0
 15 16  1  0
  5  6  2  0
  6  9  1  0
  9 10  2  0
 10 11  1  0
 11 12  2  0
  5 12  1  0
M  END

$$$$
No_977-/export/home/yangzhenyu/potential_scad_32_flow//YTHDC2/2024-12-06-03-22-00/
     RDKit          3D

 18 20  0  0  1  0  0  0  0  0999 V2000
    1.1787   -8.0297    3.5154 C   0  0  0  0  0  0  0  0  0  0  0  0
    1.0491   -6.8434    2.9820 C   0  0  0  0  0  0  0  0  0  0  0  0
    1.9985   -8.9840    2.8958 C   0  0  1  0  0  0  0  0  0  0  0  0
    1.9135  -10.3404    3.6266 C   0  0  0  0  0  0  0  0  0  0  0  0
    1.3291  -11.3908    3.0222 C   0  0  0  0  0  0  0  0  0  0  0  0
    1.2749  -12.5326    3.7562 N   0  0  0  0  0  0  0  0  0  0  0  0
    0.4268   -6.6424    1.7839 C   0  0  0  0  0  0  0  0  0  0  0  0
    0.4073   -7.4827    1.0070 C   0  0  0  0  0  0  0  0  0  0  0  0
    0.8703   -8.8768    1.0972 C   0  0  1  0  0  0  0  0  0  0  0  0
    0.5296   -9.4742   -0.2345 C   0  0  0  0  0  0  0  0  0  0  0  0
    1.5488   -9.4995    1.9199 C   0  0  2  0  0  0  0  0  0  0  0  0
    0.0370   -8.8591   -1.2729 O   0  0  0  0  0  0  0  0  0  0  0  0
    0.1917  -10.8227   -0.1145 O   0  0  0  0  0  0  0  0  0  0  0  0
    0.6591  -13.6539    3.0620 C   0  0  0  0  0  0  0  0  0  0  0  0
    0.2960  -13.6088    1.9161 N   0  0  0  0  0  0  0  0  0  0  0  0
    0.5087  -12.3654    1.4027 C   0  0  0  0  0  0  0  0  0  0  0  0
    1.0413  -11.2973    1.7529 C   0  0  0  0  0  0  0  0  0  0  0  0
    0.1033   -5.2649    1.4612 C   0  0  0  0  0  0  0  0  0  0  0  0
  1  2  1  0
  3  1  1  1
  3  4  1  0
  4  5  1  0
  2  7  1  0
  7  8  2  0
  8  9  1  0
  9 10  1  6
  3 11  1  0
  9 11  1  0
 10 12  2  0
 10 13  1  0
 11 17  1  1
  7 18  1  0
  5  6  2  0
  6 14  1  0
 14 15  2  0
 15 16  1  0
 16 17  2  0
  5 17  1  0
M  END

$$$$
No_978-/export/home/yangzhenyu/potential_scad_32_flow//YTHDC2/2024-12-06-03-22-00/
     RDKit          3D

 18 20  0  0  0  0  0  0  0  0999 V2000
    1.1787   -8.0297    3.5154 C   0  0  0  0  0  0  0  0  0  0  0  0
    1.0491   -6.8434    2.9820 C   0  0  0  0  0  0  0  0  0  0  0  0
    0.0950   -8.8404    3.2292 C   0  0  0  0  0  0  0  0  0  0  0  0
   -0.7663   -8.2602    2.4375 C   0  0  0  0  0  0  0  0  0  0  0  0
   -0.3589   -6.8665    2.1913 C   0  0  0  0  0  0  0  0  0  0  0  0
    0.1065  -10.2381    3.6126 C   0  0  0  0  0  0  0  0  0  0  0  0
   -1.1911  -10.7747    3.7647 C   0  0  0  0  0  0  0  0  0  0  0  0
   -2.2107  -10.1975    2.9844 C   0  0  0  0  0  0  0  0  0  0  0  0
   -2.0114   -8.8646    2.4814 C   0  0  0  0  0  0  0  0  0  0  0  0
   -3.4570  -10.7180    2.9620 C   0  0  0  0  0  0  0  0  0  0  0  0
   -3.5746  -12.0817    2.6335 C   0  0  0  0  0  0  0  0  0  0  0  0
   -4.9121  -12.6526    2.8897 C   0  0  0  0  0  0  0  0  0  0  0  0
   -5.9408  -11.8199    3.2559 C   0  0  0  0  0  0  0  0  0  0  0  0
   -5.7742  -10.5424    3.5120 C   0  0  0  0  0  0  0  0  0  0  0  0
   -4.5094   -9.9224    3.3652 C   0  0  0  0  0  0  0  0  0  0  0  0
   -0.8576   -5.7620    1.4548 C   0  0  0  0  0  0  0  0  0  0  0  0
   -0.4127   -4.5891    1.6580 C   0  0  0  0  0  0  0  0  0  0  0  0
   -0.9661   -3.5487    0.7190 C   0  0  0  0  0  0  0  0  0  0  0  0
  1  2  1  0
  2  5  2  0
  4  5  1  0
  8 10  1  0
  5 16  1  0
 16 17  2  3
 17 18  1  0
  1  3  1  0
 10 11  2  0
 11 12  1  0
 12 13  2  0
 13 14  1  0
 14 15  2  0
 10 15  1  0
  3  4  2  0
  4  9  1  0
  8  9  2  0
  7  8  1  0
  6  7  2  0
  3  6  1  0
M  END

$$$$
No_979-/export/home/yangzhenyu/potential_scad_32_flow//YTHDC2/2024-12-06-03-22-00/
     RDKit          3D

 15 16  0  0  0  0  0  0  0  0999 V2000
    1.1787   -8.0297    3.5154 C   0  0  0  0  0  0  0  0  0  0  0  0
    1.1048   -9.2215    3.2892 C   0  0  0  0  0  0  0  0  0  0  0  0
    1.3627  -10.1721    4.3044 C   0  0  0  0  0  0  0  0  0  0  0  0
    1.0682  -11.5187    4.0618 C   0  0  0  0  0  0  0  0  0  0  0  0
    0.6332  -11.9655    2.9682 C   0  0  0  0  0  0  0  0  0  0  0  0
    0.4776  -11.1308    1.9203 C   0  0  0  0  0  0  0  0  0  0  0  0
    0.7470   -9.8274    2.0368 C   0  0  0  0  0  0  0  0  0  0  0  0
    1.0387   -7.0301    2.5175 N   0  0  0  0  0  0  0  0  0  0  0  0
    1.0482   -5.6912    2.8349 O   0  0  0  0  0  0  0  0  0  0  0  0
    0.4192  -13.5551    2.8022 C   0  0  0  0  0  0  0  0  0  0  0  0
    1.3465  -14.2916    3.3198 C   0  0  0  0  0  0  0  0  0  0  0  0
    1.1699  -15.7128    3.1156 C   0  0  0  0  0  0  0  0  0  0  0  0
    0.0904  -16.1798    2.5464 C   0  0  0  0  0  0  0  0  0  0  0  0
   -0.8031  -15.3391    1.9949 C   0  0  0  0  0  0  0  0  0  0  0  0
   -0.5913  -13.9983    2.1033 C   0  0  0  0  0  0  0  0  0  0  0  0
  1  2  1  0
  1  8  1  0
  8  9  2  0
  5 10  1  0
  2  3  2  0
  3  4  1  0
  4  5  2  0
  5  6  1  0
  6  7  2  0
  2  7  1  0
 10 11  2  0
 11 12  1  0
 12 13  2  0
 13 14  1  0
 14 15  2  0
 10 15  1  0
M  END

$$$$
No_980-/export/home/yangzhenyu/potential_scad_32_flow//YTHDC2/2024-12-06-03-22-00/
     RDKit          3D

 20 21  0  0  0  0  0  0  0  0999 V2000
    1.1787   -8.0297    3.5154 C   0  0  0  0  0  0  0  0  0  0  0  0
    1.0491   -6.8434    2.9820 C   0  0  0  0  0  0  0  0  0  0  0  0
    0.0950   -8.8404    3.2292 C   0  0  0  0  0  0  0  0  0  0  0  0
   -0.9173   -8.4596    2.5152 C   0  0  0  0  0  0  0  0  0  0  0  0
   -1.0331   -7.2162    2.0653 C   0  0  0  0  0  0  0  0  0  0  0  0
   -0.0105   -6.3168    2.3081 C   0  0  0  0  0  0  0  0  0  0  0  0
    0.1465  -10.2446    3.6981 C   0  0  0  0  0  0  0  0  0  0  0  0
    1.2433  -10.8239    4.0166 C   0  0  0  0  0  0  0  0  0  0  0  0
    1.0790  -12.2885    4.3779 C   0  0  0  0  0  0  0  0  0  0  0  0
    0.8834  -12.9822    3.2583 C   0  0  0  0  0  0  0  0  0  0  0  0
    0.0265  -12.5445    2.3035 C   0  0  0  0  0  0  0  0  0  0  0  0
   -0.3056  -11.1111    2.4912 C   0  0  0  0  0  0  0  0  0  0  0  0
    1.0942  -14.4341    3.2894 Cl  0  0  0  0  0  0  0  0  0  0  0  0
   -0.1030   -4.9885    1.8774 Cl  0  0  0  0  0  0  0  0  0  0  0  0
   -2.2519   -6.7378    1.5323 C   0  0  0  0  0  0  0  0  0  0  0  0
   -3.2475   -6.3712    2.1819 C   0  0  0  0  0  0  0  0  0  0  0  0
   -3.5597   -6.8072    3.1489 N   0  0  0  0  0  0  0  0  0  0  0  0
   -4.6473   -6.4755    3.9385 C   0  0  0  0  0  0  0  0  0  0  0  0
   -4.2564   -5.6904    1.6205 O   0  0  0  0  0  0  0  0  0  0  0  0
   -2.2037   -6.6721    0.0344 O   0  0  0  0  0  0  0  0  0  0  0  0
  3  7  1  0
 10 13  1  0
  6 14  1  0
  5 15  1  0
 15 16  1  0
 16 17  1  0
 17 18  1  0
 16 19  2  0
 15 20  2  0
  1  2  2  0
  2  6  1  0
  5  6  2  0
  4  5  1  0
  3  4  2  0
  1  3  1  0
  7  8  2  0
  8  9  1  0
  9 10  2  0
 10 11  1  0
 11 12  2  0
  7 12  1  0
M  END

$$$$
No_981-/export/home/yangzhenyu/potential_scad_32_flow//YTHDC2/2024-12-06-03-22-00/
     RDKit          3D

 17 18  0  0  0  0  0  0  0  0999 V2000
    1.1787   -8.0297    3.5154 C   0  0  0  0  0  0  0  0  0  0  0  0
    1.1048   -9.2215    3.2892 C   0  0  0  0  0  0  0  0  0  0  0  0
    1.2339   -9.7611    2.0189 C   0  0  0  0  0  0  0  0  0  0  0  0
    1.3583   -9.0036    0.9764 C   0  0  0  0  0  0  0  0  0  0  0  0
    1.5996   -7.6362    1.1311 C   0  0  0  0  0  0  0  0  0  0  0  0
    1.4830   -7.0928    2.3626 C   0  0  0  0  0  0  0  0  0  0  0  0
    1.1171  -11.3311    1.8661 C   0  0  0  0  0  0  0  0  0  0  0  0
    1.9975  -12.1095    2.2478 C   0  0  0  0  0  0  0  0  0  0  0  0
    1.5367  -13.3685    2.6023 C   0  0  0  0  0  0  0  0  0  0  0  0
    0.4347  -13.9535    2.2152 C   0  0  0  0  0  0  0  0  0  0  0  0
   -0.5653  -13.0755    1.8340 C   0  0  0  0  0  0  0  0  0  0  0  0
   -0.1982  -11.7643    1.4990 C   0  0  0  0  0  0  0  0  0  0  0  0
    1.5949   -5.4555    2.6868 Cl  0  0  0  0  0  0  0  0  0  0  0  0
    0.1067  -15.2437    2.5670 C   0  0  0  0  0  0  0  0  0  0  0  0
    1.0390  -16.0467    3.2062 C   0  0  0  0  0  0  0  0  0  0  0  0
    0.8735  -17.3840    3.5506 C   0  0  0  0  0  0  0  0  0  0  0  0
   -0.2727  -17.7947    4.1444 C   0  0  0  0  0  0  0  0  0  0  0  0
  3  7  1  0
  6 13  1  0
 10 14  1  0
 14 15  2  3
 15 16  1  0
 16 17  2  0
  1  2  2  0
  2  3  1  0
  3  4  2  0
  4  5  1  0
  5  6  2  0
  1  6  1  0
  7  8  2  0
  8  9  1  0
  9 10  2  0
 10 11  1  0
 11 12  2  0
  7 12  1  0
M  END

$$$$
No_982-/export/home/yangzhenyu/potential_scad_32_flow//YTHDC2/2024-12-06-03-22-00/
     RDKit          3D

 19 20  0  0  1  0  0  0  0  0999 V2000
    1.1787   -8.0297    3.5154 N   0  0  0  0  0  0  0  0  0  0  0  0
    0.8669   -7.0905    2.8589 C   0  0  0  0  0  0  0  0  0  0  0  0
    1.0447   -7.3244    1.4123 C   0  0  0  0  0  0  0  0  0  0  0  0
    1.3746   -8.4389    1.0864 C   0  0  2  0  0  0  0  0  0  0  0  0
    1.6686   -9.1952    2.5608 C   0  0  2  0  0  0  0  0  0  0  0  0
    1.9879  -10.3617    2.7281 C   0  0  0  0  0  0  0  0  0  0  0  0
    1.6558   -9.1219    0.0446 C   0  0  0  0  0  0  0  0  0  0  0  0
    1.4863  -10.3856   -0.1164 O   0  0  0  0  0  0  0  0  0  0  0  0
    1.9940   -8.4917   -1.0800 O   0  0  0  0  0  0  0  0  0  0  0  0
    1.8961  -11.3064    2.1681 C   0  0  0  0  0  0  0  0  0  0  0  0
    2.5833  -10.5164    4.2366 C   0  0  0  0  0  0  0  0  0  0  0  0
    2.6832  -11.4531    4.8852 C   0  0  0  0  0  0  0  0  0  0  0  0
    1.6158  -12.3485    4.6689 C   0  0  0  0  0  0  0  0  0  0  0  0
    1.4599  -12.5507    3.0920 C   0  0  0  0  0  0  0  0  0  0  0  0
    1.1345  -13.8333    2.5965 C   0  0  0  0  0  0  0  0  0  0  0  0
    0.7394  -14.0012    1.3968 O   0  0  0  0  0  0  0  0  0  0  0  0
    1.1458  -14.9362    3.3603 N   0  0  0  0  0  0  0  0  0  0  0  0
    0.6993  -16.1882    3.0186 C   0  0  0  0  0  0  0  0  0  0  0  0
   -0.4787  -16.6432    3.4011 C   0  0  0  0  0  0  0  0  0  0  0  0
  1  2  1  0
  2  3  2  0
  3  4  1  0
  1  5  1  0
  4  5  1  0
  5  6  1  6
  4  7  1  6
  7  8  2  0
  7  9  1  0
 14 15  1  0
 15 16  2  0
 15 17  1  0
 17 18  1  0
 18 19  1  0
  6 10  2  0
 10 14  1  0
 13 14  2  0
 12 13  1  0
 11 12  2  0
  6 11  1  0
M  END

$$$$
No_983-/export/home/yangzhenyu/potential_scad_32_flow//YTHDC2/2024-12-06-03-22-00/
     RDKit          3D

 20 20  0  0  1  0  0  0  0  0999 V2000
    1.1787   -8.0297    3.5154 C   0  0  0  0  0  0  0  0  0  0  0  0
    1.0491   -6.8434    2.9820 C   0  0  0  0  0  0  0  0  0  0  0  0
    1.0690   -9.1150    2.7206 C   0  0  0  0  0  0  0  0  0  0  0  0
    0.9689   -6.6391    1.6260 C   0  0  0  0  0  0  0  0  0  0  0  0
    0.9670   -9.0334    1.3824 C   0  0  0  0  0  0  0  0  0  0  0  0
    0.7641  -10.1483    0.4695 C   0  0  0  0  0  0  0  0  0  0  0  0
    0.8322   -5.2895    1.1776 C   0  0  0  0  0  0  0  0  0  0  0  0
    0.9145   -7.7620    0.7593 C   0  0  0  0  0  0  0  0  0  0  0  0
   -0.0103   -9.8328   -0.7323 O   0  0  0  0  0  0  0  0  0  0  0  0
    0.6251  -11.3132    0.7709 O   0  0  0  0  0  0  0  0  0  0  0  0
   -0.3286   -4.8845    0.7228 C   0  0  1  0  0  0  0  0  0  0  0  0
   -1.3910   -5.6321    0.7009 C   0  0  0  0  0  0  0  0  0  0  0  0
   -0.6296   -3.4400    1.2098 C   0  0  0  0  0  0  0  0  0  0  0  0
    1.2400  -10.4684    3.3420 S   0  0  0  0  0  0  0  0  0  0  0  0
    0.2007  -11.0167    4.0366 O   0  0  0  0  0  0  0  0  0  0  0  0
    1.7570  -11.6079    2.3343 C   0  0  0  0  0  0  0  0  0  0  0  0
    2.5796  -10.3773    4.3188 O   0  0  0  0  0  0  0  0  0  0  0  0
    0.2435   -2.7839    1.7444 C   0  0  0  0  0  0  0  0  0  0  0  0
    0.5283   -2.7619    3.0480 C   0  0  0  0  0  0  0  0  0  0  0  0
    1.8597   -2.7383    3.6642 C   0  0  0  0  0  0  0  0  0  0  0  0
  5  6  1  0
  4  7  1  0
  6  9  1  0
  6 10  2  0
  7 11  1  0
 11 12  1  1
 11 13  1  0
  3 14  1  0
 14 15  2  0
 14 16  1  0
 14 17  2  0
 13 18  1  0
 18 19  1  0
 19 20  2  0
  1  2  2  0
  2  4  1  0
  4  8  2  0
  5  8  1  0
  3  5  2  0
  1  3  1  0
M  END

$$$$
No_984-/export/home/yangzhenyu/potential_scad_32_flow//YTHDC2/2024-12-06-03-22-00/
     RDKit          3D

 20 21  0  0  1  0  0  0  0  0999 V2000
    1.1787   -8.0297    3.5154 C   0  0  0  0  0  0  0  0  0  0  0  0
    1.0491   -6.8434    2.9820 C   0  0  2  0  0  0  0  0  0  0  0  0
    1.9985   -8.9840    2.8958 C   0  0  0  0  0  0  0  0  0  0  0  0
    1.7297   -9.2108    1.6335 C   0  0  1  0  0  0  0  0  0  0  0  0
    1.7343   -8.0566    0.8408 C   0  0  0  0  0  0  0  0  0  0  0  0
    0.7286   -5.6388    3.4189 C   0  0  0  0  0  0  0  0  0  0  0  0
    1.1812   -6.9194    1.4209 C   0  0  0  0  0  0  0  0  0  0  0  0
    1.7217   -8.0985   -0.4949 O   0  0  0  0  0  0  0  0  0  0  0  0
    0.9427   -4.4351    2.8393 C   0  0  0  0  0  0  0  0  0  0  0  0
    2.1893  -10.3672    0.9701 C   0  0  0  0  0  0  0  0  0  0  0  0
    1.8753  -11.5252    1.6993 O   0  0  0  0  0  0  0  0  0  0  0  0
    2.1819  -10.6623   -0.2400 O   0  0  0  0  0  0  0  0  0  0  0  0
    0.3666   -3.1903    3.4127 C   0  0  0  0  0  0  0  0  0  0  0  0
    1.1915   -2.1811    3.8349 C   0  0  0  0  0  0  0  0  0  0  0  0
    2.5321   -2.5203    3.7576 C   0  0  0  0  0  0  0  0  0  0  0  0
    3.0071   -3.4824    2.9534 C   0  0  0  0  0  0  0  0  0  0  0  0
    2.2192   -4.4863    2.6275 C   0  0  0  0  0  0  0  0  0  0  0  0
   -0.9217   -3.0934    3.4550 C   0  0  0  0  0  0  0  0  0  0  0  0
   -1.6923   -3.1929    4.4275 C   0  0  0  0  0  0  0  0  0  0  0  0
   -1.7393   -3.7041    2.2724 C   0  0  0  0  0  0  0  0  0  0  0  0
  2  1  1  6
  1  3  1  0
  3  4  1  0
  4  5  1  0
  2  6  1  0
  2  7  1  0
  5  7  1  0
  5  8  2  0
  6  9  2  3
  4 10  1  6
 10 11  1  0
 10 12  2  0
  9 13  1  0
 13 14  1  0
 14 15  1  0
 15 16  1  0
  9 17  1  0
 16 17  1  0
 13 18  1  0
 18 19  1  0
 18 20  1  0
M  END

$$$$
No_985-/export/home/yangzhenyu/potential_scad_32_flow//YTHDC2/2024-12-06-03-22-00/
     RDKit          3D

 17 17  0  0  0  0  0  0  0  0999 V2000
    1.1787   -8.0297    3.5154 C   0  0  0  0  0  0  0  0  0  0  0  0
    1.1048   -9.2215    3.2892 C   0  0  0  0  0  0  0  0  0  0  0  0
    1.2339   -9.7611    2.0189 C   0  0  0  0  0  0  0  0  0  0  0  0
    1.3583   -9.0036    0.9764 C   0  0  0  0  0  0  0  0  0  0  0  0
    1.5996   -7.6362    1.1311 C   0  0  0  0  0  0  0  0  0  0  0  0
    1.4830   -7.0928    2.3626 C   0  0  0  0  0  0  0  0  0  0  0  0
    1.4898   -5.7274    2.6199 C   0  0  0  0  0  0  0  0  0  0  0  0
    1.1681  -11.2222    1.8390 C   0  0  0  0  0  0  0  0  0  0  0  0
    0.7145  -11.5870    0.5424 O   0  0  0  0  0  0  0  0  0  0  0  0
    1.6537  -12.0580    2.6183 N   0  0  0  0  0  0  0  0  0  0  0  0
    1.6651  -13.4392    2.3517 C   0  0  0  0  0  0  0  0  0  0  0  0
    0.4982  -14.0351    2.8975 C   0  0  0  0  0  0  0  0  0  0  0  0
    0.6127  -15.5187    2.8668 C   0  0  0  0  0  0  0  0  0  0  0  0
   -0.2796  -16.2674    3.5063 C   0  0  0  0  0  0  0  0  0  0  0  0
    1.2417   -4.8544    1.6251 C   0  0  0  0  0  0  0  0  0  0  0  0
    0.5625   -3.7604    1.8411 C   0  0  0  0  0  0  0  0  0  0  0  0
   -1.5516  -16.3888    3.2474 C   0  0  0  0  0  0  0  0  0  0  0  0
  6  7  1  0
  3  8  1  0
  8  9  2  0
  8 10  1  0
 10 11  1  0
 11 12  1  0
 12 13  2  3
 13 14  1  0
  7 15  2  3
 15 16  1  0
 14 17  2  0
  1  2  2  0
  2  3  1  0
  3  4  2  0
  4  5  1  0
  5  6  2  0
  1  6  1  0
M  END

$$$$
No_986-/export/home/yangzhenyu/potential_scad_32_flow//YTHDC2/2024-12-06-03-22-00/
     RDKit          3D

 17 18  0  0  0  0  0  0  0  0999 V2000
    1.1787   -8.0297    3.5154 C   0  0  0  0  0  0  0  0  0  0  0  0
    1.1048   -9.2215    3.2892 C   0  0  0  0  0  0  0  0  0  0  0  0
    1.2339   -9.7611    2.0189 C   0  0  0  0  0  0  0  0  0  0  0  0
    1.3583   -9.0036    0.9764 C   0  0  0  0  0  0  0  0  0  0  0  0
    1.5996   -7.6362    1.1311 C   0  0  0  0  0  0  0  0  0  0  0  0
    1.4830   -7.0928    2.3626 C   0  0  0  0  0  0  0  0  0  0  0  0
    1.1008  -11.2372    1.8542 C   0  0  0  0  0  0  0  0  0  0  0  0
    0.5178  -11.9759    2.3445 C   0  0  0  0  0  0  0  0  0  0  0  0
    0.4575  -13.3705    2.1281 C   0  0  0  0  0  0  0  0  0  0  0  0
    1.3993  -14.2795    2.9783 C   0  0  0  0  0  0  0  0  0  0  0  0
    1.3982  -15.5837    2.7718 C   0  0  0  0  0  0  0  0  0  0  0  0
    0.6478  -16.1498    1.8129 C   0  0  0  0  0  0  0  0  0  0  0  0
   -0.1507  -15.4364    1.0075 C   0  0  0  0  0  0  0  0  0  0  0  0
   -0.2761  -14.0581    1.2370 C   0  0  0  0  0  0  0  0  0  0  0  0
    1.5638   -5.6558    2.6514 Cl  0  0  0  0  0  0  0  0  0  0  0  0
    1.5143   -9.4871   -0.5414 Cl  0  0  0  0  0  0  0  0  0  0  0  0
   -1.0698  -13.3273    0.3978 C   0  0  0  0  0  0  0  0  0  0  0  0
  3  7  1  0
  7  8  2  3
  8  9  1  0
  6 15  1  0
  4 16  1  0
 14 17  1  0
  1  2  2  0
  2  3  1  0
  3  4  2  0
  4  5  1  0
  5  6  2  0
  1  6  1  0
  9 10  2  0
 10 11  1  0
 11 12  2  0
 12 13  1  0
 13 14  2  0
  9 14  1  0
M  END

$$$$
No_987-/export/home/yangzhenyu/potential_scad_32_flow//YTHDC2/2024-12-06-03-22-00/
     RDKit          3D

 17 18  0  0  1  0  0  0  0  0999 V2000
    1.1787   -8.0297    3.5154 C   0  0  0  0  0  0  0  0  0  0  0  0
    1.0491   -6.8434    2.9820 C   0  0  0  0  0  0  0  0  0  0  0  0
    0.0950   -8.8404    3.2292 C   0  0  0  0  0  0  0  0  0  0  0  0
   -0.9173   -8.4596    2.5152 C   0  0  0  0  0  0  0  0  0  0  0  0
   -1.0331   -7.2162    2.0653 C   0  0  0  0  0  0  0  0  0  0  0  0
   -0.0105   -6.3168    2.3081 C   0  0  0  0  0  0  0  0  0  0  0  0
    0.1465  -10.2446    3.6981 N   0  0  0  0  0  0  0  0  0  0  0  0
    1.1832  -10.8652    3.9851 C   0  0  0  0  0  0  0  0  0  0  0  0
    2.3205  -10.5481    4.1277 C   0  0  0  0  0  0  0  0  0  0  0  0
    0.7349  -12.3518    4.3380 N   0  0  0  0  0  0  0  0  0  0  0  0
   -0.0740   -5.0472    1.8121 C   0  0  1  0  0  0  0  0  0  0  0  0
   -0.7907   -4.1748    2.3210 C   0  0  0  0  0  0  0  0  0  0  0  0
   -0.2658   -2.9782    2.8877 N   0  0  0  0  0  0  0  0  0  0  0  0
    0.5854   -2.2586    2.3187 C   0  0  0  0  0  0  0  0  0  0  0  0
    1.6359   -3.0598    1.8701 C   0  0  0  0  0  0  0  0  0  0  0  0
    1.2224   -4.3409    1.2302 C   0  0  0  0  0  0  0  0  0  0  0  0
   -2.1812   -4.2474    2.2134 O   0  0  0  0  0  0  0  0  0  0  0  0
  3  7  1  0
  7  8  1  0
  8  9  2  0
  8 10  1  0
 11  6  1  1
 11 12  1  0
 12 13  1  0
 13 14  1  0
 14 15  1  0
 11 16  1  0
 15 16  1  0
 12 17  2  0
  1  2  2  0
  2  6  1  0
  5  6  2  0
  4  5  1  0
  3  4  2  0
  1  3  1  0
M  END

$$$$
No_988-/export/home/yangzhenyu/potential_scad_32_flow//YTHDC2/2024-12-06-03-22-00/
     RDKit          3D

 18 19  0  0  0  0  0  0  0  0999 V2000
    1.1787   -8.0297    3.5154 C   0  0  0  0  0  0  0  0  0  0  0  0
    1.1048   -9.2215    3.2892 C   0  0  0  0  0  0  0  0  0  0  0  0
    1.2339   -9.7611    2.0189 C   0  0  0  0  0  0  0  0  0  0  0  0
    1.3583   -9.0036    0.9764 C   0  0  0  0  0  0  0  0  0  0  0  0
    1.5996   -7.6362    1.1311 C   0  0  0  0  0  0  0  0  0  0  0  0
    1.4830   -7.0928    2.3626 C   0  0  0  0  0  0  0  0  0  0  0  0
    1.5395   -5.7300    2.6182 C   0  0  0  0  0  0  0  0  0  0  0  0
    1.1775  -11.2233    1.8407 C   0  0  0  0  0  0  0  0  0  0  0  0
    0.5085  -11.9762    2.1989 C   0  0  0  0  0  0  0  0  0  0  0  0
    0.4247  -13.3704    2.0465 C   0  0  0  0  0  0  0  0  0  0  0  0
    1.6054  -14.1557    2.4664 C   0  0  0  0  0  0  0  0  0  0  0  0
    1.8317  -15.3638    2.3262 C   0  0  0  0  0  0  0  0  0  0  0  0
    0.9230  -16.1669    1.7304 C   0  0  0  0  0  0  0  0  0  0  0  0
   -0.2162  -15.6318    1.2999 C   0  0  0  0  0  0  0  0  0  0  0  0
   -0.4566  -14.2720    1.4479 C   0  0  0  0  0  0  0  0  0  0  0  0
   -1.7208  -13.7691    1.1495 C   0  0  0  0  0  0  0  0  0  0  0  0
   -2.5224  -14.0144    0.5534 C   0  0  0  0  0  0  0  0  0  0  0  0
   -3.8795  -13.5170    0.2842 C   0  0  0  0  0  0  0  0  0  0  0  0
  6  7  1  0
  3  8  1  0
  8  9  2  3
  9 10  1  0
 15 16  1  0
 16 17  2  3
 17 18  1  0
  1  2  2  0
  2  3  1  0
  3  4  2  0
  4  5  1  0
  5  6  2  0
  1  6  1  0
 10 11  2  0
 11 12  1  0
 12 13  2  0
 13 14  1  0
 14 15  2  0
 10 15  1  0
M  END

$$$$
No_989-/export/home/yangzhenyu/potential_scad_32_flow//YTHDC2/2024-12-06-03-22-00/
     RDKit          3D

 20 21  0  0  0  0  0  0  0  0999 V2000
    1.1787   -8.0297    3.5154 C   0  0  0  0  0  0  0  0  0  0  0  0
    1.1048   -9.2215    3.2892 C   0  0  0  0  0  0  0  0  0  0  0  0
    1.2339   -9.7611    2.0189 C   0  0  0  0  0  0  0  0  0  0  0  0
    1.3583   -9.0036    0.9764 C   0  0  0  0  0  0  0  0  0  0  0  0
    1.5996   -7.6362    1.1311 C   0  0  0  0  0  0  0  0  0  0  0  0
    1.4830   -7.0928    2.3626 C   0  0  0  0  0  0  0  0  0  0  0  0
    1.4898   -5.7274    2.6199 C   0  0  0  0  0  0  0  0  0  0  0  0
    1.1681  -11.2222    1.8390 C   0  0  0  0  0  0  0  0  0  0  0  0
    0.5014  -11.9760    2.2068 C   0  0  0  0  0  0  0  0  0  0  0  0
    0.4167  -13.3685    2.0527 C   0  0  0  0  0  0  0  0  0  0  0  0
   -0.6161  -14.0718    1.8701 C   0  0  0  0  0  0  0  0  0  0  0  0
   -0.5561  -15.5453    1.8466 C   0  0  0  0  0  0  0  0  0  0  0  0
    0.7310  -16.1377    2.1551 C   0  0  0  0  0  0  0  0  0  0  0  0
    1.8180  -15.4300    2.5124 C   0  0  0  0  0  0  0  0  0  0  0  0
    1.7507  -14.0019    2.4628 C   0  0  0  0  0  0  0  0  0  0  0  0
    0.6670   -4.9772    2.7273 O   0  0  0  0  0  0  0  0  0  0  0  0
    0.8966  -17.7168    2.2775 Cl  0  0  0  0  0  0  0  0  0  0  0  0
    1.5333   -9.4600   -0.3562 C   0  0  0  0  0  0  0  0  0  0  0  0
    1.3898   -8.9587   -1.2676 O   0  0  0  0  0  0  0  0  0  0  0  0
    1.8513  -10.7045   -0.4704 O   0  0  0  0  0  0  0  0  0  0  0  0
  6  7  1  0
  3  8  1  0
  8  9  2  3
  9 10  1  0
  7 16  2  0
 13 17  1  0
  4 18  1  0
 18 19  2  0
 18 20  1  0
  1  2  2  0
  2  3  1  0
  3  4  2  0
  4  5  1  0
  5  6  2  0
  1  6  1  0
 10 11  2  0
 11 12  1  0
 12 13  2  0
 13 14  1  0
 14 15  2  0
 10 15  1  0
M  END

$$$$
No_990-/export/home/yangzhenyu/potential_scad_32_flow//YTHDC2/2024-12-06-03-22-00/
     RDKit          3D

 18 18  0  0  0  0  0  0  0  0999 V2000
    1.1787   -8.0297    3.5154 O   0  0  0  0  0  0  0  0  0  0  0  0
    0.9969   -8.9689    3.0048 C   0  0  0  0  0  0  0  0  0  0  0  0
    1.3055  -10.1056    3.6616 C   0  0  0  0  0  0  0  0  0  0  0  0
    1.5709  -11.1115    3.2016 C   0  0  0  0  0  0  0  0  0  0  0  0
    1.6332  -11.2629    1.7349 C   0  0  0  0  0  0  0  0  0  0  0  0
    1.4616  -10.1742    0.9691 C   0  0  0  0  0  0  0  0  0  0  0  0
    1.1252   -9.0006    1.6051 C   0  0  0  0  0  0  0  0  0  0  0  0
    0.8275   -7.7749    1.0285 C   0  0  0  0  0  0  0  0  0  0  0  0
    1.3414   -6.7053    1.3717 O   0  0  0  0  0  0  0  0  0  0  0  0
    0.3293   -7.8411   -0.2608 O   0  0  0  0  0  0  0  0  0  0  0  0
    1.8833  -12.4227    3.8176 C   0  0  0  0  0  0  0  0  0  0  0  0
    1.4671  -13.6819    3.0237 N   0  0  0  0  0  0  0  0  0  0  0  0
    2.1426  -14.6468    2.6929 C   0  0  0  0  0  0  0  0  0  0  0  0
    1.6945  -15.8343    2.1928 C   0  0  0  0  0  0  0  0  0  0  0  0
    1.0477  -16.5105    2.8699 O   0  0  0  0  0  0  0  0  0  0  0  0
    1.9707  -16.2799    1.0439 O   0  0  0  0  0  0  0  0  0  0  0  0
    1.1323  -17.8331    3.2198 C   0  0  0  0  0  0  0  0  0  0  0  0
    0.4090  -18.6704    2.7138 C   0  0  0  0  0  0  0  0  0  0  0  0
  1  2  1  0
  7  8  1  0
  8  9  1  0
  8 10  2  0
  4 11  1  0
 11 12  1  0
 12 13  1  0
 13 14  1  0
 14 15  1  0
 14 16  2  0
 15 17  1  0
 17 18  1  0
  2  3  2  0
  3  4  1  0
  4  5  2  0
  5  6  1  0
  6  7  2  0
  2  7  1  0
M  END

$$$$
No_991-/export/home/yangzhenyu/potential_scad_32_flow//YTHDC2/2024-12-06-03-22-00/
     RDKit          3D

 18 19  0  0  0  0  0  0  0  0999 V2000
    1.1787   -8.0297    3.5154 C   0  0  0  0  0  0  0  0  0  0  0  0
    1.0491   -6.8434    2.9820 C   0  0  0  0  0  0  0  0  0  0  0  0
    0.0950   -8.8404    3.2292 C   0  0  0  0  0  0  0  0  0  0  0  0
   -0.9173   -8.4596    2.5152 C   0  0  0  0  0  0  0  0  0  0  0  0
   -1.0331   -7.2162    2.0653 C   0  0  0  0  0  0  0  0  0  0  0  0
   -0.0105   -6.3168    2.3081 C   0  0  0  0  0  0  0  0  0  0  0  0
    0.1465  -10.2446    3.6981 N   0  0  0  0  0  0  0  0  0  0  0  0
    1.1832  -10.8652    3.9851 C   0  0  0  0  0  0  0  0  0  0  0  0
    1.6719  -11.7411    3.1417 C   0  0  0  0  0  0  0  0  0  0  0  0
    1.4722  -11.3051    1.7680 C   0  0  0  0  0  0  0  0  0  0  0  0
    0.9890  -12.2975    0.9007 C   0  0  0  0  0  0  0  0  0  0  0  0
    0.8617  -13.5721    1.2346 C   0  0  0  0  0  0  0  0  0  0  0  0
    0.9855  -13.9720    2.4978 C   0  0  0  0  0  0  0  0  0  0  0  0
    1.4269  -13.1057    3.4912 C   0  0  0  0  0  0  0  0  0  0  0  0
   -0.0967   -5.0418    1.8279 C   0  0  0  0  0  0  0  0  0  0  0  0
   -0.5501   -4.7444    0.6790 C   0  0  0  0  0  0  0  0  0  0  0  0
   -0.6601   -3.3356    0.3743 C   0  0  0  0  0  0  0  0  0  0  0  0
    0.2454   -2.6145    1.3337 C   0  0  0  0  0  0  0  0  0  0  0  0
  3  7  1  0
  7  8  1  0
  8  9  1  0
  6 15  1  0
 15 16  1  0
 16 17  2  3
 17 18  1  0
  1  2  2  0
  2  6  1  0
  5  6  2  0
  4  5  1  0
  3  4  2  0
  1  3  1  0
  9 10  2  0
 10 11  1  0
 11 12  2  0
 12 13  1  0
 13 14  2  0
  9 14  1  0
M  END

$$$$
No_992-/export/home/yangzhenyu/potential_scad_32_flow//YTHDC2/2024-12-06-03-22-00/
     RDKit          3D

 18 18  0  0  1  0  0  0  0  0999 V2000
    1.1787   -8.0297    3.5154 C   0  0  0  0  0  0  0  0  0  0  0  0
    1.0491   -6.8434    2.9820 C   0  0  0  0  0  0  0  0  0  0  0  0
    0.9905   -9.0774    2.6527 C   0  0  0  0  0  0  0  0  0  0  0  0
    0.7897   -8.9519    1.3691 C   0  0  0  0  0  0  0  0  0  0  0  0
    0.7018   -7.7198    0.7892 C   0  0  0  0  0  0  0  0  0  0  0  0
    0.8918   -6.5957    1.6117 C   0  0  0  0  0  0  0  0  0  0  0  0
    1.0998  -10.4710    3.2437 C   0  0  1  0  0  0  0  0  0  0  0  0
    2.1917  -10.8879    3.7399 C   0  0  0  0  0  0  0  0  0  0  0  0
    0.8624   -5.2493    1.2482 O   0  0  0  0  0  0  0  0  0  0  0  0
   -0.0197  -11.2254    3.3616 C   0  0  0  0  0  0  0  0  0  0  0  0
   -0.0771  -12.5027    3.1731 C   0  0  0  0  0  0  0  0  0  0  0  0
    0.2648  -12.9637    1.9821 C   0  0  0  0  0  0  0  0  0  0  0  0
    1.1653  -14.1223    1.8672 C   0  0  2  0  0  0  0  0  0  0  0  0
    2.4192  -13.9158    1.2876 C   0  0  0  0  0  0  0  0  0  0  0  0
    0.6103  -15.3583    1.5124 C   0  0  0  0  0  0  0  0  0  0  0  0
   -0.1776  -15.6180    0.8190 C   0  0  0  0  0  0  0  0  0  0  0  0
   -0.7515  -16.9758    0.6135 C   0  0  0  0  0  0  0  0  0  0  0  0
   -1.9502  -17.1728    0.4683 C   0  0  0  0  0  0  0  0  0  0  0  0
  1  2  1  0
  3  4  1  0
  2  6  1  0
  5  6  1  0
  3  7  1  0
  7  8  1  1
  6  9  2  0
  7 10  1  0
 10 11  1  0
 11 12  1  0
 12 13  1  0
 13 14  1  6
 13 15  1  0
 15 16  2  3
 16 17  1  0
 17 18  2  0
  1  3  1  0
  4  5  1  0
M  END

$$$$
No_993-/export/home/yangzhenyu/potential_scad_32_flow//YTHDC2/2024-12-06-03-22-00/
     RDKit          3D

 19 20  0  0  0  0  0  0  0  0999 V2000
    1.1787   -8.0297    3.5154 C   0  0  0  0  0  0  0  0  0  0  0  0
    1.1048   -9.2215    3.2892 C   0  0  0  0  0  0  0  0  0  0  0  0
    1.2339   -9.7611    2.0189 C   0  0  0  0  0  0  0  0  0  0  0  0
    1.3583   -9.0036    0.9764 C   0  0  0  0  0  0  0  0  0  0  0  0
    1.5996   -7.6362    1.1311 C   0  0  0  0  0  0  0  0  0  0  0  0
    1.4830   -7.0928    2.3626 C   0  0  0  0  0  0  0  0  0  0  0  0
    1.4898   -5.7274    2.6199 C   0  0  0  0  0  0  0  0  0  0  0  0
    1.1681  -11.2222    1.8390 C   0  0  0  0  0  0  0  0  0  0  0  0
    1.9047  -12.1147    2.3357 C   0  0  0  0  0  0  0  0  0  0  0  0
    1.6844  -13.4555    2.0602 C   0  0  0  0  0  0  0  0  0  0  0  0
    0.6977  -13.8514    1.3046 C   0  0  0  0  0  0  0  0  0  0  0  0
   -0.1168  -12.9151    0.6554 C   0  0  0  0  0  0  0  0  0  0  0  0
    0.1481  -11.5441    0.9254 C   0  0  0  0  0  0  0  0  0  0  0  0
    1.6975   -5.1712    3.8653 C   0  0  0  0  0  0  0  0  0  0  0  0
    1.3212   -4.8560    1.5459 C   0  0  0  0  0  0  0  0  0  0  0  0
    0.3708   -3.8501    1.6792 C   0  0  0  0  0  0  0  0  0  0  0  0
   -0.9227   -4.1882    1.7919 C   0  0  0  0  0  0  0  0  0  0  0  0
   -1.6973   -3.3759    2.7824 C   0  0  0  0  0  0  0  0  0  0  0  0
   -0.7176  -10.6554    0.3420 C   0  0  0  0  0  0  0  0  0  0  0  0
  6  7  1  0
  3  8  1  0
  7 14  1  0
  7 15  1  0
 15 16  1  0
 16 17  1  0
 17 18  1  0
 13 19  1  0
  1  2  2  0
  2  3  1  0
  3  4  2  0
  4  5  1  0
  5  6  2  0
  1  6  1  0
  8  9  2  0
  9 10  1  0
 10 11  2  0
 11 12  1  0
 12 13  2  0
  8 13  1  0
M  END

$$$$
No_994-/export/home/yangzhenyu/potential_scad_32_flow//YTHDC2/2024-12-06-03-22-00/
     RDKit          3D

 18 20  0  0  0  0  0  0  0  0999 V2000
    1.1787   -8.0297    3.5154 C   0  0  0  0  0  0  0  0  0  0  0  0
    1.1048   -9.2215    3.2892 C   0  0  0  0  0  0  0  0  0  0  0  0
    1.3627  -10.1721    4.3044 C   0  0  0  0  0  0  0  0  0  0  0  0
    1.0682  -11.5187    4.0618 C   0  0  0  0  0  0  0  0  0  0  0  0
    0.6332  -11.9655    2.9682 C   0  0  0  0  0  0  0  0  0  0  0  0
    0.4776  -11.1308    1.9203 C   0  0  0  0  0  0  0  0  0  0  0  0
    0.7470   -9.8274    2.0368 C   0  0  0  0  0  0  0  0  0  0  0  0
    1.0387   -7.0301    2.5175 C   0  0  0  0  0  0  0  0  0  0  0  0
    0.9130   -7.5288    1.2013 C   0  0  0  0  0  0  0  0  0  0  0  0
    0.7893   -8.7979    0.9542 C   0  0  0  0  0  0  0  0  0  0  0  0
    0.5241   -9.2578   -0.2817 C   0  0  0  0  0  0  0  0  0  0  0  0
   -0.1121   -8.6523   -1.0898 N   0  0  0  0  0  0  0  0  0  0  0  0
    0.4971  -13.3750    2.6833 C   0  0  0  0  0  0  0  0  0  0  0  0
   -0.6798  -13.9334    2.3531 C   0  0  0  0  0  0  0  0  0  0  0  0
    1.6729  -14.2337    2.5170 C   0  0  0  0  0  0  0  0  0  0  0  0
    1.6885  -15.5365    2.3539 C   0  0  0  0  0  0  0  0  0  0  0  0
    0.4585  -16.0553    2.0193 C   0  0  0  0  0  0  0  0  0  0  0  0
   -0.7155  -15.2276    2.0565 C   0  0  0  0  0  0  0  0  0  0  0  0
 10 11  1  0
 11 12  1  0
  5 13  1  0
  2  3  1  0
  3  4  2  0
  4  5  1  0
  5  6  2  0
  6  7  1  0
 13 14  2  0
 14 18  1  0
 17 18  2  0
 16 17  1  0
 15 16  2  0
 13 15  1  0
  1  2  2  0
  2  7  1  0
  7 10  2  0
  9 10  1  0
  8  9  2  0
  1  8  1  0
M  END

$$$$
No_995-/export/home/yangzhenyu/potential_scad_32_flow//YTHDC2/2024-12-06-03-22-00/
     RDKit          3D

 18 19  0  0  0  0  0  0  0  0999 V2000
    1.1787   -8.0297    3.5154 C   0  0  0  0  0  0  0  0  0  0  0  0
    1.1048   -9.2215    3.2892 C   0  0  0  0  0  0  0  0  0  0  0  0
    1.0239   -9.7790    2.0239 C   0  0  0  0  0  0  0  0  0  0  0  0
    1.1393   -9.0211    0.9686 C   0  0  0  0  0  0  0  0  0  0  0  0
    1.4050   -7.6500    1.1251 C   0  0  0  0  0  0  0  0  0  0  0  0
    1.4868   -7.1041    2.3534 C   0  0  0  0  0  0  0  0  0  0  0  0
    1.5562   -5.7208    2.5782 C   0  0  0  0  0  0  0  0  0  0  0  0
    0.8750  -11.2135    1.9117 C   0  0  0  0  0  0  0  0  0  0  0  0
   -0.2168  -11.6435    1.2229 C   0  0  0  0  0  0  0  0  0  0  0  0
   -0.2252  -12.9590    0.7711 C   0  0  0  0  0  0  0  0  0  0  0  0
    0.8298  -13.8051    1.0708 C   0  0  0  0  0  0  0  0  0  0  0  0
    1.9464  -13.3202    1.6953 C   0  0  0  0  0  0  0  0  0  0  0  0
    2.0256  -12.0026    2.0855 C   0  0  0  0  0  0  0  0  0  0  0  0
    1.5719   -5.2227    3.8119 O   0  0  0  0  0  0  0  0  0  0  0  0
    1.5285   -4.8814    1.6254 O   0  0  0  0  0  0  0  0  0  0  0  0
    1.1331   -9.4614   -0.3917 O   0  0  0  0  0  0  0  0  0  0  0  0
    0.7816  -15.0914    0.6296 Cl  0  0  0  0  0  0  0  0  0  0  0  0
    0.9585  -10.1312    4.4246 O   0  0  0  0  0  0  0  0  0  0  0  0
  6  7  1  0
  3  8  1  0
  7 14  1  0
  7 15  2  0
  4 16  1  0
 11 17  1  0
  2 18  1  0
  1  2  2  0
  2  3  1  0
  3  4  2  0
  4  5  1  0
  5  6  2  0
  1  6  1  0
  8  9  2  0
  9 10  1  0
 10 11  2  0
 11 12  1  0
 12 13  2  0
  8 13  1  0
M  END

$$$$
No_996-/export/home/yangzhenyu/potential_scad_32_flow//YTHDC2/2024-12-06-03-22-00/
     RDKit          3D

 18 20  0  0  0  0  0  0  0  0999 V2000
    1.1787   -8.0297    3.5154 C   0  0  0  0  0  0  0  0  0  0  0  0
    1.1048   -9.2215    3.2892 C   0  0  0  0  0  0  0  0  0  0  0  0
    1.2339   -9.7611    2.0189 C   0  0  0  0  0  0  0  0  0  0  0  0
    1.3583   -9.0036    0.9764 C   0  0  0  0  0  0  0  0  0  0  0  0
    1.5996   -7.6362    1.1311 C   0  0  0  0  0  0  0  0  0  0  0  0
    1.4830   -7.0928    2.3626 C   0  0  0  0  0  0  0  0  0  0  0  0
    1.1008  -11.2372    1.8542 C   0  0  0  0  0  0  0  0  0  0  0  0
    0.4812  -11.6084    0.6459 C   0  0  0  0  0  0  0  0  0  0  0  0
   -0.3691  -10.9312    0.0124 C   0  0  0  0  0  0  0  0  0  0  0  0
   -1.0102  -11.3797   -1.1447 N   0  0  0  0  0  0  0  0  0  0  0  0
    1.8467  -12.0302    2.5644 C   0  0  0  0  0  0  0  0  0  0  0  0
    1.7040  -13.4346    2.3103 C   0  0  0  0  0  0  0  0  0  0  0  0
    1.0412  -13.8696    1.2415 C   0  0  0  0  0  0  0  0  0  0  0  0
    0.4763  -12.8106    0.3734 C   0  0  0  0  0  0  0  0  0  0  0  0
   -0.5431  -12.8845   -0.7905 C   0  0  0  0  0  0  0  0  0  0  0  0
    1.5469   -5.6524    2.6286 C   0  0  0  0  0  0  0  0  0  0  0  0
   -1.8998  -11.2069   -2.0651 C   0  0  0  0  0  0  0  0  0  0  0  0
   -1.9739   -9.9220   -2.5747 C   0  0  0  0  0  0  0  0  0  0  0  0
  3  7  1  0
  9 10  1  0
 10 15  1  0
 14 15  1  0
  6 16  1  0
 10 17  1  0
 17 18  1  0
  8  9  1  0
  1  2  2  0
  2  3  1  0
  3  4  2  0
  4  5  1  0
  5  6  2  0
  1  6  1  0
  7  8  1  0
  8 14  2  0
 13 14  1  0
 12 13  2  0
 11 12  1  0
  7 11  2  0
M  END

$$$$
No_997-/export/home/yangzhenyu/potential_scad_32_flow//YTHDC2/2024-12-06-03-22-00/
     RDKit          3D

 20 22  0  0  0  0  0  0  0  0999 V2000
    1.1787   -8.0297    3.5154 C   0  0  0  0  0  0  0  0  0  0  0  0
    1.0491   -6.8434    2.9820 C   0  0  0  0  0  0  0  0  0  0  0  0
    0.0950   -8.8404    3.2292 C   0  0  0  0  0  0  0  0  0  0  0  0
   -0.9173   -8.4596    2.5152 C   0  0  0  0  0  0  0  0  0  0  0  0
   -1.0331   -7.2162    2.0653 C   0  0  0  0  0  0  0  0  0  0  0  0
   -0.0105   -6.3168    2.3081 C   0  0  0  0  0  0  0  0  0  0  0  0
    0.1465  -10.2446    3.6981 C   0  0  0  0  0  0  0  0  0  0  0  0
    1.2433  -10.8239    4.0166 C   0  0  0  0  0  0  0  0  0  0  0  0
    1.0790  -12.2885    4.3779 C   0  0  0  0  0  0  0  0  0  0  0  0
    0.0275  -12.8546    3.8829 C   0  0  0  0  0  0  0  0  0  0  0  0
   -0.9912  -12.3424    3.4171 C   0  0  0  0  0  0  0  0  0  0  0  0
   -1.0024  -10.9675    3.2748 C   0  0  0  0  0  0  0  0  0  0  0  0
   -0.1252   -5.0186    1.8241 O   0  0  0  0  0  0  0  0  0  0  0  0
   -0.8673   -4.5541    1.0600 C   0  0  0  0  0  0  0  0  0  0  0  0
   -0.4038   -4.5127   -0.1599 C   0  0  0  0  0  0  0  0  0  0  0  0
   -1.4247   -4.4171   -1.2216 C   0  0  0  0  0  0  0  0  0  0  0  0
   -2.7066   -4.1164   -0.9863 C   0  0  0  0  0  0  0  0  0  0  0  0
   -3.1457   -4.1172    0.3418 C   0  0  0  0  0  0  0  0  0  0  0  0
   -2.2650   -4.3313    1.3623 C   0  0  0  0  0  0  0  0  0  0  0  0
   -3.5715   -3.8270   -2.0548 Cl  0  0  0  0  0  0  0  0  0  0  0  0
  3  7  1  0
  6 13  1  0
 13 14  1  0
 17 20  1  0
 14 15  2  0
 15 16  1  0
 16 17  2  0
 17 18  1  0
 18 19  2  0
 14 19  1  0
  1  2  2  0
  2  6  1  0
  5  6  2  0
  4  5  1  0
  3  4  2  0
  1  3  1  0
  7  8  2  0
  8  9  1  0
  9 10  2  0
 10 11  1  0
 11 12  2  0
  7 12  1  0
M  END

$$$$
No_998-/export/home/yangzhenyu/potential_scad_32_flow//YTHDC2/2024-12-06-03-22-00/
     RDKit          3D

 19 20  0  0  0  0  0  0  0  0999 V2000
    1.1787   -8.0297    3.5154 C   0  0  0  0  0  0  0  0  0  0  0  0
    1.1048   -9.2215    3.2892 C   0  0  0  0  0  0  0  0  0  0  0  0
    1.2339   -9.7611    2.0189 C   0  0  0  0  0  0  0  0  0  0  0  0
    1.3583   -9.0036    0.9764 C   0  0  0  0  0  0  0  0  0  0  0  0
    1.5996   -7.6362    1.1311 C   0  0  0  0  0  0  0  0  0  0  0  0
    1.4830   -7.0928    2.3626 C   0  0  0  0  0  0  0  0  0  0  0  0
    1.5395   -5.7300    2.6182 C   0  0  0  0  0  0  0  0  0  0  0  0
    1.1969  -11.3760    1.8433 C   0  0  0  0  0  0  0  0  0  0  0  0
    0.2951  -11.9827    2.0623 N   0  0  0  0  0  0  0  0  0  0  0  0
    0.3186  -13.1803    2.4443 C   0  0  0  0  0  0  0  0  0  0  0  0
   -0.6386  -14.1694    2.2634 C   0  0  0  0  0  0  0  0  0  0  0  0
   -0.3426  -15.5474    2.8312 C   0  0  0  0  0  0  0  0  0  0  0  0
    0.8779  -15.8174    3.4642 C   0  0  0  0  0  0  0  0  0  0  0  0
    1.9465  -14.8896    3.3908 C   0  0  0  0  0  0  0  0  0  0  0  0
    1.7214  -13.6546    2.8653 C   0  0  0  0  0  0  0  0  0  0  0  0
    2.2639  -11.6645    1.0263 O   0  0  0  0  0  0  0  0  0  0  0  0
    1.6360   -5.1819    3.8663 O   0  0  0  0  0  0  0  0  0  0  0  0
    1.4075   -4.8492    1.6530 O   0  0  0  0  0  0  0  0  0  0  0  0
    1.1105  -17.1592    3.8040 O   0  0  0  0  0  0  0  0  0  0  0  0
  6  7  1  0
  3  8  1  0
  8  9  1  0
  9 10  1  0
  8 16  2  0
  7 17  1  0
  7 18  2  0
 13 19  1  0
  1  2  2  0
  2  3  1  0
  3  4  2  0
  4  5  1  0
  5  6  2  0
  1  6  1  0
 10 11  2  0
 11 12  1  0
 12 13  2  0
 13 14  1  0
 14 15  2  0
 10 15  1  0
M  END

$$$$
No_999-/export/home/yangzhenyu/potential_scad_32_flow//YTHDC2/2024-12-06-03-22-00/
     RDKit          3D

 19 20  0  0  0  0  0  0  0  0999 V2000
    1.1787   -8.0297    3.5154 C   0  0  0  0  0  0  0  0  0  0  0  0
    1.0491   -6.8434    2.9820 C   0  0  0  0  0  0  0  0  0  0  0  0
    1.0690   -9.1150    2.7206 C   0  0  0  0  0  0  0  0  0  0  0  0
    0.9689   -6.6391    1.6260 C   0  0  0  0  0  0  0  0  0  0  0  0
    0.9670   -9.0334    1.3824 C   0  0  0  0  0  0  0  0  0  0  0  0
    0.8189   -7.7113    0.8022 C   0  0  0  0  0  0  0  0  0  0  0  0
    1.2185  -10.5958    3.3076 C   0  0  0  0  0  0  0  0  0  0  0  0
    1.4310  -11.6383    2.5943 C   0  0  0  0  0  0  0  0  0  0  0  0
    1.4739  -12.9473    3.0741 C   0  0  0  0  0  0  0  0  0  0  0  0
    0.9500  -14.0081    2.2588 C   0  0  0  0  0  0  0  0  0  0  0  0
    0.0874  -13.8215    1.3629 C   0  0  0  0  0  0  0  0  0  0  0  0
   -0.3550  -14.8237    0.4691 C   0  0  0  0  0  0  0  0  0  0  0  0
   -1.2878  -14.4421   -0.4749 C   0  0  0  0  0  0  0  0  0  0  0  0
   -1.6379  -13.1559   -0.7513 C   0  0  0  0  0  0  0  0  0  0  0  0
   -1.1621  -12.1163    0.0526 C   0  0  0  0  0  0  0  0  0  0  0  0
   -0.2866  -12.4197    1.1283 C   0  0  0  0  0  0  0  0  0  0  0  0
    2.0443  -11.4225    1.4953 C   0  0  0  0  0  0  0  0  0  0  0  0
    0.8883   -5.3316    1.1486 O   0  0  0  0  0  0  0  0  0  0  0  0
    1.8946  -11.7656    0.2985 C   0  0  0  0  0  0  0  0  0  0  0  0
  1  3  1  0
  2  4  1  0
  4  6  1  0
  5  6  1  0
  3  7  1  0
  7  8  2  3
  8  9  1  0
  9 10  1  0
  8 17  1  0
  4 18  2  0
 17 19  2  0
 10 11  1  0
  1  2  1  0
  3  5  1  0
 11 12  2  0
 12 13  1  0
 13 14  2  0
 14 15  1  0
 15 16  2  0
 11 16  1  0
M  END

$$$$
No_1000-/export/home/yangzhenyu/potential_scad_32_flow//YTHDC2/2024-12-06-03-22-00/
     RDKit          3D

 19 21  0  0  0  0  0  0  0  0999 V2000
    1.1787   -8.0297    3.5154 C   0  0  0  0  0  0  0  0  0  0  0  0
    1.1048   -9.2215    3.2892 C   0  0  0  0  0  0  0  0  0  0  0  0
    1.3627  -10.1721    4.3044 C   0  0  0  0  0  0  0  0  0  0  0  0
    1.0682  -11.5187    4.0618 C   0  0  0  0  0  0  0  0  0  0  0  0
    0.6332  -11.9655    2.9682 C   0  0  0  0  0  0  0  0  0  0  0  0
    0.4776  -11.1308    1.9203 C   0  0  0  0  0  0  0  0  0  0  0  0
    0.7470   -9.8274    2.0368 C   0  0  0  0  0  0  0  0  0  0  0  0
    1.0387   -7.0301    2.5175 C   0  0  0  0  0  0  0  0  0  0  0  0
    0.9130   -7.5288    1.2013 C   0  0  0  0  0  0  0  0  0  0  0  0
    0.7893   -8.7979    0.9542 C   0  0  0  0  0  0  0  0  0  0  0  0
    0.5241   -9.2578   -0.2817 C   0  0  0  0  0  0  0  0  0  0  0  0
    1.2450   -9.2169   -1.2769 O   0  0  0  0  0  0  0  0  0  0  0  0
   -0.9193   -9.0668   -0.6939 N   0  0  0  0  0  0  0  0  0  0  0  0
    0.5174  -13.3791    2.7034 C   0  0  0  0  0  0  0  0  0  0  0  0
   -0.5613  -13.9379    2.5213 C   0  0  0  0  0  0  0  0  0  0  0  0
    1.7217  -14.1718    2.4309 C   0  0  0  0  0  0  0  0  0  0  0  0
    1.7444  -15.5030    2.2805 C   0  0  0  0  0  0  0  0  0  0  0  0
    0.5000  -16.0443    2.0565 C   0  0  0  0  0  0  0  0  0  0  0  0
   -0.6674  -15.2759    2.2207 C   0  0  0  0  0  0  0  0  0  0  0  0
 10 11  1  0
 11 12  2  0
 11 13  1  0
  5 14  1  0
  2  3  1  0
  3  4  2  0
  4  5  1  0
  5  6  2  0
  6  7  1  0
  1  2  2  0
  2  7  1  0
  7 10  2  0
  9 10  1  0
  8  9  2  0
  1  8  1  0
 14 15  2  0
 15 19  1  0
 18 19  2  0
 17 18  1  0
 16 17  2  0
 14 16  1  0
M  END

$$$$
No_1001-/export/home/yangzhenyu/potential_scad_32_flow//YTHDC2/2024-12-06-03-22-00/
     RDKit          3D

 20 20  0  0  1  0  0  0  0  0999 V2000
    1.1787   -8.0297    3.5154 Cl  0  0  0  0  0  0  0  0  0  0  0  0
    0.7279   -9.0023    2.8722 C   0  0  0  0  0  0  0  0  0  0  0  0
    1.3852  -10.2194    3.0621 C   0  0  0  0  0  0  0  0  0  0  0  0
    1.4545  -11.1895    2.1693 C   0  0  0  0  0  0  0  0  0  0  0  0
    0.8014  -11.1600    1.0315 C   0  0  0  0  0  0  0  0  0  0  0  0
    0.2687  -10.0102    0.6759 C   0  0  0  0  0  0  0  0  0  0  0  0
    0.1996   -8.9577    1.5190 C   0  0  0  0  0  0  0  0  0  0  0  0
    0.4296   -7.7068    0.9362 C   0  0  0  0  0  0  0  0  0  0  0  0
    1.5039   -7.2214    0.4805 O   0  0  0  0  0  0  0  0  0  0  0  0
   -0.6943   -6.8884    0.8840 O   0  0  0  0  0  0  0  0  0  0  0  0
    2.0344  -12.7798    2.6006 C   0  0  1  0  0  0  0  0  0  0  0  0
    1.6637  -13.1410    3.7221 C   0  0  0  0  0  0  0  0  0  0  0  0
    1.7839  -13.7647    1.5298 C   0  0  0  0  0  0  0  0  0  0  0  0
    1.7370  -15.0623    2.0603 C   0  0  0  0  0  0  0  0  0  0  0  0
    0.5363  -15.3974    2.6314 C   0  0  0  0  0  0  0  0  0  0  0  0
    0.6684  -16.5346    3.6092 C   0  0  0  0  0  0  0  0  0  0  0  0
    1.7135  -17.3549    3.4638 C   0  0  0  0  0  0  0  0  0  0  0  0
    2.8035  -17.1085    2.7377 F   0  0  0  0  0  0  0  0  0  0  0  0
    1.7762  -18.4581    4.2166 O   0  0  0  0  0  0  0  0  0  0  0  0
   -0.4238  -16.9299    4.3707 C   0  0  0  0  0  0  0  0  0  0  0  0
  1  2  1  0
  7  8  1  0
  8  9  2  0
  8 10  1  0
  4 11  1  0
 11 12  1  1
 11 13  1  0
 13 14  1  0
 14 15  1  0
 15 16  2  3
 16 17  1  0
 17 18  1  0
 17 19  2  0
 16 20  1  0
  2  3  2  0
  3  4  1  0
  4  5  2  0
  5  6  1  0
  6  7  2  0
  2  7  1  0
M  END

$$$$
No_1002-/export/home/yangzhenyu/potential_scad_32_flow//YTHDC2/2024-12-06-03-22-00/
     RDKit          3D

 18 18  0  0  0  0  0  0  0  0999 V2000
    1.1787   -8.0297    3.5154 C   0  0  0  0  0  0  0  0  0  0  0  0
    1.0491   -6.8434    2.9820 C   0  0  0  0  0  0  0  0  0  0  0  0
    1.9985   -8.9840    2.8958 C   0  0  0  0  0  0  0  0  0  0  0  0
    1.9135  -10.3404    3.6266 C   0  0  0  0  0  0  0  0  0  0  0  0
    2.2847  -10.5440    4.7936 O   0  0  0  0  0  0  0  0  0  0  0  0
    1.2341  -11.4116    3.0748 N   0  0  0  0  0  0  0  0  0  0  0  0
    0.3791   -6.7317    1.7881 N   0  0  0  0  0  0  0  0  0  0  0  0
    0.4717  -11.3868    1.9017 C   0  0  0  0  0  0  0  0  0  0  0  0
   -0.7291  -11.2193    1.9165 C   0  0  0  0  0  0  0  0  0  0  0  0
   -1.3573  -11.0086    0.6371 C   0  0  0  0  0  0  0  0  0  0  0  0
   -0.6254  -10.8596   -0.4873 C   0  0  0  0  0  0  0  0  0  0  0  0
    0.7295  -10.7465   -0.4024 C   0  0  0  0  0  0  0  0  0  0  0  0
    1.3623  -11.0329    0.8540 C   0  0  0  0  0  0  0  0  0  0  0  0
   -0.9448   -6.8687    1.8706 C   0  0  0  0  0  0  0  0  0  0  0  0
   -1.6018   -7.1394    0.6237 O   0  0  0  0  0  0  0  0  0  0  0  0
   -1.4693   -7.5006    3.0786 C   0  0  0  0  0  0  0  0  0  0  0  0
    2.6445  -11.0607    0.8756 Cl  0  0  0  0  0  0  0  0  0  0  0  0
   -2.5189   -7.1227    3.4834 C   0  0  0  0  0  0  0  0  0  0  0  0
  1  2  1  0
  1  3  1  0
  3  4  1  0
  4  5  2  0
  4  6  1  0
  2  7  1  0
  6  8  1  0
  7 14  1  0
 14 15  2  0
 14 16  1  0
 13 17  1  0
 16 18  2  0
  8  9  2  0
  9 10  1  0
 10 11  2  0
 11 12  1  0
 12 13  2  0
  8 13  1  0
M  END

$$$$
No_1003-/export/home/yangzhenyu/potential_scad_32_flow//YTHDC2/2024-12-06-03-22-00/
     RDKit          3D

 19 20  0  0  0  0  0  0  0  0999 V2000
    1.1787   -8.0297    3.5154 C   0  0  0  0  0  0  0  0  0  0  0  0
    1.1048   -9.2215    3.2892 C   0  0  0  0  0  0  0  0  0  0  0  0
    1.2339   -9.7611    2.0189 C   0  0  0  0  0  0  0  0  0  0  0  0
    1.1954  -11.2312    1.8661 C   0  0  0  0  0  0  0  0  0  0  0  0
    1.2996  -11.5815    0.5387 C   0  0  0  0  0  0  0  0  0  0  0  0
    1.3263   -7.1208    2.3229 C   0  0  0  0  0  0  0  0  0  0  0  0
    1.3693   -7.6408    1.0625 C   0  0  0  0  0  0  0  0  0  0  0  0
    1.4358   -8.9950    0.8622 C   0  0  0  0  0  0  0  0  0  0  0  0
    0.9078  -11.9576    2.8785 C   0  0  0  0  0  0  0  0  0  0  0  0
    0.1713  -12.8619    2.7667 C   0  0  0  0  0  0  0  0  0  0  0  0
   -0.0467  -13.4985    1.4957 C   0  0  0  0  0  0  0  0  0  0  0  0
    0.5285  -12.8138    0.3740 C   0  0  0  0  0  0  0  0  0  0  0  0
    1.3430   -5.6375    2.5538 C   0  0  0  0  0  0  0  0  0  0  0  0
    0.9795   -4.8566    1.5374 C   0  0  0  0  0  0  0  0  0  0  0  0
    0.2345   -3.7057    1.8806 C   0  0  0  0  0  0  0  0  0  0  0  0
    0.4964   -2.6503    1.6836 C   0  0  0  0  0  0  0  0  0  0  0  0
    1.7544   -2.4353    0.8793 C   0  0  0  0  0  0  0  0  0  0  0  0
   -0.6727  -14.9321    1.3072 N   0  0  0  0  0  0  0  0  0  0  0  0
   -0.0043  -15.8369    1.5488 C   0  0  0  0  0  0  0  0  0  0  0  0
  3  4  1  0
  6 13  1  0
 13 14  1  0
 14 15  1  0
 15 16  2  3
 16 17  1  0
 11 18  1  0
 18 19  1  0
  4  5  2  0
  5 12  1  0
 11 12  2  0
 10 11  1  0
  9 10  2  0
  4  9  1  0
  1  2  2  0
  2  3  1  0
  3  8  2  0
  7  8  1  0
  6  7  2  0
  1  6  1  0
M  END

$$$$
No_1004-/export/home/yangzhenyu/potential_scad_32_flow//YTHDC2/2024-12-06-03-22-00/
     RDKit          3D

 16 16  0  0  1  0  0  0  0  0999 V2000
    1.1787   -8.0297    3.5154 C   0  0  0  0  0  0  0  0  0  0  0  0
    1.0491   -6.8434    2.9820 C   0  0  0  0  0  0  0  0  0  0  0  0
    1.9985   -8.9840    2.8958 C   0  0  2  0  0  0  0  0  0  0  0  0
    1.7297   -9.2108    1.6335 C   0  0  0  0  0  0  0  0  0  0  0  0
    1.7343   -8.0566    0.8408 C   0  0  1  0  0  0  0  0  0  0  0  0
    1.4996   -6.5076    2.0364 C   0  0  0  0  0  0  0  0  0  0  0  0
    1.5802   -6.8584    0.8700 C   0  0  0  0  0  0  0  0  0  0  0  0
    2.2270   -8.5830   -0.6071 C   0  0  0  0  0  0  0  0  0  0  0  0
    2.4422   -7.9290   -1.5862 O   0  0  0  0  0  0  0  0  0  0  0  0
    2.3790   -9.9056   -0.8549 O   0  0  0  0  0  0  0  0  0  0  0  0
    2.4474  -10.1119    3.5865 C   0  0  0  0  0  0  0  0  0  0  0  0
    2.1395  -11.3873    3.4064 N   0  0  0  0  0  0  0  0  0  0  0  0
    3.2284   -9.9708    4.7882 O   0  0  0  0  0  0  0  0  0  0  0  0
    2.4958  -12.5175    4.0054 C   0  0  0  0  0  0  0  0  0  0  0  0
    2.1071  -13.7343    3.2223 C   0  0  0  0  0  0  0  0  0  0  0  0
    1.5651  -13.7495    2.1788 C   0  0  0  0  0  0  0  0  0  0  0  0
  1  2  1  0
  1  3  1  0
  3  4  1  0
  4  5  1  0
  2  6  2  0
  5  7  1  0
  6  7  1  0
  5  8  1  1
  8  9  2  0
  8 10  1  0
  3 11  1  1
 11 12  1  0
 11 13  2  0
 12 14  1  0
 14 15  1  0
 15 16  1  0
M  END

$$$$
No_1005-/export/home/yangzhenyu/potential_scad_32_flow//YTHDC2/2024-12-06-03-22-00/
     RDKit          3D

 19 20  0  0  1  0  0  0  0  0999 V2000
    1.1787   -8.0297    3.5154 C   0  0  0  0  0  0  0  0  0  0  0  0
    1.1048   -9.2215    3.2892 C   0  0  0  0  0  0  0  0  0  0  0  0
    1.2339   -9.7611    2.0189 C   0  0  1  0  0  0  0  0  0  0  0  0
    1.1954  -11.2312    1.8661 C   0  0  0  0  0  0  0  0  0  0  0  0
    1.5546  -12.1691    2.7931 C   0  0  0  0  0  0  0  0  0  0  0  0
    0.5849   -7.0929    2.5729 C   0  0  2  0  0  0  0  0  0  0  0  0
    0.5567   -7.6699    1.1955 C   0  0  0  0  0  0  0  0  0  0  0  0
    0.7903   -8.9699    0.9209 C   0  0  0  0  0  0  0  0  0  0  0  0
    1.5521  -13.4960    2.3485 C   0  0  0  0  0  0  0  0  0  0  0  0
    1.2403  -13.8919    1.1557 C   0  0  0  0  0  0  0  0  0  0  0  0
    1.0311  -12.9707    0.1488 C   0  0  0  0  0  0  0  0  0  0  0  0
    0.9678  -11.6394    0.4949 C   0  0  0  0  0  0  0  0  0  0  0  0
    0.6235   -5.6335    2.6368 C   0  0  0  0  0  0  0  0  0  0  0  0
    0.3286   -6.8520    0.1792 O   0  0  0  0  0  0  0  0  0  0  0  0
    1.7682   -4.9032    2.9572 C   0  0  0  0  0  0  0  0  0  0  0  0
    1.9499  -14.4178    3.3898 C   0  0  0  0  0  0  0  0  0  0  0  0
    1.4311  -15.8138    2.9506 O   0  0  0  0  0  0  0  0  0  0  0  0
    1.2934  -16.7948    3.6716 C   0  0  0  0  0  0  0  0  0  0  0  0
    1.8222  -17.8844    3.4053 C   0  0  0  0  0  0  0  0  0  0  0  0
  1  2  1  0
  3  4  1  1
  6  7  1  0
  3  8  1  0
  7  8  1  0
  6 13  1  6
  7 14  2  0
 13 15  1  0
  9 16  1  0
 16 17  1  0
 17 18  1  0
 18 19  1  0
  1  6  1  0
  2  3  1  0
  4  5  2  0
  5  9  1  0
  9 10  2  0
 10 11  1  0
 11 12  2  0
  4 12  1  0
M  END

$$$$
No_1006-/export/home/yangzhenyu/potential_scad_32_flow//YTHDC2/2024-12-06-03-22-00/
     RDKit          3D

 18 19  0  0  1  0  0  0  0  0999 V2000
    1.1787   -8.0297    3.5154 C   0  0  0  0  0  0  0  0  0  0  0  0
    1.1048   -9.2215    3.2892 C   0  0  0  0  0  0  0  0  0  0  0  0
    1.3627  -10.1721    4.3044 C   0  0  0  0  0  0  0  0  0  0  0  0
    1.0682  -11.5187    4.0618 C   0  0  0  0  0  0  0  0  0  0  0  0
    0.6332  -11.9655    2.9682 C   0  0  0  0  0  0  0  0  0  0  0  0
    0.4776  -11.1308    1.9203 C   0  0  0  0  0  0  0  0  0  0  0  0
    0.1540  -11.7530    0.6168 C   0  0  0  0  0  0  0  0  0  0  0  0
    0.7711   -9.8473    1.9948 C   0  0  0  0  0  0  0  0  0  0  0  0
   -0.2360  -10.8832   -0.3094 O   0  0  0  0  0  0  0  0  0  0  0  0
   -0.0358  -13.0394    0.4188 N   0  0  0  0  0  0  0  0  0  0  0  0
    0.9995   -7.0290    2.5863 C   0  0  2  0  0  0  0  0  0  0  0  0
    1.1807   -7.4236    1.2064 C   0  0  0  0  0  0  0  0  0  0  0  0
    0.9231   -8.7378    0.9125 C   0  0  0  0  0  0  0  0  0  0  0  0
    1.4040   -5.6086    2.8696 Br  0  0  0  0  0  0  0  0  0  0  0  0
    0.9938   -6.7693    0.2546 O   0  0  0  0  0  0  0  0  0  0  0  0
    0.5599  -14.0832    1.2290 C   0  0  0  0  0  0  0  0  0  0  0  0
    1.9901  -14.3540    0.9559 C   0  0  0  0  0  0  0  0  0  0  0  0
    2.5643  -15.2701    1.7761 C   0  0  0  0  0  0  0  0  0  0  0  0
  1  2  1  0
  6  7  1  0
  7  9  2  0
  7 10  1  0
 11 12  1  0
  8 13  1  0
 12 13  1  0
 11 14  1  1
 12 15  2  0
 10 16  1  0
 16 17  1  0
 17 18  2  0
  1 11  1  0
  2  3  2  0
  3  4  1  0
  4  5  2  0
  5  6  1  0
  6  8  2  0
  2  8  1  0
M  END

$$$$
No_1007-/export/home/yangzhenyu/potential_scad_32_flow//YTHDC2/2024-12-06-03-22-00/
     RDKit          3D

 18 19  0  0  1  0  0  0  0  0999 V2000
    1.1787   -8.0297    3.5154 C   0  0  0  0  0  0  0  0  0  0  0  0
    1.1048   -9.2215    3.2892 N   0  0  0  0  0  0  0  0  0  0  0  0
    1.5378  -10.1363    4.2323 C   0  0  0  0  0  0  0  0  0  0  0  0
    0.8191   -7.0289    2.5357 C   0  0  0  0  0  0  0  0  0  0  0  0
    0.3291   -7.6013    1.4499 C   0  0  0  0  0  0  0  0  0  0  0  0
    0.1648   -8.8030    1.1776 C   0  0  0  0  0  0  0  0  0  0  0  0
    0.6142   -9.7499    2.0807 C   0  0  1  0  0  0  0  0  0  0  0  0
    1.9177  -11.5211    3.6283 C   0  0  0  0  0  0  0  0  0  0  0  0
    1.2132  -12.0038    2.5946 C   0  0  1  0  0  0  0  0  0  0  0  0
    0.7203  -10.9725    1.6928 C   0  0  0  0  0  0  0  0  0  0  0  0
    1.3943  -13.3088    2.1783 C   0  0  2  0  0  0  0  0  0  0  0  0
    1.6366  -13.7254    0.9459 C   0  0  0  0  0  0  0  0  0  0  0  0
    1.2486  -14.3643    3.1491 C   0  0  0  0  0  0  0  0  0  0  0  0
    1.4278  -15.7097    2.8008 C   0  0  0  0  0  0  0  0  0  0  0  0
    0.6779  -16.6526    3.1892 C   0  0  0  0  0  0  0  0  0  0  0  0
    0.9571  -17.9764    3.0163 C   0  0  0  0  0  0  0  0  0  0  0  0
    2.1907  -18.3033    2.2664 C   0  0  0  0  0  0  0  0  0  0  0  0
    3.0582  -17.2096    1.9310 C   0  0  0  0  0  0  0  0  0  0  0  0
  1  2  1  0
  2  3  1  0
  4  5  1  0
  2  7  1  0
  7  6  1  6
  3  8  1  0
  7 10  1  0
  9 10  1  6
  9 11  1  0
 11 12  1  6
 11 13  1  0
 13 14  1  0
 14 15  1  0
 15 16  2  3
 16 17  1  0
 17 18  2  0
  8  9  1  0
  1  4  1  0
  5  6  1  0
M  END

$$$$
No_1008-/export/home/yangzhenyu/potential_scad_32_flow//YTHDC2/2024-12-06-03-22-00/
     RDKit          3D

 17 17  0  0  1  0  0  0  0  0999 V2000
    1.1787   -8.0297    3.5154 C   0  0  0  0  0  0  0  0  0  0  0  0
    1.1048   -9.2215    3.2892 C   0  0  0  0  0  0  0  0  0  0  0  0
    1.2339   -9.7611    2.0189 C   0  0  0  0  0  0  0  0  0  0  0  0
    1.3583   -9.0036    0.9764 C   0  0  0  0  0  0  0  0  0  0  0  0
    1.5996   -7.6362    1.1311 C   0  0  0  0  0  0  0  0  0  0  0  0
    1.4830   -7.0928    2.3626 C   0  0  0  0  0  0  0  0  0  0  0  0
    1.4898   -5.7274    2.6199 C   0  0  0  0  0  0  0  0  0  0  0  0
    1.1681  -11.2222    1.8390 C   0  0  0  0  0  0  0  0  0  0  0  0
    0.7145  -11.5870    0.5424 N   0  0  0  0  0  0  0  0  0  0  0  0
    1.6013  -12.0513    2.6406 O   0  0  0  0  0  0  0  0  0  0  0  0
    1.2437   -4.8528    1.6283 O   0  0  0  0  0  0  0  0  0  0  0  0
    1.7659   -5.1410    3.8010 O   0  0  0  0  0  0  0  0  0  0  0  0
    0.6741  -13.0398    0.3517 C   0  0  0  0  0  0  0  0  0  0  0  0
   -0.6644  -13.4589   -0.0146 C   0  0  0  0  0  0  0  0  0  0  0  0
   -0.7354  -14.8417   -0.1996 C   0  0  1  0  0  0  0  0  0  0  0  0
   -1.0221  -15.3042   -1.3990 Cl  0  0  0  0  0  0  0  0  0  0  0  0
   -0.3306  -15.6161    0.8789 C   0  0  0  0  0  0  0  0  0  0  0  0
  6  7  1  0
  3  8  1  0
  8  9  1  0
  8 10  2  0
  7 11  2  0
  7 12  1  0
  9 13  1  0
 13 14  1  0
 14 15  1  0
 15 16  1  0
 15 17  1  6
  1  2  2  0
  2  3  1  0
  3  4  2  0
  4  5  1  0
  5  6  2  0
  1  6  1  0
M  END

$$$$
No_1009-/export/home/yangzhenyu/potential_scad_32_flow//YTHDC2/2024-12-06-03-22-00/
     RDKit          3D

 19 19  0  0  0  0  0  0  0  0999 V2000
    1.1787   -8.0297    3.5154 C   0  0  0  0  0  0  0  0  0  0  0  0
    1.0491   -6.8434    2.9820 C   0  0  0  0  0  0  0  0  0  0  0  0
    0.9905   -9.0774    2.6527 C   0  0  0  0  0  0  0  0  0  0  0  0
    0.9687   -8.6883    1.3634 C   0  0  0  0  0  0  0  0  0  0  0  0
    1.0948   -6.3768    1.7686 C   0  0  0  0  0  0  0  0  0  0  0  0
    0.9504   -7.3975    0.8471 C   0  0  0  0  0  0  0  0  0  0  0  0
    0.9617   -9.7173    0.3352 C   0  0  0  0  0  0  0  0  0  0  0  0
    1.3407  -10.9614    0.6281 O   0  0  0  0  0  0  0  0  0  0  0  0
    0.4453   -9.6319   -0.8066 O   0  0  0  0  0  0  0  0  0  0  0  0
    1.0607   -5.0397    1.3651 C   0  0  0  0  0  0  0  0  0  0  0  0
    1.7558   -4.1688    2.0287 O   0  0  0  0  0  0  0  0  0  0  0  0
    0.4186   -4.6377    0.4235 O   0  0  0  0  0  0  0  0  0  0  0  0
    1.1421  -10.4190    3.1126 N   0  0  0  0  0  0  0  0  0  0  0  0
    2.4091  -10.9701    3.3919 C   0  0  0  0  0  0  0  0  0  0  0  0
    2.3650  -11.7023    4.6148 C   0  0  0  0  0  0  0  0  0  0  0  0
    1.9429  -10.7519    5.6049 O   0  0  0  0  0  0  0  0  0  0  0  0
    0.0767  -11.2879    2.9473 C   0  0  0  0  0  0  0  0  0  0  0  0
   -1.2486  -10.6773    3.2207 O   0  0  0  0  0  0  0  0  0  0  0  0
    0.0408  -12.4771    2.4264 N   0  0  0  0  0  0  0  0  0  0  0  0
  4  7  1  0
  7  8  1  0
  7  9  2  0
  5 10  1  0
 10 11  2  0
 10 12  1  0
  3 13  1  0
 13 14  1  0
 14 15  1  0
 15 16  1  0
 13 17  1  0
 17 18  2  0
 17 19  1  0
  1  2  2  0
  2  5  1  0
  5  6  2  0
  4  6  1  0
  3  4  2  0
  1  3  1  0
M  END

$$$$
No_1010-/export/home/yangzhenyu/potential_scad_32_flow//YTHDC2/2024-12-06-03-22-00/
     RDKit          3D

 19 21  0  0  0  0  0  0  0  0999 V2000
    1.1787   -8.0297    3.5154 C   0  0  0  0  0  0  0  0  0  0  0  0
    1.1048   -9.2215    3.2892 C   0  0  0  0  0  0  0  0  0  0  0  0
    1.3627  -10.1721    4.3044 C   0  0  0  0  0  0  0  0  0  0  0  0
    1.7354  -11.4730    3.9023 C   0  0  0  0  0  0  0  0  0  0  0  0
    1.8080  -11.8127    2.7216 C   0  0  0  0  0  0  0  0  0  0  0  0
    1.5854  -11.0021    1.7249 C   0  0  0  0  0  0  0  0  0  0  0  0
    1.3573   -9.7389    1.9287 C   0  0  0  0  0  0  0  0  0  0  0  0
    1.2865   -8.8078    0.9161 C   0  0  0  0  0  0  0  0  0  0  0  0
    0.9210   -7.5140    1.1674 C   0  0  0  0  0  0  0  0  0  0  0  0
    1.0097   -7.0192    2.4369 C   0  0  0  0  0  0  0  0  0  0  0  0
    2.0228  -13.2586    2.4222 C   0  0  0  0  0  0  0  0  0  0  0  0
    2.3575  -13.7715    1.2631 O   0  0  0  0  0  0  0  0  0  0  0  0
    2.0957  -14.1897    3.4485 O   0  0  0  0  0  0  0  0  0  0  0  0
    0.8552   -5.6077    2.7040 C   0  0  0  0  0  0  0  0  0  0  0  0
   -0.3540   -5.0397    2.2417 C   0  0  0  0  0  0  0  0  0  0  0  0
   -0.5991   -4.0067    2.5049 C   0  0  0  0  0  0  0  0  0  0  0  0
    0.4000   -3.0226    3.1244 C   0  0  0  0  0  0  0  0  0  0  0  0
    1.6416   -3.5372    3.4927 C   0  0  0  0  0  0  0  0  0  0  0  0
    1.8080   -4.9200    3.3702 C   0  0  0  0  0  0  0  0  0  0  0  0
  5 11  1  0
 11 12  2  0
 11 13  1  0
 10 14  1  0
  1  2  2  0
  7  8  2  0
  8  9  1  0
  9 10  2  0
  1 10  1  0
  2  3  1  0
  3  4  2  0
  4  5  1  0
  5  6  2  0
  6  7  1  0
  2  7  1  0
 14 15  2  0
 15 16  1  0
 16 17  2  0
 17 18  1  0
 18 19  2  0
 14 19  1  0
M  END

$$$$
No_1011-/export/home/yangzhenyu/potential_scad_32_flow//YTHDC2/2024-12-06-03-22-00/
     RDKit          3D

 20 21  0  0  0  0  0  0  0  0999 V2000
    1.1787   -8.0297    3.5154 C   0  0  0  0  0  0  0  0  0  0  0  0
    1.1048   -9.2215    3.2892 C   0  0  0  0  0  0  0  0  0  0  0  0
    1.0239   -9.7790    2.0239 C   0  0  0  0  0  0  0  0  0  0  0  0
    1.1393   -9.0211    0.9686 C   0  0  0  0  0  0  0  0  0  0  0  0
    1.4051   -7.6500    1.1251 C   0  0  0  0  0  0  0  0  0  0  0  0
    1.4868   -7.1041    2.3534 C   0  0  0  0  0  0  0  0  0  0  0  0
    0.9740  -10.2562    4.5561 C   0  0  0  0  0  0  0  0  0  0  0  0
    0.8495  -11.7039    4.0242 F   0  0  0  0  0  0  0  0  0  0  0  0
   -0.2735  -10.1083    5.0952 F   0  0  0  0  0  0  0  0  0  0  0  0
    1.7941  -10.2634    5.3876 F   0  0  0  0  0  0  0  0  0  0  0  0
    1.1707   -9.4994   -0.3653 C   0  0  0  0  0  0  0  0  0  0  0  0
    0.1058  -10.3042   -0.6501 O   0  0  0  0  0  0  0  0  0  0  0  0
    1.9501   -9.2153   -1.2280 O   0  0  0  0  0  0  0  0  0  0  0  0
    1.5330   -5.6967    2.6503 Cl  0  0  0  0  0  0  0  0  0  0  0  0
   -1.0820   -9.9099   -1.3171 C   0  0  0  0  0  0  0  0  0  0  0  0
   -1.7877  -10.9080   -1.7850 C   0  0  0  0  0  0  0  0  0  0  0  0
   -2.4549  -10.7104   -2.9017 C   0  0  0  0  0  0  0  0  0  0  0  0
   -2.7703   -9.3346   -3.2271 C   0  0  0  0  0  0  0  0  0  0  0  0
   -2.0043   -8.2998   -2.7874 C   0  0  0  0  0  0  0  0  0  0  0  0
   -1.1023   -8.6109   -1.6738 C   0  0  0  0  0  0  0  0  0  0  0  0
  2  7  1  0
  7  8  1  0
  7  9  1  0
  7 10  1  0
  4 11  1  0
 11 12  1  0
 11 13  2  0
  6 14  1  0
 12 15  1  0
 15 16  2  0
 16 17  1  0
 17 18  2  0
 18 19  1  0
 19 20  2  0
 15 20  1  0
  1  2  2  0
  2  3  1  0
  3  4  2  0
  4  5  1  0
  5  6  2  0
  1  6  1  0
M  END

$$$$
No_1012-/export/home/yangzhenyu/potential_scad_32_flow//YTHDC2/2024-12-06-03-22-00/
     RDKit          3D

 19 20  0  0  1  0  0  0  0  0999 V2000
    1.1787   -8.0297    3.5154 C   0  0  0  0  0  0  0  0  0  0  0  0
    1.1048   -9.2215    3.2892 C   0  0  0  0  0  0  0  0  0  0  0  0
    1.2339   -9.7611    2.0189 C   0  0  0  0  0  0  0  0  0  0  0  0
    1.1954  -11.2312    1.8661 C   0  0  2  0  0  0  0  0  0  0  0  0
    1.5546  -12.1691    2.7931 C   0  0  0  0  0  0  0  0  0  0  0  0
    0.9527   -7.0669    2.3918 C   0  0  0  0  0  0  0  0  0  0  0  0
    1.0618   -7.6392    1.0692 C   0  0  0  0  0  0  0  0  0  0  0  0
    1.2060   -8.9530    0.8578 C   0  0  0  0  0  0  0  0  0  0  0  0
    1.5110  -13.5006    2.3856 C   0  0  0  0  0  0  0  0  0  0  0  0
    1.1461  -13.9087    1.2014 C   0  0  0  0  0  0  0  0  0  0  0  0
    0.9324  -13.0660    0.2177 C   0  0  0  0  0  0  0  0  0  0  0  0
    0.9275  -11.6786    0.5224 C   0  0  0  0  0  0  0  0  0  0  0  0
    1.0094   -5.6129    2.4729 Br  0  0  0  0  0  0  0  0  0  0  0  0
    1.9076  -14.4157    3.4320 O   0  0  0  0  0  0  0  0  0  0  0  0
    0.4803  -10.8199   -0.3729 O   0  0  0  0  0  0  0  0  0  0  0  0
    1.6330  -15.7325    3.0769 C   0  0  1  0  0  0  0  0  0  0  0  0
    2.7015  -16.4942    2.6979 C   0  0  0  0  0  0  0  0  0  0  0  0
    0.4836  -16.3364    3.4439 C   0  0  0  0  0  0  0  0  0  0  0  0
    3.7814  -15.9933    2.1031 O   0  0  0  0  0  0  0  0  0  0  0  0
  4  3  1  6
  4  5  1  0
  9 10  1  0
  4 12  1  0
 11 12  1  0
  6 13  1  0
  9 14  1  0
 12 15  2  0
 14 16  1  0
 16 17  1  0
 16 18  1  1
 17 19  2  0
  5  9  1  0
 10 11  1  0
  1  2  2  0
  2  3  1  0
  3  8  2  0
  7  8  1  0
  6  7  2  0
  1  6  1  0
M  END

$$$$
No_1013-/export/home/yangzhenyu/potential_scad_32_flow//YTHDC2/2024-12-06-03-22-00/
     RDKit          3D

 19 20  0  0  1  0  0  0  0  0999 V2000
    1.1787   -8.0297    3.5154 C   0  0  0  0  0  0  0  0  0  0  0  0
    1.1048   -9.2215    3.2892 C   0  0  0  0  0  0  0  0  0  0  0  0
    1.2339   -9.7611    2.0189 C   0  0  0  0  0  0  0  0  0  0  0  0
    1.3583   -9.0036    0.9764 C   0  0  0  0  0  0  0  0  0  0  0  0
    1.5996   -7.6362    1.1311 C   0  0  0  0  0  0  0  0  0  0  0  0
    1.4830   -7.0928    2.3626 C   0  0  0  0  0  0  0  0  0  0  0  0
    1.3121   -5.7497    2.5440 C   0  0  0  0  0  0  0  0  0  0  0  0
    1.1998  -11.2296    1.8484 C   0  0  0  0  0  0  0  0  0  0  0  0
    0.8758  -11.6195    0.5866 O   0  0  0  0  0  0  0  0  0  0  0  0
    1.5099  -12.0500    2.7348 N   0  0  0  0  0  0  0  0  0  0  0  0
    1.5833  -13.4348    2.5378 C   0  0  2  0  0  0  0  0  0  0  0  0
    2.7258  -14.1779    2.1151 C   0  0  0  0  0  0  0  0  0  0  0  0
    0.3676  -14.0688    2.6267 C   0  0  0  0  0  0  0  0  0  0  0  0
   -0.7804  -13.4881    2.7330 C   0  0  0  0  0  0  0  0  0  0  0  0
    0.4896  -15.5690    2.7224 C   0  0  0  0  0  0  0  0  0  0  0  0
   -1.9326  -14.1602    2.8218 C   0  0  0  0  0  0  0  0  0  0  0  0
   -1.9331  -15.4838    2.7563 C   0  0  0  0  0  0  0  0  0  0  0  0
   -0.7993  -16.1638    2.7465 C   0  0  0  0  0  0  0  0  0  0  0  0
    1.7635   -5.1296    3.6689 I   0  0  0  0  0  0  0  0  0  0  0  0
  6  7  1  0
  3  8  1  0
  8  9  2  0
  8 10  1  0
 10 11  1  0
 11 12  1  6
 11 13  1  0
  7 19  1  0
  1  2  2  0
  2  3  1  0
  3  4  2  0
  4  5  1  0
  5  6  2  0
  1  6  1  0
 13 14  2  0
 14 16  1  0
 16 17  2  0
 17 18  1  0
 15 18  2  0
 13 15  1  0
M  END

$$$$
No_1014-/export/home/yangzhenyu/potential_scad_32_flow//YTHDC2/2024-12-06-03-22-00/
     RDKit          3D

 19 19  0  0  1  0  0  0  0  0999 V2000
    1.1787   -8.0297    3.5154 C   0  0  0  0  0  0  0  0  0  0  0  0
    1.1048   -9.2215    3.2892 C   0  0  0  0  0  0  0  0  0  0  0  0
    1.2339   -9.7611    2.0189 C   0  0  0  0  0  0  0  0  0  0  0  0
    1.3583   -9.0036    0.9764 C   0  0  0  0  0  0  0  0  0  0  0  0
    1.5996   -7.6362    1.1311 C   0  0  0  0  0  0  0  0  0  0  0  0
    1.4830   -7.0928    2.3626 C   0  0  0  0  0  0  0  0  0  0  0  0
    1.4898   -5.7274    2.6199 C   0  0  0  0  0  0  0  0  0  0  0  0
    1.1681  -11.2222    1.8390 C   0  0  1  0  0  0  0  0  0  0  0  0
    0.7145  -11.5870    0.5424 O   0  0  0  0  0  0  0  0  0  0  0  0
    1.6081  -12.0518    2.6142 C   0  0  0  0  0  0  0  0  0  0  0  0
    0.8786  -13.0996    2.9043 C   0  0  1  0  0  0  0  0  0  0  0  0
   -0.4237  -12.9598    3.0240 O   0  0  0  0  0  0  0  0  0  0  0  0
    1.4018  -14.3674    3.0149 Cl  0  0  0  0  0  0  0  0  0  0  0  0
    1.6611   -5.2021    3.8539 O   0  0  0  0  0  0  0  0  0  0  0  0
    1.3626   -4.8369    1.6670 O   0  0  0  0  0  0  0  0  0  0  0  0
    1.5797   -9.4162   -0.5117 C   0  0  0  0  0  0  0  0  0  0  0  0
    0.4324   -9.5436   -1.0836 O   0  0  0  0  0  0  0  0  0  0  0  0
    2.6346   -9.0803   -1.1614 O   0  0  0  0  0  0  0  0  0  0  0  0
    0.8801  -10.2190    4.5394 Cl  0  0  0  0  0  0  0  0  0  0  0  0
  6  7  1  0
  3  8  1  0
  8  9  1  6
  8 10  1  0
 10 11  1  0
 11 12  1  6
 11 13  1  0
  7 14  1  0
  7 15  2  0
  4 16  1  0
 16 17  1  0
 16 18  2  0
  2 19  1  0
  1  2  2  0
  2  3  1  0
  3  4  2  0
  4  5  1  0
  5  6  2  0
  1  6  1  0
M  END

$$$$
No_1015-/export/home/yangzhenyu/potential_scad_32_flow//YTHDC2/2024-12-06-03-22-00/
     RDKit          3D

 17 20  0  0  1  0  0  0  0  0999 V2000
    1.1787   -8.0297    3.5154 O   0  0  0  0  0  0  0  0  0  0  0  0
    0.6747   -7.4019    2.7838 C   0  0  0  0  0  0  0  0  0  0  0  0
    0.7594   -8.0032    1.4295 C   0  0  1  0  0  0  0  0  0  0  0  0
    1.4743   -7.4398    0.6034 C   0  0  0  0  0  0  0  0  0  0  0  0
    1.8433   -8.4150   -0.4648 C   0  0  0  0  0  0  0  0  0  0  0  0
    1.9741   -9.5945   -0.2897 C   0  0  0  0  0  0  0  0  0  0  0  0
    1.1774  -10.3335    0.6708 C   0  0  2  0  0  0  0  0  0  0  0  0
    0.8686   -9.4593    1.8340 C   0  0  1  0  0  0  0  0  0  0  0  0
    0.7655   -9.7974    3.1301 C   0  0  1  0  0  0  0  0  0  0  0  0
    0.9680  -10.6614    3.8299 C   0  0  0  0  0  0  0  0  0  0  0  0
    1.1342  -11.9508    3.1040 C   0  0  0  0  0  0  0  0  0  0  0  0
    1.2600  -13.1395    4.0421 C   0  0  0  0  0  0  0  0  0  0  0  0
    1.0988  -14.3908    3.2771 C   0  0  0  0  0  0  0  0  0  0  0  0
    0.6948  -14.3918    1.9484 C   0  0  0  0  0  0  0  0  0  0  0  0
    0.5253  -13.1010    1.2510 C   0  0  0  0  0  0  0  0  0  0  0  0
    0.7521  -11.9845    1.8999 C   0  0  0  0  0  0  0  0  0  0  0  0
    0.9337  -11.1170    0.8725 N   0  0  0  0  0  0  0  0  0  0  0  0
  1  2  1  0
  3  2  1  1
  3  4  1  0
  4  5  1  0
  5  6  1  0
  7  6  1  1
  8  3  1  1
  7  8  1  0
  1  9  1  0
  8  9  1  0
  9 10  1  1
  7 17  1  0
 16 17  1  0
 10 11  1  0
 11 12  2  0
 12 13  1  0
 13 14  2  0
 14 15  1  0
 15 16  2  0
 11 16  1  0
M  END

$$$$
No_1016-/export/home/yangzhenyu/potential_scad_32_flow//YTHDC2/2024-12-06-03-22-00/
     RDKit          3D

 18 19  0  0  1  0  0  0  0  0999 V2000
    1.1787   -8.0297    3.5154 C   0  0  0  0  0  0  0  0  0  0  0  0
    1.1048   -9.2215    3.2892 C   0  0  0  0  0  0  0  0  0  0  0  0
    1.2339   -9.7611    2.0189 C   0  0  0  0  0  0  0  0  0  0  0  0
    1.3583   -9.0036    0.9764 C   0  0  0  0  0  0  0  0  0  0  0  0
    1.5996   -7.6362    1.1311 C   0  0  0  0  0  0  0  0  0  0  0  0
    1.4830   -7.0928    2.3626 C   0  0  0  0  0  0  0  0  0  0  0  0
    1.1008  -11.2372    1.8542 C   0  0  2  0  0  0  0  0  0  0  0  0
    1.9749  -12.0938    2.2342 C   0  0  0  0  0  0  0  0  0  0  0  0
    1.7533  -13.4231    1.8956 C   0  0  0  0  0  0  0  0  0  0  0  0
    0.8624  -13.8318    1.1071 C   0  0  0  0  0  0  0  0  0  0  0  0
    0.0173  -12.3388    0.8496 C   0  0  0  0  0  0  0  0  0  0  0  0
    1.5379   -5.6484    2.6265 Br  0  0  0  0  0  0  0  0  0  0  0  0
    2.5818  -14.5870    2.1824 O   0  0  0  0  0  0  0  0  0  0  0  0
    0.2522  -14.7048    0.4503 C   0  0  0  0  0  0  0  0  0  0  0  0
   -0.2762  -14.5259   -0.7722 C   0  0  0  0  0  0  0  0  0  0  0  0
   -0.8195  -15.5988   -1.5190 C   0  0  0  0  0  0  0  0  0  0  0  0
   -1.6794  -15.4135   -2.4861 C   0  0  0  0  0  0  0  0  0  0  0  0
   -2.0116  -16.5114   -3.2782 C   0  0  0  0  0  0  0  0  0  0  0  0
  7  3  1  6
  7  8  1  0
  8  9  2  0
  9 10  1  0
  7 11  1  0
 10 11  1  0
  6 12  1  0
  9 13  1  0
 10 14  1  0
 14 15  2  3
 15 16  1  0
 16 17  2  3
 17 18  1  0
  1  2  2  0
  2  3  1  0
  3  4  2  0
  4  5  1  0
  5  6  2  0
  1  6  1  0
M  END

$$$$
No_1017-/export/home/yangzhenyu/potential_scad_32_flow//YTHDC2/2024-12-06-03-22-00/
     RDKit          3D

 19 19  0  0  0  0  0  0  0  0999 V2000
    1.1787   -8.0297    3.5154 C   0  0  0  0  0  0  0  0  0  0  0  0
    1.1048   -9.2215    3.2892 C   0  0  0  0  0  0  0  0  0  0  0  0
    1.2339   -9.7611    2.0189 C   0  0  0  0  0  0  0  0  0  0  0  0
    1.3583   -9.0036    0.9764 C   0  0  0  0  0  0  0  0  0  0  0  0
    1.5996   -7.6362    1.1311 C   0  0  0  0  0  0  0  0  0  0  0  0
    1.4830   -7.0928    2.3626 C   0  0  0  0  0  0  0  0  0  0  0  0
    1.4898   -5.7274    2.6199 C   0  0  0  0  0  0  0  0  0  0  0  0
    1.1681  -11.2222    1.8390 C   0  0  0  0  0  0  0  0  0  0  0  0
    1.9047  -12.1147    2.3357 C   0  0  0  0  0  0  0  0  0  0  0  0
    1.2927  -13.3233    2.7474 C   0  0  0  0  0  0  0  0  0  0  0  0
    1.7756  -14.5591    2.3026 C   0  0  0  0  0  0  0  0  0  0  0  0
    1.2258  -15.7621    2.8132 O   0  0  0  0  0  0  0  0  0  0  0  0
    2.8637  -14.6814    1.7287 O   0  0  0  0  0  0  0  0  0  0  0  0
    1.2507   -4.8576    1.6207 O   0  0  0  0  0  0  0  0  0  0  0  0
    1.7691   -5.1407    3.7975 O   0  0  0  0  0  0  0  0  0  0  0  0
    1.6264   -9.4629   -0.3105 C   0  0  0  0  0  0  0  0  0  0  0  0
    1.4898   -9.0561   -1.2812 O   0  0  0  0  0  0  0  0  0  0  0  0
    1.8325  -10.7947   -0.3622 O   0  0  0  0  0  0  0  0  0  0  0  0
    0.7984  -10.1911    4.3617 S   0  0  0  0  0  0  0  0  0  0  0  0
  6  7  1  0
  3  8  1  0
  8  9  1  0
  9 10  1  0
 10 11  1  0
 11 12  1  0
 11 13  2  0
  7 14  2  0
  7 15  1  0
  4 16  1  0
 16 17  2  0
 16 18  1  0
  2 19  1  0
  1  2  2  0
  2  3  1  0
  3  4  2  0
  4  5  1  0
  5  6  2  0
  1  6  1  0
M  END

$$$$
No_1018-/export/home/yangzhenyu/potential_scad_32_flow//YTHDC2/2024-12-06-03-22-00/
     RDKit          3D

 19 21  0  0  0  0  0  0  0  0999 V2000
    1.1787   -8.0297    3.5154 C   0  0  0  0  0  0  0  0  0  0  0  0
    1.1048   -9.2215    3.2892 C   0  0  0  0  0  0  0  0  0  0  0  0
    1.3627  -10.1721    4.3044 C   0  0  0  0  0  0  0  0  0  0  0  0
    1.7354  -11.4730    3.9023 C   0  0  0  0  0  0  0  0  0  0  0  0
    1.6166  -11.5515    2.5159 C   0  0  0  0  0  0  0  0  0  0  0  0
    1.4080  -10.1475    2.0704 C   0  0  0  0  0  0  0  0  0  0  0  0
    1.0837   -7.1462    2.2374 C   0  0  0  0  0  0  0  0  0  0  0  0
    1.3901   -7.8684    1.0270 C   0  0  0  0  0  0  0  0  0  0  0  0
    1.5319   -9.2097    0.9492 C   0  0  0  0  0  0  0  0  0  0  0  0
    1.7058   -9.7243   -0.2487 N   0  0  0  0  0  0  0  0  0  0  0  0
    1.9315  -12.3977    1.6897 O   0  0  0  0  0  0  0  0  0  0  0  0
    0.9811   -5.7233    2.2440 O   0  0  0  0  0  0  0  0  0  0  0  0
    1.4572   -7.2543   -0.0785 N   0  0  0  0  0  0  0  0  0  0  0  0
    1.6672   -8.4235   -0.9313 C   0  0  0  0  0  0  0  0  0  0  0  0
    1.7711   -4.9726    3.0974 C   0  0  0  0  0  0  0  0  0  0  0  0
    0.8130   -3.9270    3.6402 C   0  0  0  0  0  0  0  0  0  0  0  0
    0.4267   -2.9459    2.6993 C   0  0  0  0  0  0  0  0  0  0  0  0
    1.5293   -2.1785    2.3889 C   0  0  0  0  0  0  0  0  0  0  0  0
    1.6392   -2.0352    1.2378 C   0  0  0  0  0  0  0  0  0  0  0  0
  2  3  1  0
  3  4  2  0
  4  5  1  0
  5  6  1  0
  5 11  2  0
  7 12  1  0
 10 14  1  0
 13 14  1  0
 12 15  1  0
 15 16  1  0
 16 17  1  0
 17 18  1  0
 18 19  1  0
  9 10  1  0
  8 13  1  0
  1  2  2  0
  2  6  1  0
  6  9  2  0
  8  9  1  0
  7  8  2  0
  1  7  1  0
M  END

$$$$
No_1019-/export/home/yangzhenyu/potential_scad_32_flow//YTHDC2/2024-12-06-03-22-00/
     RDKit          3D

 20 20  0  0  1  0  0  0  0  0999 V2000
    1.1787   -8.0297    3.5154 C   0  0  0  0  0  0  0  0  0  0  0  0
    1.1048   -9.2215    3.2892 C   0  0  0  0  0  0  0  0  0  0  0  0
    1.3627  -10.1721    4.3044 C   0  0  0  0  0  0  0  0  0  0  0  0
    2.3720  -10.8948    4.2468 C   0  0  0  0  0  0  0  0  0  0  0  0
    0.8234   -7.0464    2.5717 C   0  0  0  0  0  0  0  0  0  0  0  0
    0.4328   -7.4736    1.3042 C   0  0  0  0  0  0  0  0  0  0  0  0
    0.3532   -8.7488    0.9919 C   0  0  0  0  0  0  0  0  0  0  0  0
    0.7039   -9.7094    1.9672 C   0  0  0  0  0  0  0  0  0  0  0  0
    0.6986  -10.9809    1.7122 Cl  0  0  0  0  0  0  0  0  0  0  0  0
    3.4925  -10.5400    4.8735 C   0  0  0  0  0  0  0  0  0  0  0  0
    3.2552  -10.1538    6.2531 O   0  0  0  0  0  0  0  0  0  0  0  0
    4.6782  -10.7135    4.6407 O   0  0  0  0  0  0  0  0  0  0  0  0
    1.0165   -5.5801    2.8179 C   0  0  1  0  0  0  0  0  0  0  0  0
    0.0136   -9.1298   -0.3049 C   0  0  0  0  0  0  0  0  0  0  0  0
   -1.2484   -9.5854   -0.5812 O   0  0  0  0  0  0  0  0  0  0  0  0
    0.8368   -8.9450   -1.3040 O   0  0  0  0  0  0  0  0  0  0  0  0
    1.7390   -5.2484    3.8964 C   0  0  0  0  0  0  0  0  0  0  0  0
    0.6260   -4.7161    1.8951 C   0  0  0  0  0  0  0  0  0  0  0  0
    0.4445   -3.3377    2.2804 C   0  0  0  0  0  0  0  0  0  0  0  0
    0.6227   -2.4276    1.7075 C   0  0  0  0  0  0  0  0  0  0  0  0
  2  3  1  0
  3  4  1  0
  8  9  1  0
  4 10  1  0
 10 11  1  0
 10 12  2  0
  5 13  1  0
  7 14  1  0
 14 15  2  0
 14 16  1  0
 13 17  1  6
 13 18  1  0
 18 19  1  0
 19 20  2  0
  1  2  2  0
  2  8  1  0
  7  8  2  0
  6  7  1  0
  5  6  2  0
  1  5  1  0
M  END

$$$$
No_1020-/export/home/yangzhenyu/potential_scad_32_flow//YTHDC2/2024-12-06-03-22-00/
     RDKit          3D

 17 18  0  0  1  0  0  0  0  0999 V2000
    1.1787   -8.0297    3.5154 C   0  0  0  0  0  0  0  0  0  0  0  0
    1.0491   -6.8434    2.9820 C   0  0  0  0  0  0  0  0  0  0  0  0
    0.0950   -8.8404    3.2292 C   0  0  0  0  0  0  0  0  0  0  0  0
   -0.9173   -8.4596    2.5152 C   0  0  0  0  0  0  0  0  0  0  0  0
   -1.0331   -7.2162    2.0653 C   0  0  0  0  0  0  0  0  0  0  0  0
   -0.0105   -6.3168    2.3081 C   0  0  0  0  0  0  0  0  0  0  0  0
    0.1150   -4.9910    1.8495 C   0  0  2  0  0  0  0  0  0  0  0  0
   -0.5774   -4.1593    2.0596 N   0  0  0  0  0  0  0  0  0  0  0  0
    0.2075  -10.4620    3.7828 Br  0  0  0  0  0  0  0  0  0  0  0  0
   -0.5831   -2.8989    1.5496 C   0  0  0  0  0  0  0  0  0  0  0  0
    0.3872   -2.8420    0.6262 C   0  0  1  0  0  0  0  0  0  0  0  0
    0.9740   -4.2294    0.5550 C   0  0  0  0  0  0  0  0  0  0  0  0
    0.8195   -1.9491   -0.2735 C   0  0  0  0  0  0  0  0  0  0  0  0
   -0.3174   -1.3189   -0.8633 C   0  0  0  0  0  0  0  0  0  0  0  0
   -0.5455   -0.0742   -0.8552 C   0  0  0  0  0  0  0  0  0  0  0  0
   -1.4689    0.7093   -1.5378 C   0  0  0  0  0  0  0  0  0  0  0  0
   -2.1037   -0.0458   -2.5349 C   0  0  0  0  0  0  0  0  0  0  0  0
  7  6  1  6
  7  8  1  0
  3  9  1  0
  8 10  2  0
 10 11  1  0
  7 12  1  0
 11 12  1  0
 11 13  1  6
 13 14  1  0
 14 15  1  0
 15 16  2  3
 16 17  1  0
  1  2  2  0
  2  6  1  0
  5  6  2  0
  4  5  1  0
  3  4  2  0
  1  3  1  0
M  END

$$$$
No_1021-/export/home/yangzhenyu/potential_scad_32_flow//YTHDC2/2024-12-06-03-22-00/
     RDKit          3D

 17 17  0  0  1  0  0  0  0  0999 V2000
    1.1787   -8.0297    3.5154 C   0  0  0  0  0  0  0  0  0  0  0  0
    1.1048   -9.2215    3.2892 C   0  0  0  0  0  0  0  0  0  0  0  0
    1.2339   -9.7611    2.0189 C   0  0  0  0  0  0  0  0  0  0  0  0
    1.3583   -9.0036    0.9764 C   0  0  0  0  0  0  0  0  0  0  0  0
    1.5996   -7.6362    1.1311 C   0  0  0  0  0  0  0  0  0  0  0  0
    1.4830   -7.0928    2.3626 C   0  0  0  0  0  0  0  0  0  0  0  0
    1.1008  -11.2372    1.8542 C   0  0  1  0  0  0  0  0  0  0  0  0
    0.4812  -11.6084    0.6459 C   0  0  0  0  0  0  0  0  0  0  0  0
   -0.3691  -10.9312    0.0124 C   0  0  0  0  0  0  0  0  0  0  0  0
   -1.0102  -11.3797   -1.1447 C   0  0  0  0  0  0  0  0  0  0  0  0
   -1.1621  -12.7045   -1.3353 O   0  0  0  0  0  0  0  0  0  0  0  0
   -1.4552  -10.5267   -2.0819 N   0  0  0  0  0  0  0  0  0  0  0  0
    1.7221  -11.9891    2.7263 C   0  0  0  0  0  0  0  0  0  0  0  0
    1.8704  -11.8067    3.9576 C   0  0  0  0  0  0  0  0  0  0  0  0
    1.5452   -5.6841    2.6592 O   0  0  0  0  0  0  0  0  0  0  0  0
    1.6391  -13.4533    2.3082 C   0  0  0  0  0  0  0  0  0  0  0  0
    2.2601  -13.9223    1.3580 O   0  0  0  0  0  0  0  0  0  0  0  0
  3  7  1  0
  7  8  1  0
  8  9  2  3
  9 10  1  0
 10 11  2  0
 10 12  1  0
  7 13  1  6
 13 14  2  0
  6 15  1  0
 13 16  1  0
 16 17  2  0
  1  2  2  0
  2  3  1  0
  3  4  2  0
  4  5  1  0
  5  6  2  0
  1  6  1  0
M  END

$$$$
No_1022-/export/home/yangzhenyu/potential_scad_32_flow//YTHDC2/2024-12-06-03-22-00/
     RDKit          3D

 18 19  0  0  1  0  0  0  0  0999 V2000
    1.1787   -8.0297    3.5154 C   0  0  0  0  0  0  0  0  0  0  0  0
    1.1048   -9.2215    3.2892 C   0  0  0  0  0  0  0  0  0  0  0  0
    1.2339   -9.7611    2.0189 C   0  0  0  0  0  0  0  0  0  0  0  0
    1.3583   -9.0036    0.9764 C   0  0  0  0  0  0  0  0  0  0  0  0
    1.5996   -7.6362    1.1311 C   0  0  0  0  0  0  0  0  0  0  0  0
    1.4830   -7.0928    2.3626 C   0  0  0  0  0  0  0  0  0  0  0  0
    1.5395   -5.7300    2.6182 C   0  0  0  0  0  0  0  0  0  0  0  0
    1.1775  -11.2233    1.8407 C   0  0  2  0  0  0  0  0  0  0  0  0
    1.9057  -12.1147    2.3397 C   0  0  0  0  0  0  0  0  0  0  0  0
    1.2923  -13.3224    2.7485 C   0  0  0  0  0  0  0  0  0  0  0  0
    0.7433  -14.1681    1.8127 N   0  0  0  0  0  0  0  0  0  0  0  0
    0.3556  -13.6845    0.8133 C   0  0  0  0  0  0  0  0  0  0  0  0
    0.4535  -12.1125    0.6863 C   0  0  0  0  0  0  0  0  0  0  0  0
    0.5537  -15.6043    2.0883 C   0  0  0  0  0  0  0  0  0  0  0  0
    1.4050  -16.2503    2.8841 C   0  0  0  0  0  0  0  0  0  0  0  0
    1.6568  -17.5822    2.8687 O   0  0  0  0  0  0  0  0  0  0  0  0
   -0.1968  -14.1081   -0.2655 O   0  0  0  0  0  0  0  0  0  0  0  0
    1.2762   -4.8144    1.6905 O   0  0  0  0  0  0  0  0  0  0  0  0
  6  7  1  0
  8  3  1  6
  8  9  1  0
  9 10  1  0
 10 11  1  0
 11 12  1  0
  8 13  1  0
 12 13  1  0
 11 14  1  0
 14 15  1  0
 15 16  2  0
 12 17  2  0
  7 18  2  0
  1  2  2  0
  2  3  1  0
  3  4  2  0
  4  5  1  0
  5  6  2  0
  1  6  1  0
M  END

$$$$
No_1023-/export/home/yangzhenyu/potential_scad_32_flow//YTHDC2/2024-12-06-03-22-00/
     RDKit          3D

 17 19  0  0  0  0  0  0  0  0999 V2000
    1.1787   -8.0297    3.5154 C   0  0  0  0  0  0  0  0  0  0  0  0
    1.1048   -9.2215    3.2892 C   0  0  0  0  0  0  0  0  0  0  0  0
    1.3627  -10.1721    4.3044 C   0  0  0  0  0  0  0  0  0  0  0  0
    1.0682  -11.5187    4.0618 C   0  0  0  0  0  0  0  0  0  0  0  0
    0.6332  -11.9655    2.9682 C   0  0  0  0  0  0  0  0  0  0  0  0
    0.4776  -11.1308    1.9203 C   0  0  0  0  0  0  0  0  0  0  0  0
    0.7470   -9.8274    2.0368 C   0  0  0  0  0  0  0  0  0  0  0  0
    1.0387   -7.0301    2.5175 C   0  0  0  0  0  0  0  0  0  0  0  0
    0.9130   -7.5288    1.2013 C   0  0  0  0  0  0  0  0  0  0  0  0
    0.7893   -8.7979    0.9542 C   0  0  0  0  0  0  0  0  0  0  0  0
    0.5241   -9.2578   -0.2817 O   0  0  0  0  0  0  0  0  0  0  0  0
    0.4481  -13.3709    2.6894 C   0  0  0  0  0  0  0  0  0  0  0  0
    1.3172  -14.2958    3.0991 C   0  0  0  0  0  0  0  0  0  0  0  0
    1.4893  -15.5347    2.5224 N   0  0  0  0  0  0  0  0  0  0  0  0
    0.9137  -15.4629    1.4254 C   0  0  0  0  0  0  0  0  0  0  0  0
    0.2130  -14.5193    0.8287 N   0  0  0  0  0  0  0  0  0  0  0  0
    0.0291  -13.4082    1.4782 C   0  0  0  0  0  0  0  0  0  0  0  0
  1  2  1  0
  8  9  1  0
  7 10  1  0
  9 10  1  0
 10 11  2  0
  5 12  1  0
  1  8  1  0
 12 13  2  0
 13 14  1  0
 14 15  2  0
 15 16  1  0
 16 17  2  0
 12 17  1  0
  2  3  2  0
  3  4  1  0
  4  5  2  0
  5  6  1  0
  6  7  2  0
  2  7  1  0
M  END

$$$$
No_1024-/export/home/yangzhenyu/potential_scad_32_flow//YTHDC2/2024-12-06-03-22-00/
     RDKit          3D

 19 20  0  0  1  0  0  0  0  0999 V2000
    1.1787   -8.0297    3.5154 O   0  0  0  0  0  0  0  0  0  0  0  0
    0.9969   -8.9689    3.0048 C   0  0  0  0  0  0  0  0  0  0  0  0
    1.4315  -10.1310    3.5523 C   0  0  0  0  0  0  0  0  0  0  0  0
    1.3751  -11.3715    2.9098 C   0  0  1  0  0  0  0  0  0  0  0  0
    0.9638  -11.4041    1.6414 C   0  0  0  0  0  0  0  0  0  0  0  0
    0.5025  -10.3377    0.9928 C   0  0  0  0  0  0  0  0  0  0  0  0
    0.5777   -9.1031    1.6704 C   0  0  0  0  0  0  0  0  0  0  0  0
    0.1835   -7.8549    1.0870 C   0  0  0  0  0  0  0  0  0  0  0  0
   -1.0081   -7.8125    0.6157 C   0  0  0  0  0  0  0  0  0  0  0  0
   -1.4321   -6.5848   -0.1677 C   0  0  0  0  0  0  0  0  0  0  0  0
   -2.0110   -6.6837   -1.3530 C   0  0  0  0  0  0  0  0  0  0  0  0
   -2.1726   -5.5059   -2.1081 C   0  0  0  0  0  0  0  0  0  0  0  0
   -2.4132   -5.5130   -3.4375 C   0  0  0  0  0  0  0  0  0  0  0  0
   -2.6557   -6.8058   -4.0119 C   0  0  0  0  0  0  0  0  0  0  0  0
   -2.4833   -7.9551   -3.4103 C   0  0  0  0  0  0  0  0  0  0  0  0
   -2.1565   -7.9053   -2.0182 C   0  0  0  0  0  0  0  0  0  0  0  0
    1.8991  -12.5786    3.4784 C   0  0  0  0  0  0  0  0  0  0  0  0
    1.7945  -13.7880    2.5678 C   0  0  0  0  0  0  0  0  0  0  0  0
    0.7655  -14.6801    2.8242 C   0  0  0  0  0  0  0  0  0  0  0  0
  1  2  2  0
  2  3  1  0
  4  5  1  0
  2  7  1  0
  6  7  1  0
  7  8  1  0
  8  9  2  3
  9 10  1  0
  4 17  1  6
 17 18  1  0
 18 19  1  0
 10 11  1  0
  3  4  1  0
  5  6  1  0
 11 12  2  0
 12 13  1  0
 13 14  2  0
 14 15  1  0
 15 16  2  0
 11 16  1  0
M  END

$$$$
No_1025-/export/home/yangzhenyu/potential_scad_32_flow//YTHDC2/2024-12-06-03-22-00/
     RDKit          3D

 15 16  0  0  1  0  0  0  0  0999 V2000
    1.1787   -8.0297    3.5154 C   0  0  0  0  0  0  0  0  0  0  0  0
    1.1048   -9.2215    3.2892 C   0  0  0  0  0  0  0  0  0  0  0  0
    1.3627  -10.1721    4.3044 C   0  0  0  0  0  0  0  0  0  0  0  0
    1.7354  -11.4730    3.9023 C   0  0  0  0  0  0  0  0  0  0  0  0
    1.8080  -11.8127    2.7216 C   0  0  0  0  0  0  0  0  0  0  0  0
    1.5854  -11.0021    1.7249 C   0  0  0  0  0  0  0  0  0  0  0  0
    1.3573   -9.7389    1.9287 C   0  0  0  0  0  0  0  0  0  0  0  0
    1.2865   -8.8078    0.9161 C   0  0  0  0  0  0  0  0  0  0  0  0
    1.6845   -9.1638   -0.2896 O   0  0  0  0  0  0  0  0  0  0  0  0
    1.1989   -7.4617    1.0956 N   0  0  0  0  0  0  0  0  0  0  0  0
    1.0953   -7.0087    2.3768 C   0  0  2  0  0  0  0  0  0  0  0  0
    0.9989   -5.6610    2.5702 C   0  0  0  0  0  0  0  0  0  0  0  0
    2.0438  -13.2242    2.3589 Cl  0  0  0  0  0  0  0  0  0  0  0  0
    1.7434   -5.0618    3.4401 O   0  0  0  0  0  0  0  0  0  0  0  0
    0.2945   -4.9473    1.7758 O   0  0  0  0  0  0  0  0  0  0  0  0
  1  2  1  0
  7  8  1  0
  8  9  2  0
  8 10  1  0
  1 11  1  0
 10 11  1  0
 11 12  1  1
  5 13  1  0
 12 14  1  0
 12 15  2  0
  2  3  2  0
  3  4  1  0
  4  5  2  0
  5  6  1  0
  6  7  2  0
  2  7  1  0
M  END

$$$$
No_1026-/export/home/yangzhenyu/potential_scad_32_flow//YTHDC2/2024-12-06-03-22-00/
     RDKit          3D

 18 19  0  0  1  0  0  0  0  0999 V2000
    1.1787   -8.0297    3.5154 C   0  0  0  0  0  0  0  0  0  0  0  0
    1.0491   -6.8434    2.9820 C   0  0  0  0  0  0  0  0  0  0  0  0
    0.0950   -8.8404    3.2292 C   0  0  0  0  0  0  0  0  0  0  0  0
   -0.9173   -8.4596    2.5152 C   0  0  0  0  0  0  0  0  0  0  0  0
   -1.0331   -7.2162    2.0653 C   0  0  0  0  0  0  0  0  0  0  0  0
   -0.0105   -6.3168    2.3081 C   0  0  0  0  0  0  0  0  0  0  0  0
    0.1150   -4.9910    1.8495 C   0  0  2  0  0  0  0  0  0  0  0  0
   -0.1376   -4.7952    0.5550 I   0  0  0  0  0  0  0  0  0  0  0  0
    0.1749  -10.2846    3.6724 C   0  0  0  0  0  0  0  0  0  0  0  0
    1.2145  -10.8633    4.1186 C   0  0  0  0  0  0  0  0  0  0  0  0
    1.1223  -12.2992    4.3760 C   0  0  0  0  0  0  0  0  0  0  0  0
    0.2701  -12.9866    3.5034 C   0  0  0  0  0  0  0  0  0  0  0  0
   -0.7124  -12.3954    2.9798 C   0  0  0  0  0  0  0  0  0  0  0  0
   -0.8379  -11.0239    3.0008 C   0  0  0  0  0  0  0  0  0  0  0  0
    0.4514  -14.3941    3.6538 Cl  0  0  0  0  0  0  0  0  0  0  0  0
    0.9332   -4.0786    2.7289 C   0  0  0  0  0  0  0  0  0  0  0  0
    2.2417   -3.9710    2.7456 N   0  0  0  0  0  0  0  0  0  0  0  0
    0.2015   -3.2264    3.5825 C   0  0  0  0  0  0  0  0  0  0  0  0
  6  7  1  0
  7  8  1  6
  3  9  1  0
 12 15  1  0
  7 16  1  0
 16 17  1  0
 16 18  1  0
  1  2  2  0
  2  6  1  0
  5  6  2  0
  4  5  1  0
  3  4  2  0
  1  3  1  0
  9 10  2  0
 10 11  1  0
 11 12  2  0
 12 13  1  0
 13 14  2  0
  9 14  1  0
M  END

$$$$
No_1027-/export/home/yangzhenyu/potential_scad_32_flow//YTHDC2/2024-12-06-03-22-00/
     RDKit          3D

 19 19  0  0  1  0  0  0  0  0999 V2000
    1.1787   -8.0297    3.5154 C   0  0  0  0  0  0  0  0  0  0  0  0
    1.0491   -6.8434    2.9820 C   0  0  0  0  0  0  0  0  0  0  0  0
    0.9905   -9.0774    2.6527 C   0  0  0  0  0  0  0  0  0  0  0  0
    1.1655  -10.4663    3.1286 C   0  0  2  0  0  0  0  0  0  0  0  0
    1.7409  -10.6480    4.4599 C   0  0  0  0  0  0  0  0  0  0  0  0
    0.4783   -6.4688    1.7590 C   0  0  0  0  0  0  0  0  0  0  0  0
    0.2119   -7.5787    0.9640 C   0  0  0  0  0  0  0  0  0  0  0  0
    0.4248   -8.8744    1.3136 C   0  0  0  0  0  0  0  0  0  0  0  0
    1.0420  -11.5352    2.2989 C   0  0  2  0  0  0  0  0  0  0  0  0
    1.9456  -11.7272    1.3640 C   0  0  0  0  0  0  0  0  0  0  0  0
    0.2982   -5.2147    1.2578 Cl  0  0  0  0  0  0  0  0  0  0  0  0
   -0.0783  -12.3235    2.4096 C   0  0  0  0  0  0  0  0  0  0  0  0
   -0.0009  -13.5656    1.9250 O   0  0  0  0  0  0  0  0  0  0  0  0
   -1.1336  -12.0079    3.1563 C   0  0  0  0  0  0  0  0  0  0  0  0
    1.6775  -11.9688    0.1414 O   0  0  0  0  0  0  0  0  0  0  0  0
    3.2047  -10.5521    4.5258 C   0  0  0  0  0  0  0  0  0  0  0  0
    3.6474  -11.2318    5.7612 O   0  0  0  0  0  0  0  0  0  0  0  0
   -2.4078  -12.3176    2.7184 O   0  0  0  0  0  0  0  0  0  0  0  0
   -1.2663  -11.4064    4.3995 O   0  0  0  0  0  0  0  0  0  0  0  0
  3  4  1  0
  4  5  1  6
  4  9  1  0
  9 10  1  6
  6 11  1  0
  9 12  1  0
 12 13  2  0
 12 14  1  0
 10 15  1  0
  5 16  1  0
 16 17  1  0
 14 18  2  0
 14 19  1  0
  1  2  2  0
  2  6  1  0
  6  7  2  0
  7  8  1  0
  3  8  2  0
  1  3  1  0
M  END

$$$$
No_1028-/export/home/yangzhenyu/potential_scad_32_flow//YTHDC2/2024-12-06-03-22-00/
     RDKit          3D

 19 20  0  0  0  0  0  0  0  0999 V2000
    1.1787   -8.0297    3.5154 C   0  0  0  0  0  0  0  0  0  0  0  0
    1.0491   -6.8434    2.9820 C   0  0  0  0  0  0  0  0  0  0  0  0
    0.0950   -8.8404    3.2292 C   0  0  0  0  0  0  0  0  0  0  0  0
   -0.9173   -8.4596    2.5152 C   0  0  0  0  0  0  0  0  0  0  0  0
   -1.0331   -7.2162    2.0653 C   0  0  0  0  0  0  0  0  0  0  0  0
   -0.0105   -6.3168    2.3081 C   0  0  0  0  0  0  0  0  0  0  0  0
    0.1465  -10.2446    3.6981 C   0  0  0  0  0  0  0  0  0  0  0  0
   -1.0337  -10.8619    3.9439 C   0  0  0  0  0  0  0  0  0  0  0  0
   -2.1702  -10.4673    3.2991 C   0  0  0  0  0  0  0  0  0  0  0  0
   -2.1358   -9.2084    2.5791 C   0  0  0  0  0  0  0  0  0  0  0  0
   -0.0074   -4.7440    1.7754 C   0  0  0  0  0  0  0  0  0  0  0  0
   -0.8759   -4.0594    2.3036 C   0  0  0  0  0  0  0  0  0  0  0  0
   -2.1050   -4.2234    2.3286 C   0  0  0  0  0  0  0  0  0  0  0  0
   -2.8796   -3.7148    2.8250 C   0  0  0  0  0  0  0  0  0  0  0  0
   -0.4415   -2.6659    2.4305 Cl  0  0  0  0  0  0  0  0  0  0  0  0
    1.5167  -10.7804    4.6175 C   0  0  0  0  0  0  0  0  0  0  0  0
    2.1951  -11.5657    3.7287 C   0  0  0  0  0  0  0  0  0  0  0  0
    1.4366  -12.4402    2.9359 C   0  0  0  0  0  0  0  0  0  0  0  0
    1.3547  -13.8552    3.5093 C   0  0  0  0  0  0  0  0  0  0  0  0
  6 11  1  0
 11 12  1  0
 12 13  2  3
 13 14  1  0
 12 15  1  0
  7 16  1  0
 16 17  1  0
 17 18  1  0
 18 19  1  0
  4 10  2  0
  9 10  1  0
  8  9  2  0
  7  8  1  0
  3  7  2  0
  1  2  2  0
  2  6  1  0
  5  6  2  0
  4  5  1  0
  3  4  1  0
  1  3  1  0
M  END

$$$$
No_1029-/export/home/yangzhenyu/potential_scad_32_flow//YTHDC2/2024-12-06-03-22-00/
     RDKit          3D

 18 19  0  0  1  0  0  0  0  0999 V2000
    1.1787   -8.0297    3.5154 C   0  0  0  0  0  0  0  0  0  0  0  0
    1.1048   -9.2215    3.2892 C   0  0  0  0  0  0  0  0  0  0  0  0
    1.2339   -9.7611    2.0189 C   0  0  0  0  0  0  0  0  0  0  0  0
    1.4306   -8.9466    1.1170 C   0  0  0  0  0  0  0  0  0  0  0  0
    1.6532   -7.5949    1.1786 C   0  0  0  0  0  0  0  0  0  0  0  0
    1.4973   -7.0739    2.4258 C   0  0  0  0  0  0  0  0  0  0  0  0
    1.5178   -5.6803    2.7303 C   0  0  0  0  0  0  0  0  0  0  0  0
    1.2507  -11.3384    1.8133 N   0  0  0  0  0  0  0  0  0  0  0  0
    1.8442  -12.0946    2.4926 C   0  0  0  0  0  0  0  0  0  0  0  0
    1.6226  -13.4531    1.9669 C   0  0  1  0  0  0  0  0  0  0  0  0
    2.1101  -14.4727    2.7602 C   0  0  0  0  0  0  0  0  0  0  0  0
    2.0849  -15.8735    2.2248 C   0  0  0  0  0  0  0  0  0  0  0  0
    1.3316  -15.9192    1.1336 C   0  0  0  0  0  0  0  0  0  0  0  0
    0.8617  -14.3362    0.9589 C   0  0  2  0  0  0  0  0  0  0  0  0
    1.3148   -4.7657    1.7450 C   0  0  0  0  0  0  0  0  0  0  0  0
    1.2558   -3.3405    2.0687 C   0  0  0  0  0  0  0  0  0  0  0  0
    0.5024  -13.7954   -0.1311 C   0  0  0  0  0  0  0  0  0  0  0  0
   -0.1204  -12.6125   -0.2474 O   0  0  0  0  0  0  0  0  0  0  0  0
  6  7  1  0
  3  8  1  0
  8  9  1  0
 10  9  1  1
 10 11  1  0
 11 12  1  0
 12 13  2  0
 10 14  1  0
 13 14  1  0
  7 15  2  3
 15 16  1  0
 14 17  1  6
 17 18  1  0
  1  2  2  0
  2  3  1  0
  3  4  2  0
  4  5  1  0
  5  6  2  0
  1  6  1  0
M  END

$$$$
No_1030-/export/home/yangzhenyu/potential_scad_32_flow//YTHDC2/2024-12-06-03-22-00/
     RDKit          3D

 20 21  0  0  1  0  0  0  0  0999 V2000
    1.1787   -8.0297    3.5154 C   0  0  0  0  0  0  0  0  0  0  0  0
    1.0491   -6.8434    2.9820 C   0  0  0  0  0  0  0  0  0  0  0  0
    0.9905   -9.0774    2.6527 C   0  0  0  0  0  0  0  0  0  0  0  0
    0.7897   -8.9519    1.3691 C   0  0  0  0  0  0  0  0  0  0  0  0
    0.7018   -7.7198    0.7892 C   0  0  0  0  0  0  0  0  0  0  0  0
    0.8918   -6.5957    1.6117 C   0  0  0  0  0  0  0  0  0  0  0  0
    1.0711  -10.4814    3.2282 C   0  0  1  0  0  0  0  0  0  0  0  0
    2.1432  -11.0138    3.5962 C   0  0  0  0  0  0  0  0  0  0  0  0
   -0.0912  -10.6996    4.1636 C   0  0  0  0  0  0  0  0  0  0  0  0
    0.8746   -5.2660    1.1123 N   0  0  0  0  0  0  0  0  0  0  0  0
    2.1096  -12.3859    3.8905 C   0  0  0  0  0  0  0  0  0  0  0  0
    2.1072  -13.2282    2.5878 C   0  0  0  0  0  0  0  0  0  0  0  0
    1.9671  -14.6089    2.6919 C   0  0  0  0  0  0  0  0  0  0  0  0
    1.0895  -15.1491    3.4740 C   0  0  0  0  0  0  0  0  0  0  0  0
    1.0278  -16.6006    3.4887 C   0  0  0  0  0  0  0  0  0  0  0  0
    1.9571  -17.2846    2.7825 C   0  0  0  0  0  0  0  0  0  0  0  0
    3.0166  -16.7036    2.0659 C   0  0  0  0  0  0  0  0  0  0  0  0
    3.0452  -15.3204    2.0723 C   0  0  0  0  0  0  0  0  0  0  0  0
    0.3517   -4.2050    1.7394 C   0  0  0  0  0  0  0  0  0  0  0  0
    0.2166   -3.2357    1.1866 C   0  0  0  0  0  0  0  0  0  0  0  0
  3  7  1  0
  7  8  1  0
  7  9  1  1
  6 10  1  0
  8 11  1  0
 11 12  1  0
 12 13  1  0
 10 19  1  0
 19 20  1  0
 13 14  2  0
 14 15  1  0
 15 16  2  0
 16 17  1  0
 17 18  2  0
 13 18  1  0
  1  2  2  0
  2  6  1  0
  5  6  2  0
  4  5  1  0
  3  4  2  0
  1  3  1  0
M  END

$$$$
No_1031-/export/home/yangzhenyu/potential_scad_32_flow//YTHDC2/2024-12-06-03-22-00/
     RDKit          3D

 19 19  0  0  1  0  0  0  0  0999 V2000
    1.1787   -8.0297    3.5154 C   0  0  0  0  0  0  0  0  0  0  0  0
    1.1048   -9.2215    3.2892 C   0  0  0  0  0  0  0  0  0  0  0  0
    1.2339   -9.7611    2.0189 C   0  0  0  0  0  0  0  0  0  0  0  0
    1.3583   -9.0036    0.9764 C   0  0  0  0  0  0  0  0  0  0  0  0
    1.5996   -7.6362    1.1311 C   0  0  0  0  0  0  0  0  0  0  0  0
    1.4830   -7.0928    2.3626 C   0  0  0  0  0  0  0  0  0  0  0  0
    1.4898   -5.7274    2.6199 C   0  0  1  0  0  0  0  0  0  0  0  0
    1.1681  -11.2222    1.8390 C   0  0  0  0  0  0  0  0  0  0  0  0
    0.7145  -11.5870    0.5424 C   0  0  0  0  0  0  0  0  0  0  0  0
   -0.5241  -12.2512    0.6171 N   0  0  0  0  0  0  0  0  0  0  0  0
   -1.4510  -11.8283   -0.0180 C   0  0  0  0  0  0  0  0  0  0  0  0
   -2.6388  -12.4903   -0.1375 O   0  0  0  0  0  0  0  0  0  0  0  0
   -1.3999  -10.6649   -1.0448 C   0  0  0  0  0  0  0  0  0  0  0  0
    1.6930   -5.1638    3.8636 C   0  0  0  0  0  0  0  0  0  0  0  0
    1.3498   -4.8571    1.5390 C   0  0  0  0  0  0  0  0  0  0  0  0
   -1.5499   -9.3995   -0.6056 C   0  0  0  0  0  0  0  0  0  0  0  0
   -1.2709   -8.3449   -1.4849 O   0  0  0  0  0  0  0  0  0  0  0  0
   -2.0156   -8.8380    0.4824 O   0  0  0  0  0  0  0  0  0  0  0  0
    0.3867   -3.8371    1.6689 O   0  0  0  0  0  0  0  0  0  0  0  0
  6  7  1  0
  3  8  1  0
  8  9  1  0
  9 10  1  0
 10 11  1  0
 11 12  2  0
 11 13  1  0
  7 14  1  6
  7 15  1  0
 13 16  1  0
 16 17  1  0
 16 18  2  0
 15 19  1  0
  1  2  2  0
  2  3  1  0
  3  4  2  0
  4  5  1  0
  5  6  2  0
  1  6  1  0
M  END

$$$$
No_1032-/export/home/yangzhenyu/potential_scad_32_flow//YTHDC2/2024-12-06-03-22-00/
     RDKit          3D

 20 20  0  0  1  0  0  0  0  0999 V2000
    1.1787   -8.0297    3.5154 C   0  0  0  0  0  0  0  0  0  0  0  0
    1.1048   -9.2215    3.2892 C   0  0  0  0  0  0  0  0  0  0  0  0
    1.2339   -9.7611    2.0189 C   0  0  0  0  0  0  0  0  0  0  0  0
    1.3583   -9.0036    0.9764 C   0  0  0  0  0  0  0  0  0  0  0  0
    1.5996   -7.6362    1.1311 C   0  0  0  0  0  0  0  0  0  0  0  0
    1.4830   -7.0928    2.3626 C   0  0  0  0  0  0  0  0  0  0  0  0
    1.4898   -5.7274    2.6199 C   0  0  0  0  0  0  0  0  0  0  0  0
    1.1681  -11.2222    1.8390 C   0  0  0  0  0  0  0  0  0  0  0  0
    0.5014  -11.9760    2.2068 C   0  0  0  0  0  0  0  0  0  0  0  0
   -0.6069  -11.4784    3.2188 C   0  0  0  0  0  0  0  0  0  0  0  0
    0.3337  -13.3591    1.8506 C   0  0  2  0  0  0  0  0  0  0  0  0
    1.4599  -14.2040    2.3016 C   0  0  0  0  0  0  0  0  0  0  0  0
    1.4604  -14.7713    3.2897 C   0  0  0  0  0  0  0  0  0  0  0  0
    1.6887  -16.1911    3.3340 C   0  0  0  0  0  0  0  0  0  0  0  0
    0.8799  -17.0840    4.0849 O   0  0  0  0  0  0  0  0  0  0  0  0
    2.4287  -16.7738    2.4259 O   0  0  0  0  0  0  0  0  0  0  0  0
    0.6557   -4.9816    2.7220 O   0  0  0  0  0  0  0  0  0  0  0  0
   -0.6103  -13.8522    1.1655 C   0  0  0  0  0  0  0  0  0  0  0  0
   -0.8180  -15.1156    0.8069 N   0  0  0  0  0  0  0  0  0  0  0  0
   -1.7495  -13.0631    0.9792 O   0  0  0  0  0  0  0  0  0  0  0  0
  6  7  1  0
  3  8  1  0
  8  9  2  3
  9 10  1  0
  9 11  1  0
 11 12  1  6
 12 13  1  0
 13 14  1  0
 14 15  1  0
 14 16  2  0
  7 17  2  0
 11 18  1  0
 18 19  1  0
 18 20  2  0
  1  2  2  0
  2  3  1  0
  3  4  2  0
  4  5  1  0
  5  6  2  0
  1  6  1  0
M  END

$$$$
No_1033-/export/home/yangzhenyu/potential_scad_32_flow//YTHDC2/2024-12-06-03-22-00/
     RDKit          3D

 18 19  0  0  1  0  0  0  0  0999 V2000
    1.1787   -8.0297    3.5154 C   0  0  0  0  0  0  0  0  0  0  0  0
    1.1048   -9.2215    3.2892 C   0  0  0  0  0  0  0  0  0  0  0  0
    1.4683  -10.2314    4.1915 C   0  0  0  0  0  0  0  0  0  0  0  0
    0.8445   -6.9865    2.5175 C   0  0  0  0  0  0  0  0  0  0  0  0
    0.3587   -7.3973    1.3953 C   0  0  0  0  0  0  0  0  0  0  0  0
    0.1901   -8.6971    1.0711 C   0  0  0  0  0  0  0  0  0  0  0  0
    0.5759   -9.6647    1.9442 C   0  0  0  0  0  0  0  0  0  0  0  0
    0.6934  -11.4709    4.1321 C   0  0  0  0  0  0  0  0  0  0  0  0
    0.3760  -11.9548    2.8946 C   0  0  2  0  0  0  0  0  0  0  0  0
   -0.0435  -10.8962    1.9144 C   0  0  0  0  0  0  0  0  0  0  0  0
   -0.1791   -9.0435   -0.1410 C   0  0  0  0  0  0  0  0  0  0  0  0
   -0.6688   -8.6489   -0.9793 Cl  0  0  0  0  0  0  0  0  0  0  0  0
    0.3103  -10.5074   -0.3986 O   0  0  0  0  0  0  0  0  0  0  0  0
    0.3542  -13.2594    2.8463 C   0  0  0  0  0  0  0  0  0  0  0  0
   -0.5065  -13.9884    2.2935 C   0  0  0  0  0  0  0  0  0  0  0  0
    1.6499  -14.0869    3.3453 C   0  0  0  0  0  0  0  0  0  0  0  0
    1.6103  -15.4220    3.1700 C   0  0  0  0  0  0  0  0  0  0  0  0
    0.6606  -16.1062    2.6178 C   0  0  0  0  0  0  0  0  0  0  0  0
  2  3  1  0
  3  8  1  0
  8  9  1  0
  7 10  1  0
  9 10  1  0
  6 11  1  0
 11 12  1  0
 11 13  2  0
  9 14  1  1
 14 15  2  0
 14 16  1  0
 16 17  2  3
 17 18  1  0
  1  2  2  0
  2  7  1  0
  6  7  2  0
  5  6  1  0
  4  5  2  0
  1  4  1  0
M  END

$$$$
No_1034-/export/home/yangzhenyu/potential_scad_32_flow//YTHDC2/2024-12-06-03-22-00/
     RDKit          3D

 18 18  0  0  1  0  0  0  0  0999 V2000
    1.1787   -8.0297    3.5154 C   0  0  0  0  0  0  0  0  0  0  0  0
    1.1048   -9.2215    3.2892 C   0  0  0  0  0  0  0  0  0  0  0  0
    1.2339   -9.7611    2.0189 C   0  0  0  0  0  0  0  0  0  0  0  0
    1.3583   -9.0036    0.9764 C   0  0  0  0  0  0  0  0  0  0  0  0
    1.5996   -7.6362    1.1311 C   0  0  0  0  0  0  0  0  0  0  0  0
    1.4830   -7.0928    2.3626 C   0  0  0  0  0  0  0  0  0  0  0  0
    1.5395   -5.7300    2.6182 C   0  0  0  0  0  0  0  0  0  0  0  0
    1.1969  -11.3760    1.8433 C   0  0  0  0  0  0  0  0  0  0  0  0
    0.2951  -11.9827    2.0623 C   0  0  0  0  0  0  0  0  0  0  0  0
    0.3556  -13.1833    2.5684 C   0  0  0  0  0  0  0  0  0  0  0  0
    0.9198  -14.1988    1.8042 C   0  0  2  0  0  0  0  0  0  0  0  0
    1.7746  -14.7043    1.9841 C   0  0  0  0  0  0  0  0  0  0  0  0
    2.1066  -15.7705    2.4717 O   0  0  0  0  0  0  0  0  0  0  0  0
    0.2785  -14.4943    0.5762 C   0  0  0  0  0  0  0  0  0  0  0  0
    1.2937   -4.8112    1.6815 P   0  0  0  0  0  0  0  0  0  0  0  0
    2.0825   -3.6029    1.6669 O   0  0  0  0  0  0  0  0  0  0  0  0
   -0.1968   -4.0298    1.8803 O   0  0  0  0  0  0  0  0  0  0  0  0
    0.7690   -5.1565    0.3237 O   0  0  0  0  0  0  0  0  0  0  0  0
  6  7  1  0
  3  8  1  0
  8  9  1  0
  9 10  1  0
 10 11  1  0
 11 12  1  0
 12 13  1  0
 11 14  1  6
  7 15  1  0
 15 16  1  0
 15 17  1  0
 15 18  2  0
  1  2  2  0
  2  3  1  0
  3  4  2  0
  4  5  1  0
  5  6  2  0
  1  6  1  0
M  END

$$$$
No_1035-/export/home/yangzhenyu/potential_scad_32_flow//YTHDC2/2024-12-06-03-22-00/
     RDKit          3D

 19 20  0  0  1  0  0  0  0  0999 V2000
    1.1787   -8.0297    3.5154 C   0  0  0  0  0  0  0  0  0  0  0  0
    1.0491   -6.8434    2.9820 C   0  0  0  0  0  0  0  0  0  0  0  0
    0.0950   -8.8404    3.2292 C   0  0  0  0  0  0  0  0  0  0  0  0
   -0.9173   -8.4596    2.5152 C   0  0  0  0  0  0  0  0  0  0  0  0
   -1.0331   -7.2162    2.0653 C   0  0  0  0  0  0  0  0  0  0  0  0
   -0.0105   -6.3168    2.3081 C   0  0  0  0  0  0  0  0  0  0  0  0
    0.0485   -4.9783    1.8782 C   0  0  0  0  0  0  0  0  0  0  0  0
   -0.4744   -4.1559    2.2381 C   0  0  0  0  0  0  0  0  0  0  0  0
   -0.3956   -2.6830    1.7790 C   0  0  0  0  0  0  0  0  0  0  0  0
    0.2012  -10.4491    3.7547 S   0  0  0  0  0  0  0  0  0  0  0  0
    0.4117  -11.4219    2.5495 C   0  0  2  0  0  0  0  0  0  0  0  0
    0.6294  -12.7397    2.8806 C   0  0  0  0  0  0  0  0  0  0  0  0
   -0.1938  -13.6609    2.4204 C   0  0  0  0  0  0  0  0  0  0  0  0
   -0.0220  -15.1083    2.8638 C   0  0  0  0  0  0  0  0  0  0  0  0
    1.1615  -15.4167    3.5720 C   0  0  0  0  0  0  0  0  0  0  0  0
    2.1672  -14.4303    3.7193 C   0  0  0  0  0  0  0  0  0  0  0  0
    1.9859  -13.1559    3.3118 C   0  0  0  0  0  0  0  0  0  0  0  0
   -0.7349   -1.6932    2.1714 C   0  0  0  0  0  0  0  0  0  0  0  0
    0.4956  -10.8527    1.3022 C   0  0  0  0  0  0  0  0  0  0  0  0
  6  7  1  0
  7  8  2  3
  8  9  1  0
  3 10  1  0
 10 11  1  0
 11 12  1  0
  9 18  1  0
 11 19  1  1
 12 13  2  0
 13 14  1  0
 14 15  2  0
 15 16  1  0
 16 17  2  0
 12 17  1  0
  1  2  2  0
  2  6  1  0
  5  6  2  0
  4  5  1  0
  3  4  2  0
  1  3  1  0
M  END

$$$$
No_1036-/export/home/yangzhenyu/potential_scad_32_flow//YTHDC2/2024-12-06-03-22-00/
     RDKit          3D

 18 19  0  0  0  0  0  0  0  0999 V2000
    1.1787   -8.0297    3.5154 C   0  0  0  0  0  0  0  0  0  0  0  0
    1.1048   -9.2215    3.2892 C   0  0  0  0  0  0  0  0  0  0  0  0
    1.3627  -10.1721    4.3044 C   0  0  0  0  0  0  0  0  0  0  0  0
    1.7354  -11.4730    3.9023 C   0  0  0  0  0  0  0  0  0  0  0  0
    1.8080  -11.8127    2.7216 C   0  0  0  0  0  0  0  0  0  0  0  0
    1.5854  -11.0021    1.7249 C   0  0  0  0  0  0  0  0  0  0  0  0
    1.3573   -9.7389    1.9287 C   0  0  0  0  0  0  0  0  0  0  0  0
    1.2865   -8.8078    0.9161 C   0  0  0  0  0  0  0  0  0  0  0  0
    1.6845   -9.1638   -0.2896 N   0  0  0  0  0  0  0  0  0  0  0  0
    1.2131   -7.4424    1.1219 N   0  0  0  0  0  0  0  0  0  0  0  0
    1.0987   -7.0150    2.3910 C   0  0  0  0  0  0  0  0  0  0  0  0
    0.9997   -5.6047    2.5751 O   0  0  0  0  0  0  0  0  0  0  0  0
    2.0778  -13.3861    2.3384 C   0  0  0  0  0  0  0  0  0  0  0  0
    2.0182  -14.2797    3.1108 C   0  0  0  0  0  0  0  0  0  0  0  0
    2.2416  -15.6313    2.5322 C   0  0  0  0  0  0  0  0  0  0  0  0
    1.4933  -16.6807    2.9767 C   0  0  0  0  0  0  0  0  0  0  0  0
    0.4121  -16.2904    3.8711 C   0  0  0  0  0  0  0  0  0  0  0  0
    1.8944  -10.1319   -0.4868 H   0  0  0  0  0  0  0  0  0  0  0  0
  1  2  1  0
  7  8  1  0
  8  9  2  0
  8 10  1  0
  1 11  1  0
 10 11  1  0
 11 12  2  0
  5 13  1  0
 13 14  1  0
 14 15  1  0
 15 16  1  0
 16 17  1  0
  2  3  2  0
  3  4  1  0
  4  5  2  0
  5  6  1  0
  6  7  2  0
  2  7  1  0
  9 18  1  0
M  END

$$$$
No_1037-/export/home/yangzhenyu/potential_scad_32_flow//YTHDC2/2024-12-06-03-22-00/
     RDKit          3D

 19 19  0  0  1  0  0  0  0  0999 V2000
    1.1787   -8.0297    3.5154 C   0  0  0  0  0  0  0  0  0  0  0  0
    1.1048   -9.2215    3.2892 C   0  0  0  0  0  0  0  0  0  0  0  0
    1.2339   -9.7611    2.0189 C   0  0  0  0  0  0  0  0  0  0  0  0
    1.3583   -9.0036    0.9764 C   0  0  0  0  0  0  0  0  0  0  0  0
    1.5996   -7.6362    1.1311 C   0  0  0  0  0  0  0  0  0  0  0  0
    1.4830   -7.0928    2.3626 C   0  0  0  0  0  0  0  0  0  0  0  0
    1.4898   -5.7274    2.6199 C   0  0  0  0  0  0  0  0  0  0  0  0
    1.1681  -11.2222    1.8390 C   0  0  0  0  0  0  0  0  0  0  0  0
    1.9047  -12.1147    2.3357 P   0  0  1  0  0  0  0  0  0  0  0  0
    2.6610  -11.7530    3.3505 O   0  0  0  0  0  0  0  0  0  0  0  0
    1.0269  -13.2872    2.7256 O   0  0  0  0  0  0  0  0  0  0  0  0
    2.9034  -12.8717    1.3266 O   0  0  0  0  0  0  0  0  0  0  0  0
    1.2449   -4.8670    1.6112 O   0  0  0  0  0  0  0  0  0  0  0  0
    1.7665   -5.1431    3.7926 O   0  0  0  0  0  0  0  0  0  0  0  0
    1.6428   -9.4539   -0.3321 C   0  0  0  0  0  0  0  0  0  0  0  0
    2.6895   -9.7603   -0.7987 O   0  0  0  0  0  0  0  0  0  0  0  0
    0.5895   -9.4655   -1.1087 N   0  0  0  0  0  0  0  0  0  0  0  0
    0.8305  -14.6385    2.2254 C   0  0  0  0  0  0  0  0  0  0  0  0
    1.5193  -15.6278    2.9898 C   0  0  0  0  0  0  0  0  0  0  0  0
  6  7  1  0
  3  8  1  0
  8  9  1  0
  9 10  2  0
  9 11  1  0
  9 12  1  6
  7 13  2  0
  7 14  1  0
  4 15  1  0
 15 16  2  0
 15 17  1  0
 11 18  1  0
 18 19  1  0
  1  2  2  0
  2  3  1  0
  3  4  2  0
  4  5  1  0
  5  6  2  0
  1  6  1  0
M  END

$$$$
No_1038-/export/home/yangzhenyu/potential_scad_32_flow//YTHDC2/2024-12-06-03-22-00/
     RDKit          3D

 18 19  0  0  1  0  0  0  0  0999 V2000
    1.1787   -8.0297    3.5154 C   0  0  0  0  0  0  0  0  0  0  0  0
    1.1048   -9.2215    3.2892 C   0  0  0  0  0  0  0  0  0  0  0  0
    1.0239   -9.7790    2.0239 C   0  0  2  0  0  0  0  0  0  0  0  0
    1.0632  -11.2393    1.8978 C   0  0  0  0  0  0  0  0  0  0  0  0
    1.2664   -7.1133    2.3309 C   0  0  1  0  0  0  0  0  0  0  0  0
    1.2080   -7.6832    1.0760 C   0  0  0  0  0  0  0  0  0  0  0  0
    1.1535   -8.9837    0.8897 C   0  0  0  0  0  0  0  0  0  0  0  0
    1.5434  -12.1192    2.7356 C   0  0  0  0  0  0  0  0  0  0  0  0
    1.4960  -13.4804    2.4774 C   0  0  0  0  0  0  0  0  0  0  0  0
    0.9784  -14.0090    1.4059 C   0  0  1  0  0  0  0  0  0  0  0  0
    0.5177  -13.1808    0.4753 C   0  0  0  0  0  0  0  0  0  0  0  0
    0.5445  -11.8006    0.6518 C   0  0  0  0  0  0  0  0  0  0  0  0
    1.1410   -9.4526   -0.3556 O   0  0  0  0  0  0  0  0  0  0  0  0
    1.3430   -5.4440    2.5590 Cl  0  0  0  0  0  0  0  0  0  0  0  0
    2.0577  -14.3641    3.4652 O   0  0  0  0  0  0  0  0  0  0  0  0
    0.0299  -13.5864   -0.7616 O   0  0  0  0  0  0  0  0  0  0  0  0
    1.0571  -15.3407    1.1485 O   0  0  0  0  0  0  0  0  0  0  0  0
    0.0153  -16.1258    1.4817 C   0  0  0  0  0  0  0  0  0  0  0  0
  2  3  1  0
  3  4  1  1
  1  5  1  0
  3  7  1  0
  6  7  1  0
  8  9  1  0
 10 11  1  0
  4 12  1  0
 11 12  1  0
  7 13  2  0
  5 14  1  1
  9 15  1  0
 11 16  2  0
 10 17  1  6
 17 18  1  0
  9 10  1  0
  4  8  1  0
  1  2  1  0
  5  6  1  0
M  END

$$$$
No_1039-/export/home/yangzhenyu/potential_scad_32_flow//YTHDC2/2024-12-06-03-22-00/
     RDKit          3D

 20 20  0  0  1  0  0  0  0  0999 V2000
    1.1787   -8.0297    3.5154 C   0  0  0  0  0  0  0  0  0  0  0  0
    1.0491   -6.8434    2.9820 C   0  0  0  0  0  0  0  0  0  0  0  0
    0.0950   -8.8404    3.2292 C   0  0  0  0  0  0  0  0  0  0  0  0
   -0.9173   -8.4596    2.5152 C   0  0  0  0  0  0  0  0  0  0  0  0
   -1.0331   -7.2162    2.0653 C   0  0  0  0  0  0  0  0  0  0  0  0
   -0.0105   -6.3168    2.3081 C   0  0  0  0  0  0  0  0  0  0  0  0
    0.1465  -10.2446    3.6981 C   0  0  0  0  0  0  0  0  0  0  0  0
    1.2433  -10.8239    4.0166 C   0  0  0  0  0  0  0  0  0  0  0  0
    1.0790  -12.2885    4.3779 C   0  0  0  0  0  0  0  0  0  0  0  0
    2.1319  -12.9766    3.6042 C   0  0  0  0  0  0  0  0  0  0  0  0
    1.5346  -14.2917    3.0032 C   0  0  0  0  0  0  0  0  0  0  0  0
    2.2795  -15.2222    2.3689 C   0  0  1  0  0  0  0  0  0  0  0  0
    3.2848  -14.9298    1.7196 C   0  0  0  0  0  0  0  0  0  0  0  0
    2.0932  -16.5289    2.7412 C   0  0  0  0  0  0  0  0  0  0  0  0
    1.2117  -17.1716    3.4462 O   0  0  0  0  0  0  0  0  0  0  0  0
    3.1648  -17.5132    2.3069 O   0  0  0  0  0  0  0  0  0  0  0  0
   -0.0626   -5.0279    1.8539 C   0  0  0  0  0  0  0  0  0  0  0  0
   -0.7447   -4.1327    2.3203 C   0  0  1  0  0  0  0  0  0  0  0  0
   -1.8139   -4.1083    2.6450 N   0  0  0  0  0  0  0  0  0  0  0  0
   -0.0917   -2.8707    2.7280 C   0  0  0  0  0  0  0  0  0  0  0  0
  3  7  1  0
  7  8  2  3
  8  9  1  0
  9 10  1  0
 10 11  1  0
 11 12  1  0
 12 13  1  1
 12 14  1  0
 14 15  2  0
 14 16  1  0
  6 17  1  0
 17 18  1  0
 18 19  1  0
 18 20  1  1
  1  2  2  0
  2  6  1  0
  5  6  2  0
  4  5  1  0
  3  4  2  0
  1  3  1  0
M  END

$$$$
No_1040-/export/home/yangzhenyu/potential_scad_32_flow//YTHDC2/2024-12-06-03-22-00/
     RDKit          3D

 20 20  0  0  0  0  0  0  0  0999 V2000
    1.1787   -8.0297    3.5154 C   0  0  0  0  0  0  0  0  0  0  0  0
    1.1048   -9.2215    3.2892 C   0  0  0  0  0  0  0  0  0  0  0  0
    1.2339   -9.7611    2.0189 C   0  0  0  0  0  0  0  0  0  0  0  0
    1.3583   -9.0036    0.9764 C   0  0  0  0  0  0  0  0  0  0  0  0
    1.5996   -7.6362    1.1311 C   0  0  0  0  0  0  0  0  0  0  0  0
    1.4830   -7.0928    2.3626 C   0  0  0  0  0  0  0  0  0  0  0  0
    1.1008  -11.2372    1.8542 C   0  0  0  0  0  0  0  0  0  0  0  0
    0.5178  -11.9759    2.3445 C   0  0  0  0  0  0  0  0  0  0  0  0
    0.4575  -13.3705    2.1281 C   0  0  0  0  0  0  0  0  0  0  0  0
    1.1632  -14.1013    2.0451 C   0  0  0  0  0  0  0  0  0  0  0  0
    2.4646  -13.5566    1.4445 C   0  0  0  0  0  0  0  0  0  0  0  0
    1.2467  -15.5603    2.2927 C   0  0  0  0  0  0  0  0  0  0  0  0
    2.3867  -16.3046    2.2488 O   0  0  0  0  0  0  0  0  0  0  0  0
    0.3239  -16.1189    3.1732 C   0  0  0  0  0  0  0  0  0  0  0  0
    1.5703   -5.4748    2.6770 Cl  0  0  0  0  0  0  0  0  0  0  0  0
    0.6854  -16.8655    4.2784 C   0  0  0  0  0  0  0  0  0  0  0  0
    1.0025  -18.0614    4.0377 C   0  0  0  0  0  0  0  0  0  0  0  0
    1.4611  -18.9355    5.1645 Cl  0  0  0  0  0  0  0  0  0  0  0  0
    1.5105   -9.4581   -0.3663 O   0  0  0  0  0  0  0  0  0  0  0  0
    1.4205  -18.6768    2.7159 C   0  0  0  0  0  0  0  0  0  0  0  0
  3  7  1  0
  7  8  2  3
  8  9  1  0
  9 10  2  3
 10 11  1  0
 10 12  1  0
 12 13  2  0
 12 14  1  0
  6 15  1  0
 14 16  1  0
 16 17  2  3
 17 18  1  0
  4 19  1  0
 17 20  1  0
  1  2  2  0
  2  3  1  0
  3  4  2  0
  4  5  1  0
  5  6  2  0
  1  6  1  0
M  END

$$$$
No_1041-/export/home/yangzhenyu/potential_scad_32_flow//YTHDC2/2024-12-06-03-22-00/
     RDKit          3D

 19 20  0  0  0  0  0  0  0  0999 V2000
    1.1787   -8.0297    3.5154 C   0  0  0  0  0  0  0  0  0  0  0  0
    1.1048   -9.2215    3.2892 C   0  0  0  0  0  0  0  0  0  0  0  0
    1.2339   -9.7611    2.0189 C   0  0  0  0  0  0  0  0  0  0  0  0
    1.3583   -9.0036    0.9764 C   0  0  0  0  0  0  0  0  0  0  0  0
    1.5996   -7.6362    1.1311 C   0  0  0  0  0  0  0  0  0  0  0  0
    1.4830   -7.0928    2.3626 C   0  0  0  0  0  0  0  0  0  0  0  0
    1.1171  -11.3311    1.8661 C   0  0  0  0  0  0  0  0  0  0  0  0
    1.9975  -12.1095    2.2478 C   0  0  0  0  0  0  0  0  0  0  0  0
    1.7697  -13.4418    1.9079 C   0  0  0  0  0  0  0  0  0  0  0  0
    0.8824  -13.8563    1.1154 C   0  0  0  0  0  0  0  0  0  0  0  0
   -0.0664  -12.9335    0.5986 C   0  0  0  0  0  0  0  0  0  0  0  0
    0.1158  -11.5559    0.9634 C   0  0  0  0  0  0  0  0  0  0  0  0
    1.5680   -5.4347    2.6963 Cl  0  0  0  0  0  0  0  0  0  0  0  0
   -0.8148  -10.7468    0.7693 C   0  0  0  0  0  0  0  0  0  0  0  0
   -1.9170  -10.5443    1.5905 O   0  0  0  0  0  0  0  0  0  0  0  0
   -2.5008  -11.5364    2.0609 C   0  0  0  0  0  0  0  0  0  0  0  0
   -2.2867  -11.6526    3.4526 C   0  0  0  0  0  0  0  0  0  0  0  0
   -1.1175  -10.2745   -0.5588 O   0  0  0  0  0  0  0  0  0  0  0  0
   -2.3777  -12.7914    1.2884 C   0  0  0  0  0  0  0  0  0  0  0  0
  3  7  1  0
  6 13  1  0
 12 14  1  0
 14 15  1  0
 15 16  1  0
 16 17  1  0
 14 18  2  0
 16 19  1  0
  1  2  2  0
  2  3  1  0
  3  4  2  0
  4  5  1  0
  5  6  2  0
  1  6  1  0
  7  8  2  0
  8  9  1  0
  9 10  2  0
 10 11  1  0
 11 12  2  0
  7 12  1  0
M  END

$$$$
No_1042-/export/home/yangzhenyu/potential_scad_32_flow//YTHDC2/2024-12-06-03-22-00/
     RDKit          3D

 17 18  0  0  0  0  0  0  0  0999 V2000
    1.1787   -8.0297    3.5154 C   0  0  0  0  0  0  0  0  0  0  0  0
    1.0491   -6.8434    2.9820 C   0  0  0  0  0  0  0  0  0  0  0  0
    0.9905   -9.0774    2.6527 C   0  0  0  0  0  0  0  0  0  0  0  0
    0.9687   -8.6883    1.3634 C   0  0  0  0  0  0  0  0  0  0  0  0
    1.0948   -6.3768    1.7686 C   0  0  0  0  0  0  0  0  0  0  0  0
    0.9504   -7.3975    0.8471 C   0  0  0  0  0  0  0  0  0  0  0  0
    1.0365  -10.4250    2.9992 C   0  0  0  0  0  0  0  0  0  0  0  0
   -0.0815  -11.0912    3.0879 C   0  0  0  0  0  0  0  0  0  0  0  0
    0.1255  -12.5704    3.2510 C   0  0  0  0  0  0  0  0  0  0  0  0
    1.5968  -12.9273    3.0816 C   0  0  0  0  0  0  0  0  0  0  0  0
    2.2920  -12.0624    2.7166 C   0  0  0  0  0  0  0  0  0  0  0  0
    2.2572  -10.8599    2.6386 C   0  0  0  0  0  0  0  0  0  0  0  0
    1.7084  -14.5216    3.0435 O   0  0  0  0  0  0  0  0  0  0  0  0
    1.0903   -5.0483    1.2832 C   0  0  0  0  0  0  0  0  0  0  0  0
   -0.0645   -4.5643    0.7681 C   0  0  0  0  0  0  0  0  0  0  0  0
   -0.5876   -3.6937    1.2163 C   0  0  0  0  0  0  0  0  0  0  0  0
    0.1563   -2.6724    2.0039 C   0  0  0  0  0  0  0  0  0  0  0  0
  3  7  1  0
 10 13  1  0
  5 14  1  0
 14 15  1  0
 15 16  2  3
 16 17  1  0
  1  2  2  0
  2  5  1  0
  5  6  2  0
  4  6  1  0
  3  4  2  0
  1  3  1  0
  7  8  2  0
  8  9  1  0
  9 10  2  0
 10 11  1  0
 11 12  2  0
  7 12  1  0
M  END

$$$$
No_1043-/export/home/yangzhenyu/potential_scad_32_flow//YTHDC2/2024-12-06-03-22-00/
     RDKit          3D

 18 20  0  0  0  0  0  0  0  0999 V2000
    1.1787   -8.0297    3.5154 C   0  0  0  0  0  0  0  0  0  0  0  0
    1.1048   -9.2215    3.2892 C   0  0  0  0  0  0  0  0  0  0  0  0
    1.3627  -10.1721    4.3044 C   0  0  0  0  0  0  0  0  0  0  0  0
    1.7354  -11.4730    3.9023 C   0  0  0  0  0  0  0  0  0  0  0  0
    1.8080  -11.8127    2.7216 C   0  0  0  0  0  0  0  0  0  0  0  0
    1.5854  -11.0021    1.7249 C   0  0  0  0  0  0  0  0  0  0  0  0
    1.3573   -9.7389    1.9287 C   0  0  0  0  0  0  0  0  0  0  0  0
    1.1102   -8.8712    0.9017 C   0  0  0  0  0  0  0  0  0  0  0  0
    0.5299   -7.6926    1.0325 N   0  0  0  0  0  0  0  0  0  0  0  0
    0.7581   -7.1384    2.2739 C   0  0  0  0  0  0  0  0  0  0  0  0
    0.6121   -5.7262    2.4458 C   0  0  0  0  0  0  0  0  0  0  0  0
    2.0691  -13.2597    2.4321 C   0  0  0  0  0  0  0  0  0  0  0  0
    1.9458  -14.1991    3.2601 C   0  0  0  0  0  0  0  0  0  0  0  0
    2.0978  -15.5501    2.7885 C   0  0  0  0  0  0  0  0  0  0  0  0
    2.6063  -15.7193    1.5362 C   0  0  0  0  0  0  0  0  0  0  0  0
    2.8264  -14.8029    0.6972 C   0  0  0  0  0  0  0  0  0  0  0  0
    2.5221  -13.4635    1.0783 C   0  0  0  0  0  0  0  0  0  0  0  0
    1.2420   -9.3108   -0.5051 C   0  0  0  0  0  0  0  0  0  0  0  0
 10 11  1  0
  5 12  1  0
  8 18  1  0
  1  2  2  0
  7  8  2  0
  8  9  1  0
  9 10  2  0
  1 10  1  0
  2  3  1  0
  3  4  2  0
  4  5  1  0
  5  6  2  0
  6  7  1  0
  2  7  1  0
 12 13  2  0
 13 14  1  0
 14 15  2  0
 15 16  1  0
 16 17  2  0
 12 17  1  0
M  END

$$$$
No_1044-/export/home/yangzhenyu/potential_scad_32_flow//YTHDC2/2024-12-06-03-22-00/
     RDKit          3D

 20 21  0  0  1  0  0  0  0  0999 V2000
    1.1787   -8.0297    3.5154 O   0  0  0  0  0  0  0  0  0  0  0  0
    0.9969   -8.9689    3.0048 C   0  0  2  0  0  0  0  0  0  0  0  0
    1.3055  -10.1056    3.6616 C   0  0  0  0  0  0  0  0  0  0  0  0
    1.3094  -11.3364    3.0826 C   0  0  0  0  0  0  0  0  0  0  0  0
    1.3723  -11.4901    1.9447 C   0  0  2  0  0  0  0  0  0  0  0  0
    1.2196  -10.4151    0.9899 C   0  0  0  0  0  0  0  0  0  0  0  0
    1.1006   -9.1645    1.5726 C   0  0  2  0  0  0  0  0  0  0  0  0
    1.1635   -8.0015    0.7947 C   0  0  0  0  0  0  0  0  0  0  0  0
    1.0627   -6.8924    1.3160 N   0  0  0  0  0  0  0  0  0  0  0  0
    1.1513   -8.1082   -0.6349 N   0  0  0  0  0  0  0  0  0  0  0  0
    1.4865  -12.8215    1.2459 C   0  0  0  0  0  0  0  0  0  0  0  0
    0.6072  -13.2787    0.3496 O   0  0  0  0  0  0  0  0  0  0  0  0
    2.5265  -13.5743    1.5647 O   0  0  0  0  0  0  0  0  0  0  0  0
    1.1209   -6.7134    2.6574 C   0  0  2  0  0  0  0  0  0  0  0  0
    1.2245   -5.5481    3.3023 C   0  0  0  0  0  0  0  0  0  0  0  0
    0.9393   -4.3629    2.7645 C   0  0  0  0  0  0  0  0  0  0  0  0
    1.9233   -3.4108    2.6721 C   0  0  0  0  0  0  0  0  0  0  0  0
    1.2071  -10.6411   -0.2742 O   0  0  0  0  0  0  0  0  0  0  0  0
    1.8275   -2.3337    1.8992 C   0  0  0  0  0  0  0  0  0  0  0  0
    0.7456   -2.1883    1.1377 C   0  0  0  0  0  0  0  0  0  0  0  0
  1  2  1  0
  3  4  1  0
  5  6  1  0
  2  7  1  0
  7  6  1  1
  7  8  1  0
  8  9  2  0
  8 10  1  0
  5 11  1  6
 11 12  1  0
 11 13  2  0
  1 14  1  0
  9 14  1  0
 14 15  1  6
 15 16  1  0
 16 17  1  0
  6 18  2  0
 17 19  2  3
 19 20  1  0
  4  5  1  0
  2  3  1  1
M  END

$$$$
No_1045-/export/home/yangzhenyu/potential_scad_32_flow//YTHDC2/2024-12-06-03-22-00/
     RDKit          3D

 19 19  0  0  1  0  0  0  0  0999 V2000
    1.1787   -8.0297    3.5154 C   0  0  0  0  0  0  0  0  0  0  0  0
    1.1048   -9.2215    3.2892 C   0  0  0  0  0  0  0  0  0  0  0  0
    1.2339   -9.7611    2.0189 C   0  0  0  0  0  0  0  0  0  0  0  0
    1.3583   -9.0036    0.9764 C   0  0  0  0  0  0  0  0  0  0  0  0
    1.5996   -7.6362    1.1311 C   0  0  0  0  0  0  0  0  0  0  0  0
    1.4830   -7.0928    2.3626 C   0  0  0  0  0  0  0  0  0  0  0  0
    1.1008  -11.2372    1.8542 C   0  0  1  0  0  0  0  0  0  0  0  0
    0.4812  -11.6084    0.6459 C   0  0  0  0  0  0  0  0  0  0  0  0
   -0.3691  -10.9312    0.0124 C   0  0  0  0  0  0  0  0  0  0  0  0
   -0.9284   -9.6856    0.5810 N   0  0  0  0  0  0  0  0  0  0  0  0
    2.0031  -12.0175    2.5059 C   0  0  0  0  0  0  0  0  0  0  0  0
    1.7592  -13.3884    2.2377 O   0  0  0  0  0  0  0  0  0  0  0  0
    2.3921  -11.7838    3.7654 O   0  0  0  0  0  0  0  0  0  0  0  0
    1.4639   -5.5594    2.6686 N   0  0  0  0  0  0  0  0  0  0  0  0
   -2.1556   -9.4985   -0.1263 C   0  0  0  0  0  0  0  0  0  0  0  0
   -2.6306   -9.7101   -1.1778 O   0  0  0  0  0  0  0  0  0  0  0  0
   -2.7955   -8.2343    0.6191 N   0  0  0  0  0  0  0  0  0  0  0  0
   -2.3993   -7.8303    1.8967 C   0  0  0  0  0  0  0  0  0  0  0  0
   -1.8644   -6.5399    2.0685 C   0  0  0  0  0  0  0  0  0  0  0  0
  3  7  1  0
  7  8  1  0
  8  9  2  3
  9 10  1  0
  7 11  1  6
 11 12  2  0
 11 13  1  0
  6 14  1  0
 10 15  1  0
 15 16  2  0
 15 17  1  0
 17 18  1  0
 18 19  1  0
  1  2  2  0
  2  3  1  0
  3  4  2  0
  4  5  1  0
  5  6  2  0
  1  6  1  0
M  END

$$$$
No_1046-/export/home/yangzhenyu/potential_scad_32_flow//YTHDC2/2024-12-06-03-22-00/
     RDKit          3D

 17 17  0  0  0  0  0  0  0  0999 V2000
    1.1787   -8.0297    3.5154 O   0  0  0  0  0  0  0  0  0  0  0  0
    0.9969   -8.9689    3.0048 C   0  0  0  0  0  0  0  0  0  0  0  0
    1.3055  -10.1056    3.6616 C   0  0  0  0  0  0  0  0  0  0  0  0
    1.1249  -11.3503    3.0941 C   0  0  0  0  0  0  0  0  0  0  0  0
    0.6932  -11.4484    1.8586 C   0  0  0  0  0  0  0  0  0  0  0  0
    0.5498  -10.3736    1.0579 C   0  0  0  0  0  0  0  0  0  0  0  0
    0.7643   -9.1185    1.6383 C   0  0  0  0  0  0  0  0  0  0  0  0
    0.5937   -7.8467    1.0482 C   0  0  0  0  0  0  0  0  0  0  0  0
    1.5294   -7.0230    1.0749 O   0  0  0  0  0  0  0  0  0  0  0  0
   -0.6365   -7.3369    0.8365 O   0  0  0  0  0  0  0  0  0  0  0  0
    1.1997  -12.6524    3.8156 C   0  0  0  0  0  0  0  0  0  0  0  0
    1.4174  -13.7472    2.9487 O   0  0  0  0  0  0  0  0  0  0  0  0
    0.5562  -12.8180    4.7956 O   0  0  0  0  0  0  0  0  0  0  0  0
    0.4461  -12.6180    1.0277 C   0  0  0  0  0  0  0  0  0  0  0  0
   -0.7450  -12.9461    0.6359 O   0  0  0  0  0  0  0  0  0  0  0  0
    1.4234  -13.5958    0.8333 O   0  0  0  0  0  0  0  0  0  0  0  0
    0.1955  -10.3281   -0.4827 C   0  0  0  0  0  0  0  0  0  0  0  0
  1  2  1  0
  7  8  1  0
  8  9  1  0
  8 10  2  0
  4 11  1  0
 11 12  2  0
 11 13  1  0
  5 14  1  0
 14 15  2  0
 14 16  1  0
  6 17  1  0
  2  3  2  0
  3  4  1  0
  4  5  2  0
  5  6  1  0
  6  7  2  0
  2  7  1  0
M  END

$$$$
No_1047-/export/home/yangzhenyu/potential_scad_32_flow//YTHDC2/2024-12-06-03-22-00/
     RDKit          3D

 19 20  0  0  1  0  0  0  0  0999 V2000
    1.1787   -8.0297    3.5154 C   0  0  0  0  0  0  0  0  0  0  0  0
    1.0491   -6.8434    2.9820 C   0  0  0  0  0  0  0  0  0  0  0  0
    1.9985   -8.9840    2.8958 N   0  0  0  0  0  0  0  0  0  0  0  0
    1.7939   -9.1659    1.7087 C   0  0  2  0  0  0  0  0  0  0  0  0
    2.3439  -10.4558    1.1978 C   0  0  0  0  0  0  0  0  0  0  0  0
    1.5785   -8.2069    0.8710 C   0  0  2  0  0  0  0  0  0  0  0  0
    1.0290   -7.0022    1.4690 C   0  0  0  0  0  0  0  0  0  0  0  0
    1.6591   -8.2451   -0.4965 C   0  0  0  0  0  0  0  0  0  0  0  0
    1.4542  -11.3471    0.8496 O   0  0  0  0  0  0  0  0  0  0  0  0
    0.6385   -8.5809   -1.2604 O   0  0  0  0  0  0  0  0  0  0  0  0
    2.8548   -8.1759   -1.0974 O   0  0  0  0  0  0  0  0  0  0  0  0
    1.0239  -12.3991    1.5795 C   0  0  0  0  0  0  0  0  0  0  0  0
    0.2266  -12.1569    2.3785 C   0  0  0  0  0  0  0  0  0  0  0  0
    0.4466  -13.1500    3.5277 C   0  0  0  0  0  0  0  0  0  0  0  0
    1.1191  -14.2914    3.2987 C   0  0  0  0  0  0  0  0  0  0  0  0
    1.7977  -14.5306    2.0705 C   0  0  0  0  0  0  0  0  0  0  0  0
    1.8053  -13.5329    1.1493 C   0  0  0  0  0  0  0  0  0  0  0  0
    2.7134  -15.7466    1.8441 N   0  0  0  0  0  0  0  0  0  0  0  0
    2.2888  -16.8556    2.3261 C   0  0  0  0  0  0  0  0  0  0  0  0
  1  2  1  0
  1  3  1  0
  3  4  1  0
  4  5  1  6
  4  6  1  0
  2  7  1  0
  6  7  1  0
  6  8  1  6
  5  9  1  0
  8 10  1  0
  8 11  2  0
  9 12  1  0
 16 18  1  0
 18 19  1  0
 12 13  2  0
 13 14  1  0
 14 15  2  0
 15 16  1  0
 16 17  2  0
 12 17  1  0
M  END

$$$$
No_1048-/export/home/yangzhenyu/potential_scad_32_flow//YTHDC2/2024-12-06-03-22-00/
     RDKit          3D

 20 20  0  0  1  0  0  0  0  0999 V2000
    1.1787   -8.0297    3.5154 C   0  0  0  0  0  0  0  0  0  0  0  0
    1.0491   -6.8434    2.9820 C   0  0  0  0  0  0  0  0  0  0  0  0
    0.9905   -9.0774    2.6527 C   0  0  0  0  0  0  0  0  0  0  0  0
    0.7897   -8.9519    1.3691 C   0  0  0  0  0  0  0  0  0  0  0  0
    0.7018   -7.7198    0.7892 C   0  0  0  0  0  0  0  0  0  0  0  0
    0.8918   -6.5957    1.6117 C   0  0  0  0  0  0  0  0  0  0  0  0
    1.0998  -10.4710    3.2437 C   0  0  1  0  0  0  0  0  0  0  0  0
    2.1917  -10.8879    3.7399 C   0  0  0  0  0  0  0  0  0  0  0  0
    0.8983   -5.2566    1.2088 C   0  0  0  0  0  0  0  0  0  0  0  0
   -0.0775  -10.6645    4.2505 C   0  0  0  0  0  0  0  0  0  0  0  0
    0.2252   -4.2889    2.0233 N   0  0  0  0  0  0  0  0  0  0  0  0
    0.9547   -3.3994    2.6101 C   0  0  0  0  0  0  0  0  0  0  0  0
    0.2124   -2.6597    3.7072 C   0  0  0  0  0  0  0  0  0  0  0  0
    2.3159  -11.8075    4.5796 O   0  0  0  0  0  0  0  0  0  0  0  0
   -0.9983  -11.2050    3.7218 O   0  0  0  0  0  0  0  0  0  0  0  0
    3.3601  -10.4841    3.1662 O   0  0  0  0  0  0  0  0  0  0  0  0
   -0.8168   -3.6272    1.0830 C   0  0  0  0  0  0  0  0  0  0  0  0
   -0.5394   -2.4227    0.6487 C   0  0  0  0  0  0  0  0  0  0  0  0
    0.5440   -2.0930   -0.0720 C   0  0  0  0  0  0  0  0  0  0  0  0
    0.8351   -0.9397   -0.6469 C   0  0  0  0  0  0  0  0  0  0  0  0
  3  7  1  0
  7  8  1  0
  6  9  1  0
  7 10  1  1
  9 11  1  0
 11 12  1  0
 12 13  1  0
  8 14  1  0
 10 15  1  0
  8 16  2  0
 11 17  1  0
 17 18  1  0
 18 19  1  0
 19 20  2  0
  1  2  2  0
  2  6  1  0
  5  6  2  0
  4  5  1  0
  3  4  2  0
  1  3  1  0
M  END

$$$$
No_1049-/export/home/yangzhenyu/potential_scad_32_flow//YTHDC2/2024-12-06-03-22-00/
     RDKit          3D

 18 19  0  0  0  0  0  0  0  0999 V2000
    1.1787   -8.0297    3.5154 C   0  0  0  0  0  0  0  0  0  0  0  0
    1.1048   -9.2215    3.2892 C   0  0  0  0  0  0  0  0  0  0  0  0
    1.2339   -9.7611    2.0189 C   0  0  0  0  0  0  0  0  0  0  0  0
    1.3583   -9.0036    0.9764 C   0  0  0  0  0  0  0  0  0  0  0  0
    1.5996   -7.6362    1.1311 C   0  0  0  0  0  0  0  0  0  0  0  0
    1.4830   -7.0928    2.3626 C   0  0  0  0  0  0  0  0  0  0  0  0
    1.1008  -11.2372    1.8542 C   0  0  0  0  0  0  0  0  0  0  0  0
    0.4812  -11.6084    0.6459 O   0  0  0  0  0  0  0  0  0  0  0  0
    1.7073  -12.0515    2.5959 N   0  0  0  0  0  0  0  0  0  0  0  0
    1.6552  -13.4559    2.3464 C   0  0  0  0  0  0  0  0  0  0  0  0
    0.5717  -14.0517    3.0080 C   0  0  0  0  0  0  0  0  0  0  0  0
    0.6595  -15.5409    2.8561 C   0  0  0  0  0  0  0  0  0  0  0  0
    1.6736  -16.1328    2.2037 C   0  0  0  0  0  0  0  0  0  0  0  0
    2.8036  -15.3902    1.7184 C   0  0  0  0  0  0  0  0  0  0  0  0
    2.8302  -14.0434    1.8369 C   0  0  0  0  0  0  0  0  0  0  0  0
    1.5655   -5.6493    2.6479 O   0  0  0  0  0  0  0  0  0  0  0  0
    1.5985   -9.3827   -0.3570 O   0  0  0  0  0  0  0  0  0  0  0  0
    1.7390  -17.5816    2.1261 C   0  0  0  0  0  0  0  0  0  0  0  0
  3  7  1  0
  7  8  2  0
  7  9  1  0
  9 10  1  0
  6 16  1  0
  4 17  1  0
 13 18  1  0
  1  2  2  0
  2  3  1  0
  3  4  2  0
  4  5  1  0
  5  6  2  0
  1  6  1  0
 10 11  2  0
 11 12  1  0
 12 13  2  0
 13 14  1  0
 14 15  2  0
 10 15  1  0
M  END

$$$$
No_1050-/export/home/yangzhenyu/potential_scad_32_flow//YTHDC2/2024-12-06-03-22-00/
     RDKit          3D

 19 20  0  0  0  0  0  0  0  0999 V2000
    1.1787   -8.0297    3.5154 C   0  0  0  0  0  0  0  0  0  0  0  0
    1.0491   -6.8434    2.9820 C   0  0  0  0  0  0  0  0  0  0  0  0
    0.9905   -9.0774    2.6527 C   0  0  0  0  0  0  0  0  0  0  0  0
    0.7897   -8.9519    1.3691 C   0  0  0  0  0  0  0  0  0  0  0  0
    0.6550  -10.0985    0.4848 C   0  0  0  0  0  0  0  0  0  0  0  0
    0.7849   -6.5836    1.6043 C   0  0  0  0  0  0  0  0  0  0  0  0
    0.6652   -7.6671    0.8008 C   0  0  0  0  0  0  0  0  0  0  0  0
    0.0083   -9.7878   -0.7706 O   0  0  0  0  0  0  0  0  0  0  0  0
    1.3359  -11.1513    0.4976 N   0  0  0  0  0  0  0  0  0  0  0  0
    1.8547  -11.6619    1.7871 C   0  0  0  0  0  0  0  0  0  0  0  0
    1.1223  -12.5832    2.4272 C   0  0  0  0  0  0  0  0  0  0  0  0
    0.0116  -13.1576    2.0280 C   0  0  0  0  0  0  0  0  0  0  0  0
   -0.4568  -14.3016    2.8122 C   0  0  0  0  0  0  0  0  0  0  0  0
    0.4304  -14.9299    3.7363 C   0  0  0  0  0  0  0  0  0  0  0  0
    1.6457  -14.3413    4.0157 C   0  0  0  0  0  0  0  0  0  0  0  0
    2.0661  -13.2771    3.2960 C   0  0  0  0  0  0  0  0  0  0  0  0
   -0.0687  -16.0786    4.3758 O   0  0  0  0  0  0  0  0  0  0  0  0
    0.6582   -5.2935    1.1026 F   0  0  0  0  0  0  0  0  0  0  0  0
    0.1291  -17.2448    3.9779 C   0  0  0  0  0  0  0  0  0  0  0  0
  4  5  1  0
  5  8  2  0
  5  9  1  0
  9 10  2  3
 10 11  1  0
 14 17  1  0
  6 18  1  0
 17 19  1  0
 11 12  2  0
 12 13  1  0
 13 14  2  0
 14 15  1  0
 15 16  2  0
 11 16  1  0
  1  2  2  0
  2  6  1  0
  6  7  2  0
  4  7  1  0
  3  4  2  0
  1  3  1  0
M  END

$$$$
No_1051-/export/home/yangzhenyu/potential_scad_32_flow//YTHDC2/2024-12-06-03-22-00/
     RDKit          3D

 17 17  0  0  0  0  0  0  0  0999 V2000
    1.1787   -8.0297    3.5154 C   0  0  0  0  0  0  0  0  0  0  0  0
    1.1048   -9.2215    3.2892 C   0  0  0  0  0  0  0  0  0  0  0  0
    1.2339   -9.7611    2.0189 C   0  0  0  0  0  0  0  0  0  0  0  0
    1.3583   -9.0036    0.9764 C   0  0  0  0  0  0  0  0  0  0  0  0
    1.5996   -7.6362    1.1311 C   0  0  0  0  0  0  0  0  0  0  0  0
    1.4830   -7.0928    2.3626 C   0  0  0  0  0  0  0  0  0  0  0  0
    1.4898   -5.7274    2.6199 C   0  0  0  0  0  0  0  0  0  0  0  0
    1.1681  -11.2222    1.8390 C   0  0  0  0  0  0  0  0  0  0  0  0
    1.9047  -12.1147    2.3357 C   0  0  0  0  0  0  0  0  0  0  0  0
    1.8519  -12.2647    3.5902 C   0  0  0  0  0  0  0  0  0  0  0  0
    0.8920  -13.0628    3.9694 C   0  0  0  0  0  0  0  0  0  0  0  0
    1.3572  -14.6040    3.4535 C   0  0  0  0  0  0  0  0  0  0  0  0
    2.3346  -14.6844    2.4582 C   0  0  0  0  0  0  0  0  0  0  0  0
    0.5472  -15.6143    3.8474 C   0  0  0  0  0  0  0  0  0  0  0  0
    1.2491   -4.8638    1.6119 N   0  0  0  0  0  0  0  0  0  0  0  0
    1.7412   -5.1617    3.7908 O   0  0  0  0  0  0  0  0  0  0  0  0
    1.1668   -3.4726    1.6812 C   0  0  0  0  0  0  0  0  0  0  0  0
  6  7  1  0
  3  8  1  0
  8  9  1  0
  9 10  1  0
 10 11  1  0
 11 12  1  0
 12 13  1  0
 12 14  1  0
  7 15  1  0
  7 16  2  0
 15 17  1  0
  1  2  2  0
  2  3  1  0
  3  4  2  0
  4  5  1  0
  5  6  2  0
  1  6  1  0
M  END

$$$$
No_1052-/export/home/yangzhenyu/potential_scad_32_flow//YTHDC2/2024-12-06-03-22-00/
     RDKit          3D

 18 19  0  0  0  0  0  0  0  0999 V2000
    1.1787   -8.0297    3.5154 C   0  0  0  0  0  0  0  0  0  0  0  0
    1.1048   -9.2215    3.2892 C   0  0  0  0  0  0  0  0  0  0  0  0
    1.2339   -9.7611    2.0189 C   0  0  0  0  0  0  0  0  0  0  0  0
    1.3583   -9.0036    0.9764 C   0  0  0  0  0  0  0  0  0  0  0  0
    1.5394   -7.6373    1.2201 C   0  0  0  0  0  0  0  0  0  0  0  0
    1.4604   -7.0971    2.3874 C   0  0  0  0  0  0  0  0  0  0  0  0
    1.4903   -5.6948    2.6725 C   0  0  0  0  0  0  0  0  0  0  0  0
    1.1708  -11.2251    1.8438 C   0  0  0  0  0  0  0  0  0  0  0  0
    0.7384  -11.5813    0.5370 N   0  0  0  0  0  0  0  0  0  0  0  0
    1.5994  -12.0522    2.6426 C   0  0  0  0  0  0  0  0  0  0  0  0
    1.5654  -13.4028    2.2906 N   0  0  0  0  0  0  0  0  0  0  0  0
    1.0940  -13.7614    1.1043 N   0  0  0  0  0  0  0  0  0  0  0  0
    0.6421  -12.8430    0.2912 C   0  0  0  0  0  0  0  0  0  0  0  0
    2.2312  -11.8687    3.8762 N   0  0  0  0  0  0  0  0  0  0  0  0
    0.5455   -4.9251    2.8291 O   0  0  0  0  0  0  0  0  0  0  0  0
    2.4838   -5.1622    3.1664 O   0  0  0  0  0  0  0  0  0  0  0  0
    1.5459   -9.3781   -0.3397 C   0  0  0  0  0  0  0  0  0  0  0  0
    2.7417   -9.4497   -0.8880 O   0  0  0  0  0  0  0  0  0  0  0  0
  6  7  1  0
  3  8  1  0
 10 14  1  0
  7 15  2  0
  7 16  1  0
  4 17  1  0
 17 18  1  0
  1  2  2  0
  2  3  1  0
  3  4  2  0
  4  5  1  0
  5  6  2  0
  1  6  1  0
  8  9  2  0
  9 13  1  0
 12 13  2  0
 11 12  1  0
 10 11  2  0
  8 10  1  0
M  END

$$$$
No_1053-/export/home/yangzhenyu/potential_scad_32_flow//YTHDC2/2024-12-06-03-22-00/
     RDKit          3D

 19 19  0  0  0  0  0  0  0  0999 V2000
    1.1787   -8.0297    3.5154 C   0  0  0  0  0  0  0  0  0  0  0  0
    1.1048   -9.2215    3.2892 C   0  0  0  0  0  0  0  0  0  0  0  0
    1.2339   -9.7611    2.0189 C   0  0  0  0  0  0  0  0  0  0  0  0
    1.3583   -9.0036    0.9764 C   0  0  0  0  0  0  0  0  0  0  0  0
    1.7077   -9.6100   -0.3010 C   0  0  0  0  0  0  0  0  0  0  0  0
    1.3637   -7.1087    2.3226 C   0  0  0  0  0  0  0  0  0  0  0  0
    1.4257   -7.6645    1.0231 C   0  0  0  0  0  0  0  0  0  0  0  0
    1.6722  -10.7840   -0.4044 O   0  0  0  0  0  0  0  0  0  0  0  0
    1.4862   -8.9147   -1.4018 O   0  0  0  0  0  0  0  0  0  0  0  0
    1.1383  -10.1804    4.3877 C   0  0  0  0  0  0  0  0  0  0  0  0
    1.9382  -11.5205    4.1144 C   0  0  0  0  0  0  0  0  0  0  0  0
    1.1035  -12.4680    3.4297 O   0  0  0  0  0  0  0  0  0  0  0  0
    1.5666  -13.6058    2.9745 C   0  0  0  0  0  0  0  0  0  0  0  0
    2.1945  -13.6698    1.8987 O   0  0  0  0  0  0  0  0  0  0  0  0
    1.9212  -14.6956    3.7611 O   0  0  0  0  0  0  0  0  0  0  0  0
    1.2885   -5.6132    2.5805 Cl  0  0  0  0  0  0  0  0  0  0  0  0
    2.0138  -15.9540    3.0819 C   0  0  0  0  0  0  0  0  0  0  0  0
    3.0798  -16.1478    2.4227 C   0  0  0  0  0  0  0  0  0  0  0  0
    3.0819  -17.5775    1.9062 C   0  0  0  0  0  0  0  0  0  0  0  0
  4  5  1  0
  5  8  2  0
  5  9  1  0
  2 10  1  0
 10 11  1  0
 11 12  1  0
 12 13  1  0
 13 14  2  0
 13 15  1  0
  6 16  1  0
 15 17  1  0
 17 18  1  0
 18 19  2  0
  1  2  2  0
  2  3  1  0
  3  4  2  0
  4  7  1  0
  6  7  2  0
  1  6  1  0
M  END

$$$$
No_1054-/export/home/yangzhenyu/potential_scad_32_flow//YTHDC2/2024-12-06-03-22-00/
     RDKit          3D

 18 18  0  0  0  0  0  0  0  0999 V2000
    1.1787   -8.0297    3.5154 C   0  0  0  0  0  0  0  0  0  0  0  0
    1.1048   -9.2215    3.2892 C   0  0  0  0  0  0  0  0  0  0  0  0
    1.2339   -9.7611    2.0189 C   0  0  0  0  0  0  0  0  0  0  0  0
    1.3583   -9.0036    0.9764 C   0  0  0  0  0  0  0  0  0  0  0  0
    1.5996   -7.6362    1.1311 C   0  0  0  0  0  0  0  0  0  0  0  0
    1.4830   -7.0928    2.3626 C   0  0  0  0  0  0  0  0  0  0  0  0
    1.5395   -5.7300    2.6182 C   0  0  0  0  0  0  0  0  0  0  0  0
    1.1775  -11.2233    1.8407 C   0  0  0  0  0  0  0  0  0  0  0  0
    1.9057  -12.1147    2.3397 C   0  0  0  0  0  0  0  0  0  0  0  0
    1.2923  -13.3224    2.7485 C   0  0  0  0  0  0  0  0  0  0  0  0
    1.7772  -14.5584    2.3045 C   0  0  0  0  0  0  0  0  0  0  0  0
    1.3033  -15.2289    1.6999 C   0  0  0  0  0  0  0  0  0  0  0  0
    0.3184  -14.9233    0.9092 N   0  0  0  0  0  0  0  0  0  0  0  0
    1.9573  -16.4898    1.3682 O   0  0  0  0  0  0  0  0  0  0  0  0
    1.2992   -4.8075    1.6840 C   0  0  0  0  0  0  0  0  0  0  0  0
    0.6217   -3.7501    1.8671 N   0  0  0  0  0  0  0  0  0  0  0  0
   -0.2770  -15.7599   -0.1440 C   0  0  0  0  0  0  0  0  0  0  0  0
   -1.4055  -15.1193   -0.7450 C   0  0  0  0  0  0  0  0  0  0  0  0
  6  7  1  0
  3  8  1  0
  8  9  1  0
  9 10  1  0
 10 11  1  0
 11 12  1  0
 12 13  1  0
 12 14  2  0
  7 15  2  3
 15 16  1  0
 13 17  1  0
 17 18  1  0
  1  2  2  0
  2  3  1  0
  3  4  2  0
  4  5  1  0
  5  6  2  0
  1  6  1  0
M  END

$$$$
No_1055-/export/home/yangzhenyu/potential_scad_32_flow//YTHDC2/2024-12-06-03-22-00/
     RDKit          3D

 17 18  0  0  0  0  0  0  0  0999 V2000
    1.1787   -8.0297    3.5154 C   0  0  0  0  0  0  0  0  0  0  0  0
    1.0491   -6.8434    2.9820 C   0  0  0  0  0  0  0  0  0  0  0  0
    0.0950   -8.8404    3.2292 C   0  0  0  0  0  0  0  0  0  0  0  0
   -0.9173   -8.4596    2.5152 C   0  0  0  0  0  0  0  0  0  0  0  0
   -1.0331   -7.2162    2.0653 C   0  0  0  0  0  0  0  0  0  0  0  0
   -0.0105   -6.3168    2.3081 C   0  0  0  0  0  0  0  0  0  0  0  0
    0.1935  -10.3737    3.7416 C   0  0  0  0  0  0  0  0  0  0  0  0
    1.2406  -10.8901    4.0986 C   0  0  0  0  0  0  0  0  0  0  0  0
    1.7689  -11.7893    3.2364 C   0  0  0  0  0  0  0  0  0  0  0  0
    1.3730  -13.1491    3.3259 C   0  0  0  0  0  0  0  0  0  0  0  0
    1.9562  -14.1328    2.3541 C   0  0  0  0  0  0  0  0  0  0  0  0
    1.6124  -15.4912    2.6080 C   0  0  0  0  0  0  0  0  0  0  0  0
    0.6041  -15.8234    3.5126 C   0  0  0  0  0  0  0  0  0  0  0  0
    0.0335  -14.9757    4.2363 C   0  0  0  0  0  0  0  0  0  0  0  0
    0.3748  -13.7073    4.1849 C   0  0  0  0  0  0  0  0  0  0  0  0
   -0.0426   -5.0102    1.7914 C   0  0  0  0  0  0  0  0  0  0  0  0
    0.8136   -4.0772    2.2974 C   0  0  0  0  0  0  0  0  0  0  0  0
  3  7  1  0
  7  8  1  0
  8  9  1  0
  9 10  1  0
  6 16  1  0
 16 17  2  0
  1  2  2  0
  2  6  1  0
  5  6  2  0
  4  5  1  0
  3  4  2  0
  1  3  1  0
 10 11  2  0
 11 12  1  0
 12 13  2  0
 13 14  1  0
 14 15  2  0
 10 15  1  0
M  END

$$$$
No_1056-/export/home/yangzhenyu/potential_scad_32_flow//YTHDC2/2024-12-06-03-22-00/
     RDKit          3D

 18 19  0  0  0  0  0  0  0  0999 V2000
    1.1787   -8.0297    3.5154 C   0  0  0  0  0  0  0  0  0  0  0  0
    1.0491   -6.8434    2.9820 C   0  0  0  0  0  0  0  0  0  0  0  0
    0.0950   -8.8404    3.2292 C   0  0  0  0  0  0  0  0  0  0  0  0
   -0.9173   -8.4596    2.5152 C   0  0  0  0  0  0  0  0  0  0  0  0
   -1.0331   -7.2162    2.0653 C   0  0  0  0  0  0  0  0  0  0  0  0
   -0.0105   -6.3168    2.3081 C   0  0  0  0  0  0  0  0  0  0  0  0
    0.1935  -10.3737    3.7416 C   0  0  0  0  0  0  0  0  0  0  0  0
   -0.9968  -11.0614    3.6410 C   0  0  0  0  0  0  0  0  0  0  0  0
   -2.0651  -10.5736    2.9123 C   0  0  0  0  0  0  0  0  0  0  0  0
   -2.0392   -9.2902    2.3541 C   0  0  0  0  0  0  0  0  0  0  0  0
   -3.1781  -11.3582    2.7993 C   0  0  0  0  0  0  0  0  0  0  0  0
   -0.0593   -4.9635    1.8581 C   0  0  0  0  0  0  0  0  0  0  0  0
    0.8606   -4.0942    2.1331 C   0  0  0  0  0  0  0  0  0  0  0  0
    0.8940   -2.7721    1.5712 C   0  0  0  0  0  0  0  0  0  0  0  0
   -4.3061  -11.0804    3.3897 C   0  0  0  0  0  0  0  0  0  0  0  0
   -5.3862  -11.9294    3.3291 C   0  0  0  0  0  0  0  0  0  0  0  0
   -5.3404  -13.1410    2.7902 C   0  0  0  0  0  0  0  0  0  0  0  0
   -4.1777  -13.6491    2.3342 C   0  0  0  0  0  0  0  0  0  0  0  0
  9 11  1  0
  6 12  1  0
 12 13  2  3
 13 14  1  0
 11 15  1  0
 15 16  2  3
 16 17  1  0
 17 18  2  0
  4 10  2  0
  9 10  1  0
  8  9  2  0
  7  8  1  0
  3  7  2  0
  1  2  2  0
  2  6  1  0
  5  6  2  0
  4  5  1  0
  3  4  1  0
  1  3  1  0
M  END

$$$$
No_1057-/export/home/yangzhenyu/potential_scad_32_flow//YTHDC2/2024-12-06-03-22-00/
     RDKit          3D

 20 21  0  0  1  0  0  0  0  0999 V2000
    1.1787   -8.0297    3.5154 C   0  0  0  0  0  0  0  0  0  0  0  0
    1.1048   -9.2215    3.2892 C   0  0  0  0  0  0  0  0  0  0  0  0
    1.2339   -9.7611    2.0189 C   0  0  0  0  0  0  0  0  0  0  0  0
    1.4306   -8.9466    1.1170 C   0  0  0  0  0  0  0  0  0  0  0  0
    1.6532   -7.5949    1.1786 C   0  0  0  0  0  0  0  0  0  0  0  0
    1.4973   -7.0739    2.4258 C   0  0  0  0  0  0  0  0  0  0  0  0
    1.4438   -5.6890    2.7316 C   0  0  0  0  0  0  0  0  0  0  0  0
    1.2604  -11.3384    1.8135 C   0  0  0  0  0  0  0  0  0  0  0  0
    0.3127  -11.9796    1.9905 C   0  0  1  0  0  0  0  0  0  0  0  0
   -0.9853  -11.6111    1.9412 C   0  0  0  0  0  0  0  0  0  0  0  0
   -1.7912  -11.5971    2.9147 C   0  0  0  0  0  0  0  0  0  0  0  0
   -3.0683  -11.2528    3.1383 C   0  0  0  0  0  0  0  0  0  0  0  0
   -3.6681  -10.7485    2.0637 C   0  0  0  0  0  0  0  0  0  0  0  0
   -3.0191  -10.6965    0.8492 C   0  0  0  0  0  0  0  0  0  0  0  0
   -1.6813  -11.0373    0.7316 C   0  0  0  0  0  0  0  0  0  0  0  0
    0.5637  -13.3313    2.0780 C   0  0  0  0  0  0  0  0  0  0  0  0
   -0.2787  -14.3565    1.6239 C   0  0  0  0  0  0  0  0  0  0  0  0
   -1.0426  -15.0945    2.4012 C   0  0  0  0  0  0  0  0  0  0  0  0
   -2.3065  -15.5319    2.1568 C   0  0  0  0  0  0  0  0  0  0  0  0
   -2.7501  -15.4324    0.8709 C   0  0  0  0  0  0  0  0  0  0  0  0
  6  7  1  0
  3  8  1  0
  9  8  1  6
  9 10  1  0
  9 16  1  0
 16 17  1  0
 17 18  1  0
 18 19  2  3
 19 20  1  0
  1  2  2  0
  2  3  1  0
  3  4  2  0
  4  5  1  0
  5  6  2  0
  1  6  1  0
 10 11  2  0
 11 12  1  0
 12 13  2  0
 13 14  1  0
 14 15  2  0
 10 15  1  0
M  END

$$$$
No_1058-/export/home/yangzhenyu/potential_scad_32_flow//YTHDC2/2024-12-06-03-22-00/
     RDKit          3D

 17 18  0  0  0  0  0  0  0  0999 V2000
    1.1787   -8.0297    3.5154 C   0  0  0  0  0  0  0  0  0  0  0  0
    1.0491   -6.8434    2.9820 C   0  0  0  0  0  0  0  0  0  0  0  0
    0.0950   -8.8404    3.2292 C   0  0  0  0  0  0  0  0  0  0  0  0
   -0.9173   -8.4596    2.5152 C   0  0  0  0  0  0  0  0  0  0  0  0
   -1.0331   -7.2162    2.0653 C   0  0  0  0  0  0  0  0  0  0  0  0
   -0.0105   -6.3168    2.3081 C   0  0  0  0  0  0  0  0  0  0  0  0
    0.0485   -4.9783    1.8782 C   0  0  0  0  0  0  0  0  0  0  0  0
   -0.4744   -4.1559    2.2381 F   0  0  0  0  0  0  0  0  0  0  0  0
   -0.2523   -5.0408    0.4096 F   0  0  0  0  0  0  0  0  0  0  0  0
    1.3377   -4.4603    1.5924 F   0  0  0  0  0  0  0  0  0  0  0  0
    0.1677  -10.2306    3.7053 C   0  0  0  0  0  0  0  0  0  0  0  0
    0.2595  -11.3236    2.9342 C   0  0  0  0  0  0  0  0  0  0  0  0
    1.1472  -11.8087    2.7247 C   0  0  0  0  0  0  0  0  0  0  0  0
    1.3482  -13.0650    1.9002 C   0  0  0  0  0  0  0  0  0  0  0  0
    0.3930  -13.4855    1.3050 C   0  0  0  0  0  0  0  0  0  0  0  0
   -0.8112  -12.8816    1.3343 C   0  0  0  0  0  0  0  0  0  0  0  0
   -0.9223  -11.7790    2.1369 C   0  0  0  0  0  0  0  0  0  0  0  0
  6  7  1  0
  7  8  1  0
  7  9  1  0
  7 10  1  0
  3 11  1  0
 11 12  1  0
 12 13  2  0
 13 14  1  0
 14 15  2  0
 15 16  1  0
 16 17  2  0
 12 17  1  0
  1  2  2  0
  2  6  1  0
  5  6  2  0
  4  5  1  0
  3  4  2  0
  1  3  1  0
M  END

$$$$
No_1059-/export/home/yangzhenyu/potential_scad_32_flow//YTHDC2/2024-12-06-03-22-00/
     RDKit          3D

 18 19  0  0  1  0  0  0  0  0999 V2000
    1.1787   -8.0297    3.5154 C   0  0  0  0  0  0  0  0  0  0  0  0
    1.0491   -6.8434    2.9820 C   0  0  0  0  0  0  0  0  0  0  0  0
    1.9985   -8.9840    2.8958 C   0  0  2  0  0  0  0  0  0  0  0  0
    1.7297   -9.2108    1.6335 C   0  0  0  0  0  0  0  0  0  0  0  0
    1.7343   -8.0566    0.8408 C   0  0  1  0  0  0  0  0  0  0  0  0
    1.0269   -6.8892    1.4456 C   0  0  0  0  0  0  0  0  0  0  0  0
    2.4114   -7.8399   -0.2028 C   0  0  0  0  0  0  0  0  0  0  0  0
    2.3827  -10.1575    3.6636 C   0  0  0  0  0  0  0  0  0  0  0  0
    1.8579  -11.3287    3.6748 C   0  0  0  0  0  0  0  0  0  0  0  0
    0.6117  -11.4579    3.0765 C   0  0  0  0  0  0  0  0  0  0  0  0
    0.3790  -12.6416    2.3791 C   0  0  0  0  0  0  0  0  0  0  0  0
   -0.9577  -12.6550    1.9296 C   0  0  0  0  0  0  0  0  0  0  0  0
   -1.7698  -11.5900    2.3346 C   0  0  0  0  0  0  0  0  0  0  0  0
   -1.4797  -10.5007    3.0096 C   0  0  0  0  0  0  0  0  0  0  0  0
   -0.1658  -10.4661    3.5741 C   0  0  0  0  0  0  0  0  0  0  0  0
    1.1450  -13.7007    2.1617 C   0  0  0  0  0  0  0  0  0  0  0  0
    0.8492  -14.7243    1.6358 C   0  0  0  0  0  0  0  0  0  0  0  0
   -0.4525  -14.9611    1.3106 C   0  0  0  0  0  0  0  0  0  0  0  0
  1  2  1  0
  3  1  1  1
  3  4  1  0
  4  5  1  0
  2  6  1  0
  5  6  1  0
  5  7  1  1
  3  8  1  0
  8  9  2  3
  9 10  1  0
 11 16  1  0
 16 17  2  3
 17 18  1  0
 10 11  2  0
 11 12  1  0
 12 13  2  0
 13 14  1  0
 14 15  2  0
 10 15  1  0
M  END

$$$$
No_1060-/export/home/yangzhenyu/potential_scad_32_flow//YTHDC2/2024-12-06-03-22-00/
     RDKit          3D

 16 17  0  0  0  0  0  0  0  0999 V2000
    1.1787   -8.0297    3.5154 C   0  0  0  0  0  0  0  0  0  0  0  0
    1.1048   -9.2215    3.2892 C   0  0  0  0  0  0  0  0  0  0  0  0
    1.2339   -9.7611    2.0189 C   0  0  0  0  0  0  0  0  0  0  0  0
    1.3583   -9.0036    0.9764 C   0  0  0  0  0  0  0  0  0  0  0  0
    1.5996   -7.6362    1.1311 C   0  0  0  0  0  0  0  0  0  0  0  0
    1.4830   -7.0928    2.3626 C   0  0  0  0  0  0  0  0  0  0  0  0
    1.1171  -11.3311    1.8661 C   0  0  0  0  0  0  0  0  0  0  0  0
    0.5022  -11.6388    0.6531 C   0  0  0  0  0  0  0  0  0  0  0  0
   -0.4019  -11.0045    0.0890 C   0  0  0  0  0  0  0  0  0  0  0  0
   -1.0458  -11.4180   -1.0838 C   0  0  0  0  0  0  0  0  0  0  0  0
   -2.2045  -11.1746   -1.3389 C   0  0  0  0  0  0  0  0  0  0  0  0
   -2.6782  -11.3403   -2.6320 C   0  0  0  0  0  0  0  0  0  0  0  0
   -3.6474  -10.6448   -3.1306 C   0  0  0  0  0  0  0  0  0  0  0  0
   -4.2680   -9.7563   -2.2476 C   0  0  0  0  0  0  0  0  0  0  0  0
   -3.8527   -9.3603   -1.0816 C   0  0  0  0  0  0  0  0  0  0  0  0
   -2.7264  -10.0815   -0.4930 C   0  0  0  0  0  0  0  0  0  0  0  0
  3  7  1  0
  7  8  1  0
  8  9  2  3
  9 10  1  0
 10 11  1  0
 11 12  2  0
 12 13  1  0
 13 14  2  0
 14 15  1  0
 15 16  2  0
 11 16  1  0
  1  2  2  0
  2  3  1  0
  3  4  2  0
  4  5  1  0
  5  6  2  0
  1  6  1  0
M  END

$$$$
No_1061-/export/home/yangzhenyu/potential_scad_32_flow//YTHDC2/2024-12-06-03-22-00/
     RDKit          3D

 19 21  0  0  1  0  0  0  0  0999 V2000
    1.1787   -8.0297    3.5154 N   0  0  0  0  0  0  0  0  0  0  0  0
    1.0818   -9.0751    3.2053 C   0  0  0  0  0  0  0  0  0  0  0  0
    1.5216  -10.1164    3.9747 C   0  0  0  0  0  0  0  0  0  0  0  0
    1.4420  -11.4363    3.6461 C   0  0  0  0  0  0  0  0  0  0  0  0
    0.5969  -11.7648    2.6785 C   0  0  0  0  0  0  0  0  0  0  0  0
    0.0096  -10.8332    1.9506 C   0  0  0  0  0  0  0  0  0  0  0  0
    0.3359   -9.5186    2.1388 C   0  0  0  0  0  0  0  0  0  0  0  0
    0.8819   -6.9011    2.6487 C   0  0  2  0  0  0  0  0  0  0  0  0
    0.4076   -7.2265    1.4607 N   0  0  0  0  0  0  0  0  0  0  0  0
    0.0633   -8.4448    1.1740 C   0  0  0  0  0  0  0  0  0  0  0  0
   -0.4997   -8.6880    0.0350 O   0  0  0  0  0  0  0  0  0  0  0  0
    1.2867   -5.5457    3.0370 N   0  0  0  0  0  0  0  0  0  0  0  0
    0.3434  -13.1871    2.4008 C   0  0  0  0  0  0  0  0  0  0  0  0
    1.2441  -14.1142    2.7954 C   0  0  0  0  0  0  0  0  0  0  0  0
    0.8552  -15.4905    2.8141 C   0  0  0  0  0  0  0  0  0  0  0  0
   -0.1684  -15.8969    2.2716 C   0  0  0  0  0  0  0  0  0  0  0  0
   -1.0564  -15.0394    1.7758 C   0  0  0  0  0  0  0  0  0  0  0  0
   -0.7668  -13.6265    1.8573 C   0  0  0  0  0  0  0  0  0  0  0  0
   -0.5192  -17.3932    2.0565 C   0  0  0  0  0  0  0  0  0  0  0  0
  1  2  1  0
  8  9  1  0
  7 10  1  0
  9 10  1  0
 10 11  2  0
  8 12  1  6
  5 13  1  0
 16 19  1  0
  1  8  1  0
  2  3  2  0
  3  4  1  0
  4  5  2  0
  5  6  1  0
  6  7  2  0
  2  7  1  0
 13 14  2  0
 14 15  1  0
 15 16  2  0
 16 17  1  0
 17 18  2  0
 13 18  1  0
M  END

$$$$
No_1062-/export/home/yangzhenyu/potential_scad_32_flow//YTHDC2/2024-12-06-03-22-00/
     RDKit          3D

 19 20  0  0  0  0  0  0  0  0999 V2000
    1.1787   -8.0297    3.5154 C   0  0  0  0  0  0  0  0  0  0  0  0
    1.1048   -9.2215    3.2892 C   0  0  0  0  0  0  0  0  0  0  0  0
    1.2339   -9.7611    2.0189 C   0  0  0  0  0  0  0  0  0  0  0  0
    1.3583   -9.0036    0.9764 C   0  0  0  0  0  0  0  0  0  0  0  0
    1.5996   -7.6362    1.1311 C   0  0  0  0  0  0  0  0  0  0  0  0
    1.4830   -7.0928    2.3626 C   0  0  0  0  0  0  0  0  0  0  0  0
    1.5395   -5.7300    2.6182 C   0  0  0  0  0  0  0  0  0  0  0  0
    1.1775  -11.2233    1.8407 C   0  0  0  0  0  0  0  0  0  0  0  0
    0.5085  -11.9762    2.1989 C   0  0  0  0  0  0  0  0  0  0  0  0
    0.4247  -13.3704    2.0465 C   0  0  0  0  0  0  0  0  0  0  0  0
    1.6054  -14.1557    2.4664 C   0  0  0  0  0  0  0  0  0  0  0  0
    1.8317  -15.3638    2.3262 C   0  0  0  0  0  0  0  0  0  0  0  0
    0.9230  -16.1669    1.7304 C   0  0  0  0  0  0  0  0  0  0  0  0
   -0.2162  -15.6318    1.2999 C   0  0  0  0  0  0  0  0  0  0  0  0
   -0.4566  -14.2720    1.4479 C   0  0  0  0  0  0  0  0  0  0  0  0
   -1.7208  -13.7691    1.1495 C   0  0  0  0  0  0  0  0  0  0  0  0
   -2.1781  -12.6738    1.3823 O   0  0  0  0  0  0  0  0  0  0  0  0
   -2.5063  -14.5273    0.3151 N   0  0  0  0  0  0  0  0  0  0  0  0
    1.2970   -4.7971    1.6896 O   0  0  0  0  0  0  0  0  0  0  0  0
  6  7  1  0
  3  8  1  0
  8  9  2  3
  9 10  1  0
 15 16  1  0
 16 17  2  0
 16 18  1  0
  7 19  2  0
  1  2  2  0
  2  3  1  0
  3  4  2  0
  4  5  1  0
  5  6  2  0
  1  6  1  0
 10 11  2  0
 11 12  1  0
 12 13  2  0
 13 14  1  0
 14 15  2  0
 10 15  1  0
M  END

$$$$
No_1063-/export/home/yangzhenyu/potential_scad_32_flow//YTHDC2/2024-12-06-03-22-00/
     RDKit          3D

 16 17  0  0  0  0  0  0  0  0999 V2000
    1.1787   -8.0297    3.5154 C   0  0  0  0  0  0  0  0  0  0  0  0
    1.0491   -6.8434    2.9820 C   0  0  0  0  0  0  0  0  0  0  0  0
    0.0950   -8.8404    3.2292 C   0  0  0  0  0  0  0  0  0  0  0  0
   -0.9173   -8.4596    2.5152 C   0  0  0  0  0  0  0  0  0  0  0  0
   -1.0331   -7.2162    2.0653 C   0  0  0  0  0  0  0  0  0  0  0  0
   -0.0105   -6.3168    2.3081 C   0  0  0  0  0  0  0  0  0  0  0  0
    0.1465  -10.2446    3.6981 C   0  0  0  0  0  0  0  0  0  0  0  0
    1.2433  -10.8239    4.0166 C   0  0  0  0  0  0  0  0  0  0  0  0
    1.6493  -11.8557    3.2298 C   0  0  0  0  0  0  0  0  0  0  0  0
    0.6072  -12.5513    2.5842 C   0  0  0  0  0  0  0  0  0  0  0  0
   -0.6190  -12.0765    2.4890 C   0  0  0  0  0  0  0  0  0  0  0  0
   -0.9051  -10.9138    3.1519 C   0  0  0  0  0  0  0  0  0  0  0  0
    0.9457  -13.8760    2.1195 C   0  0  0  0  0  0  0  0  0  0  0  0
    1.8842  -14.7003    2.4095 C   0  0  0  0  0  0  0  0  0  0  0  0
    1.8108  -15.9477    2.5037 N   0  0  0  0  0  0  0  0  0  0  0  0
    0.5748  -16.3346    2.5977 O   0  0  0  0  0  0  0  0  0  0  0  0
  3  7  1  0
 10 13  1  0
 13 14  1  0
 14 15  1  0
 15 16  2  0
  1  2  2  0
  2  6  1  0
  5  6  2  0
  4  5  1  0
  3  4  2  0
  1  3  1  0
  7  8  2  0
  8  9  1  0
  9 10  2  0
 10 11  1  0
 11 12  2  0
  7 12  1  0
M  END

$$$$
No_1064-/export/home/yangzhenyu/potential_scad_32_flow//YTHDC2/2024-12-06-03-22-00/
     RDKit          3D

 18 19  0  0  1  0  0  0  0  0999 V2000
    1.1787   -8.0297    3.5154 C   0  0  0  0  0  0  0  0  0  0  0  0
    1.0491   -6.8434    2.9820 C   0  0  0  0  0  0  0  0  0  0  0  0
    0.9905   -9.0774    2.6527 C   0  0  0  0  0  0  0  0  0  0  0  0
    0.7897   -8.9519    1.3691 C   0  0  0  0  0  0  0  0  0  0  0  0
    0.7018   -7.7198    0.7892 C   0  0  0  0  0  0  0  0  0  0  0  0
    0.8918   -6.5957    1.6117 C   0  0  0  0  0  0  0  0  0  0  0  0
    1.0600  -10.5680    3.3321 C   0  0  2  0  0  0  0  0  0  0  0  0
   -0.1041  -11.1772    3.5150 N   0  0  0  0  0  0  0  0  0  0  0  0
   -1.2067  -10.4650    3.8326 C   0  0  0  0  0  0  0  0  0  0  0  0
   -2.3987  -10.6502    3.1860 C   0  0  0  0  0  0  0  0  0  0  0  0
   -2.3360  -11.5737    2.0926 C   0  0  0  0  0  0  0  0  0  0  0  0
   -1.2038  -12.3029    1.8297 C   0  0  2  0  0  0  0  0  0  0  0  0
   -0.0393  -12.1000    2.4808 N   0  0  0  0  0  0  0  0  0  0  0  0
    2.2866  -10.8814    3.8112 C   0  0  0  0  0  0  0  0  0  0  0  0
    0.9208   -5.2738    1.1537 O   0  0  0  0  0  0  0  0  0  0  0  0
   -1.1664  -13.2141    0.5739 C   0  0  0  0  0  0  0  0  0  0  0  0
   -0.2240  -14.0591    0.5654 C   0  0  0  0  0  0  0  0  0  0  0  0
   -1.8307  -12.6553   -0.5902 C   0  0  0  0  0  0  0  0  0  0  0  0
  1  2  1  0
  3  4  1  0
  2  6  1  0
  5  6  1  0
  3  7  1  0
  7  8  1  0
  8  9  1  0
 10 11  1  0
  8 13  1  0
 12 13  1  0
  7 14  1  1
  6 15  2  0
 12 16  1  6
 16 17  2  0
 16 18  1  0
  9 10  1  0
 11 12  1  0
  1  3  1  0
  4  5  1  0
M  END

$$$$
No_1065-/export/home/yangzhenyu/potential_scad_32_flow//YTHDC2/2024-12-06-03-22-00/
     RDKit          3D

 19 20  0  0  1  0  0  0  0  0999 V2000
    1.1787   -8.0297    3.5154 C   0  0  0  0  0  0  0  0  0  0  0  0
    1.1048   -9.2215    3.2892 C   0  0  0  0  0  0  0  0  0  0  0  0
    1.2339   -9.7611    2.0189 C   0  0  0  0  0  0  0  0  0  0  0  0
    1.1954  -11.2312    1.8661 C   0  0  0  0  0  0  0  0  0  0  0  0
    1.5546  -12.1691    2.7931 C   0  0  0  0  0  0  0  0  0  0  0  0
    0.5849   -7.0929    2.5729 C   0  0  0  0  0  0  0  0  0  0  0  0
    0.5567   -7.6699    1.1955 C   0  0  0  0  0  0  0  0  0  0  0  0
    0.0649   -6.8296    0.1818 C   0  0  0  0  0  0  0  0  0  0  0  0
    0.8107   -9.0372    0.9151 C   0  0  0  0  0  0  0  0  0  0  0  0
    0.7746  -13.2867    2.9247 C   0  0  2  0  0  0  0  0  0  0  0  0
   -0.4769  -13.0656    2.6426 C   0  0  0  0  0  0  0  0  0  0  0  0
   -0.5781   -5.6762    0.4242 C   0  0  0  0  0  0  0  0  0  0  0  0
   -0.7641  -13.5083    1.4590 C   0  0  0  0  0  0  0  0  0  0  0  0
   -1.8529  -12.9537    0.7176 C   0  0  0  0  0  0  0  0  0  0  0  0
   -2.7569  -12.2044    1.4814 C   0  0  0  0  0  0  0  0  0  0  0  0
   -2.4575  -11.7220    2.7256 C   0  0  0  0  0  0  0  0  0  0  0  0
   -1.2419  -12.1533    3.2816 C   0  0  0  0  0  0  0  0  0  0  0  0
    1.3570  -14.3121    3.5249 C   0  0  0  0  0  0  0  0  0  0  0  0
   -1.2731   -4.9739   -0.6063 C   0  0  0  0  0  0  0  0  0  0  0  0
  3  4  1  0
  4  5  1  0
  7  8  1  0
  5 10  1  0
 10 11  1  0
  8 12  2  3
 10 18  1  1
 12 19  1  0
 11 13  2  0
 13 14  1  0
 14 15  2  0
 15 16  1  0
 16 17  2  0
 11 17  1  0
  1  2  2  0
  2  3  1  0
  3  9  2  0
  7  9  1  0
  6  7  2  0
  1  6  1  0
M  END

$$$$
No_1066-/export/home/yangzhenyu/potential_scad_32_flow//YTHDC2/2024-12-06-03-22-00/
     RDKit          3D

 19 20  0  0  0  0  0  0  0  0999 V2000
    1.1787   -8.0297    3.5154 C   0  0  0  0  0  0  0  0  0  0  0  0
    1.0491   -6.8434    2.9820 C   0  0  0  0  0  0  0  0  0  0  0  0
    1.9985   -8.9840    2.8958 C   0  0  0  0  0  0  0  0  0  0  0  0
    1.7297   -9.2108    1.6335 C   0  0  0  0  0  0  0  0  0  0  0  0
    1.5234   -8.1478    0.8618 C   0  0  0  0  0  0  0  0  0  0  0  0
    1.0558   -6.9632    1.4912 C   0  0  0  0  0  0  0  0  0  0  0  0
    2.2104  -10.4378    3.7113 C   0  0  0  0  0  0  0  0  0  0  0  0
    1.7780  -11.3843    3.7996 N   0  0  0  0  0  0  0  0  0  0  0  0
    0.4906  -11.3901    3.2034 C   0  0  0  0  0  0  0  0  0  0  0  0
   -0.6279  -10.8240    3.6052 C   0  0  0  0  0  0  0  0  0  0  0  0
   -1.8118  -10.9445    3.0967 C   0  0  0  0  0  0  0  0  0  0  0  0
   -1.9826  -11.9890    2.3035 C   0  0  0  0  0  0  0  0  0  0  0  0
   -0.9962  -12.8285    1.9204 C   0  0  0  0  0  0  0  0  0  0  0  0
    0.2922  -12.5545    2.3650 C   0  0  0  0  0  0  0  0  0  0  0  0
    1.3189  -13.4706    2.1293 C   0  0  0  0  0  0  0  0  0  0  0  0
    1.5482  -14.5402    2.9996 O   0  0  0  0  0  0  0  0  0  0  0  0
    2.1584  -13.4004    1.1173 O   0  0  0  0  0  0  0  0  0  0  0  0
    0.8612   -5.6731    3.4895 C   0  0  0  0  0  0  0  0  0  0  0  0
    0.0467   -4.8150    3.1121 O   0  0  0  0  0  0  0  0  0  0  0  0
  3  7  1  0
  7  8  2  3
  8  9  1  0
 14 15  1  0
 15 16  1  0
 15 17  2  0
  2 18  1  0
 18 19  2  0
  1  2  2  0
  2  6  1  0
  5  6  2  0
  4  5  1  0
  3  4  2  0
  1  3  1  0
  9 10  2  0
 10 11  1  0
 11 12  2  0
 12 13  1  0
 13 14  2  0
  9 14  1  0
M  END

$$$$
No_1067-/export/home/yangzhenyu/potential_scad_32_flow//YTHDC2/2024-12-06-03-22-00/
     RDKit          3D

 18 19  0  0  1  0  0  0  0  0999 V2000
    1.1787   -8.0297    3.5154 C   0  0  0  0  0  0  0  0  0  0  0  0
    1.1048   -9.2215    3.2892 C   0  0  0  0  0  0  0  0  0  0  0  0
    1.0239   -9.7790    2.0239 C   0  0  0  0  0  0  0  0  0  0  0  0
    1.1393   -9.0211    0.9686 C   0  0  0  0  0  0  0  0  0  0  0  0
    1.4051   -7.6500    1.1251 C   0  0  0  0  0  0  0  0  0  0  0  0
    1.4868   -7.1041    2.3534 C   0  0  0  0  0  0  0  0  0  0  0  0
    0.9740  -10.2562    4.5561 Cl  0  0  0  0  0  0  0  0  0  0  0  0
    0.8134  -11.3448    1.8620 C   0  0  1  0  0  0  0  0  0  0  0  0
   -0.4912  -11.5723    1.4917 N   0  0  0  0  0  0  0  0  0  0  0  0
   -1.4296  -10.8769    1.3773 C   0  0  0  0  0  0  0  0  0  0  0  0
   -1.6859  -10.4358    0.0540 C   0  0  0  0  0  0  0  0  0  0  0  0
   -2.0743   -9.1153   -0.1370 C   0  0  0  0  0  0  0  0  0  0  0  0
   -2.6550   -8.4410    0.8855 C   0  0  0  0  0  0  0  0  0  0  0  0
   -2.5903   -8.9808    2.2209 C   0  0  0  0  0  0  0  0  0  0  0  0
   -2.0376  -10.2097    2.4259 C   0  0  0  0  0  0  0  0  0  0  0  0
    1.8176  -12.0778    1.7691 C   0  0  0  0  0  0  0  0  0  0  0  0
    1.6685  -13.4071    1.3863 C   0  0  0  0  0  0  0  0  0  0  0  0
    0.3876  -13.8054    1.0571 C   0  0  0  0  0  0  0  0  0  0  0  0
  2  7  1  0
  3  8  1  0
  8  9  1  6
  9 10  1  0
  8 16  1  0
 16 17  2  3
 17 18  1  0
  1  2  2  0
  2  3  1  0
  3  4  2  0
  4  5  1  0
  5  6  2  0
  1  6  1  0
 10 11  2  0
 11 12  1  0
 12 13  2  0
 13 14  1  0
 14 15  2  0
 10 15  1  0
M  END

$$$$
No_1068-/export/home/yangzhenyu/potential_scad_32_flow//YTHDC2/2024-12-06-03-22-00/
     RDKit          3D

 20 21  0  0  0  0  0  0  0  0999 V2000
    1.1787   -8.0297    3.5154 C   0  0  0  0  0  0  0  0  0  0  0  0
    1.1048   -9.2215    3.2892 C   0  0  0  0  0  0  0  0  0  0  0  0
    1.2339   -9.7611    2.0189 C   0  0  0  0  0  0  0  0  0  0  0  0
    1.4306   -8.9466    1.1170 C   0  0  0  0  0  0  0  0  0  0  0  0
    1.6532   -7.5949    1.1786 C   0  0  0  0  0  0  0  0  0  0  0  0
    1.4973   -7.0739    2.4258 C   0  0  0  0  0  0  0  0  0  0  0  0
    1.5178   -5.6803    2.7303 C   0  0  0  0  0  0  0  0  0  0  0  0
    1.2440  -11.1950    1.8087 C   0  0  0  0  0  0  0  0  0  0  0  0
    0.5620  -11.9152    2.1214 C   0  0  0  0  0  0  0  0  0  0  0  0
    0.5288  -13.3590    1.9065 C   0  0  0  0  0  0  0  0  0  0  0  0
    1.7226  -14.1101    2.0569 C   0  0  0  0  0  0  0  0  0  0  0  0
    1.7365  -15.4273    2.4784 C   0  0  0  0  0  0  0  0  0  0  0  0
    0.5996  -16.0835    2.6718 C   0  0  0  0  0  0  0  0  0  0  0  0
   -0.6123  -15.4223    2.5701 C   0  0  0  0  0  0  0  0  0  0  0  0
   -0.6310  -14.0741    2.3162 C   0  0  0  0  0  0  0  0  0  0  0  0
    1.6762   -5.1538    3.9881 N   0  0  0  0  0  0  0  0  0  0  0  0
    1.4003   -4.7782    1.6863 C   0  0  0  0  0  0  0  0  0  0  0  0
    1.3982   -3.4376    1.9066 C   0  0  0  0  0  0  0  0  0  0  0  0
    1.6482   -3.0095    3.2381 Cl  0  0  0  0  0  0  0  0  0  0  0  0
    1.7771   -5.7679    4.7836 H   0  0  0  0  0  0  0  0  0  0  0  0
  6  7  1  0
  3  8  1  0
  8  9  2  3
  9 10  1  0
  7 16  2  0
  7 17  1  0
 17 18  2  3
 18 19  1  0
  1  2  2  0
  2  3  1  0
  3  4  2  0
  4  5  1  0
  5  6  2  0
  1  6  1  0
 10 11  2  0
 11 12  1  0
 12 13  2  0
 13 14  1  0
 14 15  2  0
 10 15  1  0
 16 20  1  0
M  END

$$$$
No_1069-/export/home/yangzhenyu/potential_scad_32_flow//YTHDC2/2024-12-06-03-22-00/
     RDKit          3D

 15 15  0  0  0  0  0  0  0  0999 V2000
    1.1787   -8.0297    3.5154 C   0  0  0  0  0  0  0  0  0  0  0  0
    1.1048   -9.2215    3.2892 C   0  0  0  0  0  0  0  0  0  0  0  0
    1.2339   -9.7611    2.0189 C   0  0  0  0  0  0  0  0  0  0  0  0
    1.3583   -9.0036    0.9764 C   0  0  0  0  0  0  0  0  0  0  0  0
    1.5996   -7.6362    1.1311 C   0  0  0  0  0  0  0  0  0  0  0  0
    1.4830   -7.0928    2.3626 C   0  0  0  0  0  0  0  0  0  0  0  0
    1.5395   -5.7300    2.6182 C   0  0  0  0  0  0  0  0  0  0  0  0
    1.1969  -11.3760    1.8433 C   0  0  0  0  0  0  0  0  0  0  0  0
    1.0771  -11.6644    0.5388 O   0  0  0  0  0  0  0  0  0  0  0  0
    1.8156  -12.0496    2.6758 N   0  0  0  0  0  0  0  0  0  0  0  0
    1.7794  -13.4327    2.5814 C   0  0  0  0  0  0  0  0  0  0  0  0
    0.7291  -14.1798    3.3158 C   0  0  0  0  0  0  0  0  0  0  0  0
    0.8561  -15.5800    3.1453 C   0  0  0  0  0  0  0  0  0  0  0  0
    1.9446  -16.1660    2.5561 C   0  0  0  0  0  0  0  0  0  0  0  0
    2.9594  -15.3187    1.8563 C   0  0  0  0  0  0  0  0  0  0  0  0
  6  7  1  0
  3  8  1  0
  8  9  2  0
  8 10  1  0
 10 11  1  0
 11 12  1  0
 12 13  2  3
 13 14  1  0
 14 15  2  0
  1  2  2  0
  2  3  1  0
  3  4  2  0
  4  5  1  0
  5  6  2  0
  1  6  1  0
M  END

$$$$
No_1070-/export/home/yangzhenyu/potential_scad_32_flow//YTHDC2/2024-12-06-03-22-00/
     RDKit          3D

 20 21  0  0  0  0  0  0  0  0999 V2000
    1.1787   -8.0297    3.5154 C   0  0  0  0  0  0  0  0  0  0  0  0
    1.1048   -9.2215    3.2892 C   0  0  0  0  0  0  0  0  0  0  0  0
    1.2339   -9.7611    2.0189 C   0  0  0  0  0  0  0  0  0  0  0  0
    1.3583   -9.0036    0.9764 C   0  0  0  0  0  0  0  0  0  0  0  0
    1.5996   -7.6362    1.1311 C   0  0  0  0  0  0  0  0  0  0  0  0
    1.4830   -7.0928    2.3626 C   0  0  0  0  0  0  0  0  0  0  0  0
    1.1008  -11.2372    1.8542 C   0  0  0  0  0  0  0  0  0  0  0  0
    1.9749  -12.0938    2.2342 C   0  0  0  0  0  0  0  0  0  0  0  0
    1.7533  -13.4231    1.8956 C   0  0  0  0  0  0  0  0  0  0  0  0
    0.8624  -13.8318    1.1071 C   0  0  0  0  0  0  0  0  0  0  0  0
   -0.0624  -12.9093    0.5581 C   0  0  0  0  0  0  0  0  0  0  0  0
    0.1157  -11.5285    0.9404 C   0  0  0  0  0  0  0  0  0  0  0  0
    1.5746   -5.4311    2.6997 C   0  0  0  0  0  0  0  0  0  0  0  0
   -0.8288  -10.6302    0.4913 C   0  0  0  0  0  0  0  0  0  0  0  0
   -1.9250  -10.3260    1.3326 O   0  0  0  0  0  0  0  0  0  0  0  0
   -0.9151  -10.1052   -0.7123 O   0  0  0  0  0  0  0  0  0  0  0  0
    1.1231   -4.8380    1.6901 O   0  0  0  0  0  0  0  0  0  0  0  0
    1.8499   -5.0453    3.7362 O   0  0  0  0  0  0  0  0  0  0  0  0
    2.7390  -14.4432    2.3577 C   0  0  0  0  0  0  0  0  0  0  0  0
    2.7497  -15.6284    1.7952 N   0  0  0  0  0  0  0  0  0  0  0  0
  3  7  1  0
  6 13  1  0
 12 14  1  0
 14 15  1  0
 14 16  2  0
 13 17  2  0
 13 18  1  0
  9 19  1  0
 19 20  1  0
  1  2  2  0
  2  3  1  0
  3  4  2  0
  4  5  1  0
  5  6  2  0
  1  6  1  0
  7  8  2  0
  8  9  1  0
  9 10  2  0
 10 11  1  0
 11 12  2  0
  7 12  1  0
M  END

$$$$
No_1071-/export/home/yangzhenyu/potential_scad_32_flow//YTHDC2/2024-12-06-03-22-00/
     RDKit          3D

 18 20  0  0  1  0  0  0  0  0999 V2000
    1.1787   -8.0297    3.5154 C   0  0  0  0  0  0  0  0  0  0  0  0
    1.1048   -9.2215    3.2892 C   0  0  0  0  0  0  0  0  0  0  0  0
    1.3627  -10.1721    4.3044 C   0  0  0  0  0  0  0  0  0  0  0  0
    1.0682  -11.5187    4.0618 C   0  0  0  0  0  0  0  0  0  0  0  0
    0.6332  -11.9655    2.9682 C   0  0  0  0  0  0  0  0  0  0  0  0
    0.4719  -13.4293    2.7591 C   0  0  0  0  0  0  0  0  0  0  0  0
   -0.2373  -13.9045    1.9156 C   0  0  0  0  0  0  0  0  0  0  0  0
   -0.6874  -13.0854    0.9071 C   0  0  0  0  0  0  0  0  0  0  0  0
   -0.6225  -11.7618    0.9866 C   0  0  0  0  0  0  0  0  0  0  0  0
    0.1549  -11.1806    2.0058 C   0  0  0  0  0  0  0  0  0  0  0  0
    0.5344   -9.8626    2.0972 C   0  0  0  0  0  0  0  0  0  0  0  0
    1.0510   -7.0036    2.6715 C   0  0  2  0  0  0  0  0  0  0  0  0
    0.8030   -7.3919    1.2967 C   0  0  0  0  0  0  0  0  0  0  0  0
    0.4830   -8.7005    1.0367 C   0  0  0  0  0  0  0  0  0  0  0  0
    0.1523   -9.0348   -0.1819 F   0  0  0  0  0  0  0  0  0  0  0  0
    0.6945   -6.5535    0.3671 O   0  0  0  0  0  0  0  0  0  0  0  0
    1.4533   -5.5294    2.9603 C   0  0  0  0  0  0  0  0  0  0  0  0
    0.9028  -14.3381    3.8194 O   0  0  0  0  0  0  0  0  0  0  0  0
  1  2  1  0
 12 13  1  0
 11 14  1  0
 13 14  1  0
 14 15  1  0
 13 16  2  0
 12 17  1  6
  6 18  1  0
  1 12  1  0
  2  3  2  0
  3  4  1  0
  4  5  2  0
 10 11  2  0
  2 11  1  0
  5  6  1  0
  6  7  2  0
  7  8  1  0
  8  9  2  0
  9 10  1  0
  5 10  1  0
M  END

$$$$
No_1072-/export/home/yangzhenyu/potential_scad_32_flow//YTHDC2/2024-12-06-03-22-00/
     RDKit          3D

 20 21  0  0  1  0  0  0  0  0999 V2000
    1.1787   -8.0297    3.5154 C   0  0  0  0  0  0  0  0  0  0  0  0
    1.0491   -6.8434    2.9820 C   0  0  0  0  0  0  0  0  0  0  0  0
    0.9905   -9.0774    2.6527 C   0  0  0  0  0  0  0  0  0  0  0  0
    0.7897   -8.9519    1.3691 C   0  0  0  0  0  0  0  0  0  0  0  0
    0.7018   -7.7198    0.7892 C   0  0  0  0  0  0  0  0  0  0  0  0
    0.8918   -6.5957    1.6117 C   0  0  0  0  0  0  0  0  0  0  0  0
    1.0711  -10.4814    3.2282 C   0  0  2  0  0  0  0  0  0  0  0  0
   -0.1055  -11.1328    3.5223 C   0  0  0  0  0  0  0  0  0  0  0  0
   -1.2061  -10.3495    3.8837 C   0  0  0  0  0  0  0  0  0  0  0  0
   -2.3575  -10.4930    3.2158 C   0  0  0  0  0  0  0  0  0  0  0  0
   -2.5329  -11.5833    2.4432 C   0  0  0  0  0  0  0  0  0  0  0  0
   -1.5078  -12.4581    2.2194 C   0  0  0  0  0  0  0  0  0  0  0  0
   -0.2392  -12.2464    2.6862 C   0  0  0  0  0  0  0  0  0  0  0  0
    2.3222  -10.9127    3.4479 C   0  0  0  0  0  0  0  0  0  0  0  0
    2.6210  -11.5535    4.6166 N   0  0  0  0  0  0  0  0  0  0  0  0
    0.8820   -5.3031    1.0767 O   0  0  0  0  0  0  0  0  0  0  0  0
    0.7723  -13.1138    2.5438 C   0  0  0  0  0  0  0  0  0  0  0  0
    1.2835  -13.5859    1.5762 C   0  0  0  0  0  0  0  0  0  0  0  0
    2.3908  -14.5393    1.4984 N   0  0  0  0  0  0  0  0  0  0  0  0
    1.9016  -11.7005    5.3101 H   0  0  0  0  0  0  0  0  0  0  0  0
  7  3  1  1
  7  8  1  0
  7 14  1  0
 14 15  2  0
  6 16  1  0
 13 17  1  0
 17 18  2  3
 18 19  1  0
  1  2  2  0
  2  6  1  0
  5  6  2  0
  4  5  1  0
  3  4  2  0
  1  3  1  0
  8  9  2  0
  9 10  1  0
 10 11  2  0
 11 12  1  0
 12 13  2  0
  8 13  1  0
 15 20  1  0
M  END

$$$$
No_1073-/export/home/yangzhenyu/potential_scad_32_flow//YTHDC2/2024-12-06-03-22-00/
     RDKit          3D

 19 20  0  0  1  0  0  0  0  0999 V2000
    1.1787   -8.0297    3.5154 N   0  0  0  0  0  0  0  0  0  0  0  0
    1.0818   -9.0751    3.2053 C   0  0  0  0  0  0  0  0  0  0  0  0
    1.5216  -10.1164    3.9747 C   0  0  0  0  0  0  0  0  0  0  0  0
    1.4823  -11.4258    3.6006 C   0  0  0  0  0  0  0  0  0  0  0  0
    0.7594  -11.7488    2.5365 C   0  0  0  0  0  0  0  0  0  0  0  0
    0.1491  -10.4433    1.9749 C   0  0  0  0  0  0  0  0  0  0  0  0
    0.3848   -9.3922    2.1760 C   0  0  0  0  0  0  0  0  0  0  0  0
   -0.1994   -8.3193    1.5808 C   0  0  1  0  0  0  0  0  0  0  0  0
    0.5556   -7.1797    2.5232 C   0  0  2  0  0  0  0  0  0  0  0  0
    1.1020   -5.9177    2.0051 C   0  0  0  0  0  0  0  0  0  0  0  0
    0.3208   -4.8092    1.8019 N   0  0  0  0  0  0  0  0  0  0  0  0
   -0.7400   -7.9192    0.5843 C   0  0  0  0  0  0  0  0  0  0  0  0
   -0.3323   -8.3969   -0.6342 O   0  0  0  0  0  0  0  0  0  0  0  0
   -1.7428   -6.9711    0.4292 O   0  0  0  0  0  0  0  0  0  0  0  0
    0.4972  -13.0474    2.0540 C   0  0  0  0  0  0  0  0  0  0  0  0
    1.4848  -13.9103    2.0927 C   0  0  0  0  0  0  0  0  0  0  0  0
    1.2984  -15.1634    1.8550 C   0  0  0  0  0  0  0  0  0  0  0  0
    0.0700  -15.6626    1.5532 C   0  0  0  0  0  0  0  0  0  0  0  0
   -1.0106  -14.8656    1.7348 C   0  0  0  0  0  0  0  0  0  0  0  0
  1  2  1  0
  7  8  1  0
  1  9  1  0
  8  9  1  0
  9 10  1  6
 10 11  1  0
  8 12  1  6
 12 13  2  0
 12 14  1  0
  5 15  1  0
 15 16  1  0
 16 17  2  3
 17 18  1  0
 18 19  2  0
  2  3  2  0
  3  4  1  0
  4  5  2  0
  5  6  1  0
  6  7  2  0
  2  7  1  0
M  END

$$$$
No_1074-/export/home/yangzhenyu/potential_scad_32_flow//YTHDC2/2024-12-06-03-22-00/
     RDKit          3D

 17 18  0  0  0  0  0  0  0  0999 V2000
    1.1787   -8.0297    3.5154 C   0  0  0  0  0  0  0  0  0  0  0  0
    1.1048   -9.2215    3.2892 C   0  0  0  0  0  0  0  0  0  0  0  0
    1.2339   -9.7611    2.0189 C   0  0  0  0  0  0  0  0  0  0  0  0
    1.3583   -9.0036    0.9764 C   0  0  0  0  0  0  0  0  0  0  0  0
    1.5996   -7.6362    1.1311 C   0  0  0  0  0  0  0  0  0  0  0  0
    1.4830   -7.0928    2.3626 C   0  0  0  0  0  0  0  0  0  0  0  0
    1.1008  -11.2372    1.8542 C   0  0  0  0  0  0  0  0  0  0  0  0
    0.5178  -11.9759    2.3445 C   0  0  0  0  0  0  0  0  0  0  0  0
    0.4575  -13.3705    2.1281 C   0  0  0  0  0  0  0  0  0  0  0  0
    1.1632  -14.1013    2.0451 C   0  0  0  0  0  0  0  0  0  0  0  0
    2.4646  -13.5566    1.4445 C   0  0  0  0  0  0  0  0  0  0  0  0
    1.4828  -15.3910    2.7611 C   0  0  0  0  0  0  0  0  0  0  0  0
    2.4533  -16.2590    2.4653 C   0  0  0  0  0  0  0  0  0  0  0  0
    2.3940  -17.5787    2.8454 C   0  0  0  0  0  0  0  0  0  0  0  0
    1.5027  -17.9402    3.7535 C   0  0  0  0  0  0  0  0  0  0  0  0
    0.5128  -17.0617    4.2083 C   0  0  0  0  0  0  0  0  0  0  0  0
    0.4980  -15.8240    3.7264 C   0  0  0  0  0  0  0  0  0  0  0  0
  3  7  1  0
  7  8  2  3
  8  9  1  0
  9 10  2  3
 10 11  1  0
 10 12  1  0
 12 13  2  0
 13 14  1  0
 14 15  2  0
 15 16  1  0
 16 17  2  0
 12 17  1  0
  1  2  2  0
  2  3  1  0
  3  4  2  0
  4  5  1  0
  5  6  2  0
  1  6  1  0
M  END

$$$$
No_1075-/export/home/yangzhenyu/potential_scad_32_flow//YTHDC2/2024-12-06-03-22-00/
     RDKit          3D

 15 16  0  0  0  0  0  0  0  0999 V2000
    1.1787   -8.0297    3.5154 C   0  0  0  0  0  0  0  0  0  0  0  0
    1.0491   -6.8434    2.9820 N   0  0  0  0  0  0  0  0  0  0  0  0
    1.0164   -9.0814    2.6596 C   0  0  0  0  0  0  0  0  0  0  0  0
    1.2104  -10.4315    3.1393 C   0  0  0  0  0  0  0  0  0  0  0  0
    1.2712  -11.4473    2.5418 C   0  0  0  0  0  0  0  0  0  0  0  0
    1.0698  -11.4099    1.1312 C   0  0  0  0  0  0  0  0  0  0  0  0
    0.9783  -10.2502    0.4880 C   0  0  0  0  0  0  0  0  0  0  0  0
    0.9320   -9.0325    1.2555 C   0  0  0  0  0  0  0  0  0  0  0  0
    0.9683   -7.7454    0.7440 C   0  0  0  0  0  0  0  0  0  0  0  0
    1.0404   -6.6739    1.6365 C   0  0  0  0  0  0  0  0  0  0  0  0
    0.9977   -5.3812    1.1429 O   0  0  0  0  0  0  0  0  0  0  0  0
    1.4408  -12.7717    3.0964 C   0  0  0  0  0  0  0  0  0  0  0  0
    2.4802  -13.4420    3.0593 C   0  0  0  0  0  0  0  0  0  0  0  0
    2.4024  -14.7085    2.3274 N   0  0  0  0  0  0  0  0  0  0  0  0
    1.3713  -15.4830    2.4250 O   0  0  0  0  0  0  0  0  0  0  0  0
  1  2  1  0
  8  9  1  0
  2 10  1  0
  9 10  1  0
 10 11  2  0
  5 12  1  0
 12 13  1  0
 13 14  1  0
 14 15  2  0
  1  3  1  0
  3  4  2  0
  4  5  1  0
  5  6  2  0
  6  7  1  0
  7  8  2  0
  3  8  1  0
M  END

$$$$
No_1076-/export/home/yangzhenyu/potential_scad_32_flow//YTHDC2/2024-12-06-03-22-00/
     RDKit          3D

 19 21  0  0  0  0  0  0  0  0999 V2000
    1.1787   -8.0297    3.5154 C   0  0  0  0  0  0  0  0  0  0  0  0
    1.1048   -9.2215    3.2892 C   0  0  0  0  0  0  0  0  0  0  0  0
    1.3627  -10.1721    4.3044 C   0  0  0  0  0  0  0  0  0  0  0  0
    1.0682  -11.5187    4.0618 C   0  0  0  0  0  0  0  0  0  0  0  0
    0.6332  -11.9655    2.9682 C   0  0  0  0  0  0  0  0  0  0  0  0
    0.4776  -11.1308    1.9203 C   0  0  0  0  0  0  0  0  0  0  0  0
    0.7470   -9.8274    2.0368 C   0  0  0  0  0  0  0  0  0  0  0  0
    1.0387   -7.0301    2.5175 C   0  0  0  0  0  0  0  0  0  0  0  0
    0.9130   -7.5288    1.2013 C   0  0  0  0  0  0  0  0  0  0  0  0
    0.7893   -8.7979    0.9542 C   0  0  0  0  0  0  0  0  0  0  0  0
    0.5241   -9.2578   -0.2817 C   0  0  0  0  0  0  0  0  0  0  0  0
    1.2450   -9.2169   -1.2769 O   0  0  0  0  0  0  0  0  0  0  0  0
   -0.8705   -9.3448   -0.6392 N   0  0  0  0  0  0  0  0  0  0  0  0
    0.5226  -13.3817    2.7091 C   0  0  0  0  0  0  0  0  0  0  0  0
    1.5157  -14.3219    3.2215 C   0  0  0  0  0  0  0  0  0  0  0  0
    1.2416  -15.6708    2.9961 C   0  0  0  0  0  0  0  0  0  0  0  0
    0.3745  -16.1261    2.2253 C   0  0  0  0  0  0  0  0  0  0  0  0
   -0.4993  -15.2814    1.6284 C   0  0  0  0  0  0  0  0  0  0  0  0
   -0.3478  -13.9194    1.8540 C   0  0  0  0  0  0  0  0  0  0  0  0
 10 11  1  0
 11 12  2  0
 11 13  1  0
  5 14  1  0
  2  3  1  0
  3  4  2  0
  4  5  1  0
  5  6  2  0
  6  7  1  0
  1  2  2  0
  2  7  1  0
  7 10  2  0
  9 10  1  0
  8  9  2  0
  1  8  1  0
 14 15  2  0
 15 16  1  0
 16 17  2  0
 17 18  1  0
 18 19  2  0
 14 19  1  0
M  END

$$$$
No_1077-/export/home/yangzhenyu/potential_scad_32_flow//YTHDC2/2024-12-06-03-22-00/
     RDKit          3D

 19 20  0  0  0  0  0  0  0  0999 V2000
    1.1787   -8.0297    3.5154 C   0  0  0  0  0  0  0  0  0  0  0  0
    1.0491   -6.8434    2.9820 C   0  0  0  0  0  0  0  0  0  0  0  0
    0.9905   -9.0774    2.6527 C   0  0  0  0  0  0  0  0  0  0  0  0
    0.7897   -8.9519    1.3691 C   0  0  0  0  0  0  0  0  0  0  0  0
    0.7018   -7.7198    0.7892 C   0  0  0  0  0  0  0  0  0  0  0  0
    0.8918   -6.5957    1.6117 C   0  0  0  0  0  0  0  0  0  0  0  0
    1.0600  -10.5680    3.3321 C   0  0  0  0  0  0  0  0  0  0  0  0
    2.1422  -11.0089    3.6867 C   0  0  0  0  0  0  0  0  0  0  0  0
    0.8608   -5.2505    1.2071 C   0  0  0  0  0  0  0  0  0  0  0  0
   -0.0563  -11.2194    3.4640 C   0  0  0  0  0  0  0  0  0  0  0  0
   -0.8467  -11.3874    2.5653 C   0  0  0  0  0  0  0  0  0  0  0  0
    2.5164  -12.2234    3.6622 N   0  0  0  0  0  0  0  0  0  0  0  0
    0.1808   -4.3055    2.0175 O   0  0  0  0  0  0  0  0  0  0  0  0
   -0.4988  -11.6128    1.2558 C   0  0  0  0  0  0  0  0  0  0  0  0
    0.5745  -12.5874    1.0374 C   0  0  0  0  0  0  0  0  0  0  0  0
    1.3697  -13.3876    1.8287 C   0  0  0  0  0  0  0  0  0  0  0  0
    2.5426  -13.0648    2.4761 C   0  0  0  0  0  0  0  0  0  0  0  0
   -1.0326   -3.9634    1.5284 C   0  0  0  0  0  0  0  0  0  0  0  0
   -1.7630   -3.3366    2.2468 C   0  0  0  0  0  0  0  0  0  0  0  0
  3  7  1  0
  7  8  1  0
  6  9  1  0
  7 10  1  0
 10 11  2  3
  8 12  2  3
  9 13  1  0
 11 14  1  0
 14 15  1  0
 15 16  1  0
 12 17  1  0
 16 17  1  0
 13 18  1  0
 18 19  1  0
  1  2  2  0
  2  6  1  0
  5  6  2  0
  4  5  1  0
  3  4  2  0
  1  3  1  0
M  END

$$$$
No_1078-/export/home/yangzhenyu/potential_scad_32_flow//YTHDC2/2024-12-06-03-22-00/
     RDKit          3D

 19 19  0  0  1  0  0  0  0  0999 V2000
    1.1787   -8.0297    3.5154 C   0  0  0  0  0  0  0  0  0  0  0  0
    1.0491   -6.8434    2.9820 C   0  0  0  0  0  0  0  0  0  0  0  0
    0.9905   -9.0774    2.6527 C   0  0  0  0  0  0  0  0  0  0  0  0
    0.7897   -8.9519    1.3691 C   0  0  0  0  0  0  0  0  0  0  0  0
    0.7018   -7.7198    0.7892 C   0  0  0  0  0  0  0  0  0  0  0  0
    0.8918   -6.5957    1.6117 C   0  0  0  0  0  0  0  0  0  0  0  0
    1.0998  -10.4710    3.2437 C   0  0  1  0  0  0  0  0  0  0  0  0
    2.1917  -10.8879    3.7399 C   0  0  0  0  0  0  0  0  0  0  0  0
    0.8983   -5.2566    1.2088 C   0  0  0  0  0  0  0  0  0  0  0  0
   -0.0163  -11.2298    3.3739 C   0  0  2  0  0  0  0  0  0  0  0  0
   -1.1391  -10.5481    3.9500 C   0  0  0  0  0  0  0  0  0  0  0  0
   -0.9353   -9.7877    5.1904 C   0  0  0  0  0  0  0  0  0  0  0  0
   -2.0728   -8.9326    5.5062 F   0  0  0  0  0  0  0  0  0  0  0  0
   -0.1975   -4.7371    0.7311 O   0  0  0  0  0  0  0  0  0  0  0  0
    1.7791   -4.3292    1.6554 O   0  0  0  0  0  0  0  0  0  0  0  0
    2.4079  -11.7633    4.6719 Cl  0  0  0  0  0  0  0  0  0  0  0  0
    0.0626  -12.4908    3.3125 C   0  0  0  0  0  0  0  0  0  0  0  0
    0.9129  -13.3002    3.2595 N   0  0  0  0  0  0  0  0  0  0  0  0
   -1.2295  -13.0343    2.9379 O   0  0  0  0  0  0  0  0  0  0  0  0
  3  7  1  0
  7  8  1  1
  6  9  1  0
  7 10  1  0
 10 11  1  1
 11 12  1  0
 12 13  1  0
  9 14  2  0
  9 15  1  0
  8 16  1  0
 10 17  1  0
 17 18  1  0
 17 19  2  0
  1  2  2  0
  2  6  1  0
  5  6  2  0
  4  5  1  0
  3  4  2  0
  1  3  1  0
M  END

$$$$
No_1079-/export/home/yangzhenyu/potential_scad_32_flow//YTHDC2/2024-12-06-03-22-00/
     RDKit          3D

 17 18  0  0  0  0  0  0  0  0999 V2000
    1.1787   -8.0297    3.5154 C   0  0  0  0  0  0  0  0  0  0  0  0
    1.0491   -6.8434    2.9820 C   0  0  0  0  0  0  0  0  0  0  0  0
    0.0950   -8.8404    3.2292 C   0  0  0  0  0  0  0  0  0  0  0  0
   -0.9173   -8.4596    2.5152 C   0  0  0  0  0  0  0  0  0  0  0  0
   -1.0331   -7.2162    2.0653 C   0  0  0  0  0  0  0  0  0  0  0  0
   -0.0105   -6.3168    2.3081 C   0  0  0  0  0  0  0  0  0  0  0  0
    0.1465  -10.2446    3.6981 N   0  0  0  0  0  0  0  0  0  0  0  0
   -0.9862  -10.8490    3.9659 C   0  0  0  0  0  0  0  0  0  0  0  0
    1.3844  -10.9791    3.7219 C   0  0  0  0  0  0  0  0  0  0  0  0
    1.5801  -11.8417    2.8144 C   0  0  0  0  0  0  0  0  0  0  0  0
    1.6828  -13.1743    3.1388 C   0  0  0  0  0  0  0  0  0  0  0  0
    1.1391  -14.1370    2.1387 C   0  0  0  0  0  0  0  0  0  0  0  0
    1.4084  -15.3990    2.2271 C   0  0  0  0  0  0  0  0  0  0  0  0
    0.6724  -16.3265    1.7660 C   0  0  0  0  0  0  0  0  0  0  0  0
   -0.1997  -16.0821    0.8446 C   0  0  0  0  0  0  0  0  0  0  0  0
   -0.4848  -14.7363    0.5707 C   0  0  0  0  0  0  0  0  0  0  0  0
    0.1131  -13.7261    1.3391 C   0  0  0  0  0  0  0  0  0  0  0  0
  3  7  1  0
  7  8  1  0
  7  9  1  0
  9 10  1  0
 10 11  1  0
 11 12  1  0
 12 13  2  0
 13 14  1  0
 14 15  2  0
 15 16  1  0
 16 17  2  0
 12 17  1  0
  1  2  2  0
  2  6  1  0
  5  6  2  0
  4  5  1  0
  3  4  2  0
  1  3  1  0
M  END

$$$$
No_1080-/export/home/yangzhenyu/potential_scad_32_flow//YTHDC2/2024-12-06-03-22-00/
     RDKit          3D

 20 21  0  0  0  0  0  0  0  0999 V2000
    1.1787   -8.0297    3.5154 O   0  0  0  0  0  0  0  0  0  0  0  0
    0.9969   -8.9689    3.0048 C   0  0  0  0  0  0  0  0  0  0  0  0
    1.3055  -10.1056    3.6616 C   0  0  0  0  0  0  0  0  0  0  0  0
    1.1249  -11.3503    3.0941 C   0  0  0  0  0  0  0  0  0  0  0  0
    0.6932  -11.4484    1.8586 C   0  0  0  0  0  0  0  0  0  0  0  0
    0.5498  -10.3736    1.0579 C   0  0  0  0  0  0  0  0  0  0  0  0
    0.7643   -9.1185    1.6383 C   0  0  0  0  0  0  0  0  0  0  0  0
    0.5937   -7.8467    1.0482 C   0  0  0  0  0  0  0  0  0  0  0  0
    1.5294   -7.0230    1.0749 O   0  0  0  0  0  0  0  0  0  0  0  0
   -0.3798   -7.6033    0.1974 O   0  0  0  0  0  0  0  0  0  0  0  0
    1.1836  -12.6460    3.8341 O   0  0  0  0  0  0  0  0  0  0  0  0
    0.4906  -12.7032    1.1044 C   0  0  0  0  0  0  0  0  0  0  0  0
    1.6503  -13.6383    1.0678 C   0  0  0  0  0  0  0  0  0  0  0  0
    1.4596  -14.9719    0.8654 C   0  0  0  0  0  0  0  0  0  0  0  0
    0.2847  -15.3483    0.5238 C   0  0  0  0  0  0  0  0  0  0  0  0
   -0.7816  -14.5579    0.3260 C   0  0  0  0  0  0  0  0  0  0  0  0
   -0.5879  -13.2060    0.6202 C   0  0  0  0  0  0  0  0  0  0  0  0
   -1.7296  -12.3730    0.4771 C   0  0  0  0  0  0  0  0  0  0  0  0
   -1.9532  -11.7832   -0.7796 O   0  0  0  0  0  0  0  0  0  0  0  0
   -2.3737  -11.8431    1.4225 O   0  0  0  0  0  0  0  0  0  0  0  0
  1  2  1  0
  7  8  1  0
  8  9  2  0
  8 10  1  0
  4 11  1  0
  5 12  1  0
 17 18  1  0
 18 19  2  0
 18 20  1  0
 12 13  2  0
 13 14  1  0
 14 15  2  0
 15 16  1  0
 16 17  2  0
 12 17  1  0
  2  3  2  0
  3  4  1  0
  4  5  2  0
  5  6  1  0
  6  7  2  0
  2  7  1  0
M  END

$$$$
No_1081-/export/home/yangzhenyu/potential_scad_32_flow//YTHDC2/2024-12-06-03-22-00/
     RDKit          3D

 18 19  0  0  1  0  0  0  0  0999 V2000
    1.1787   -8.0297    3.5154 C   0  0  0  0  0  0  0  0  0  0  0  0
    1.1048   -9.2215    3.2892 N   0  0  0  0  0  0  0  0  0  0  0  0
    1.0346   -9.7785    2.1176 C   0  0  0  0  0  0  0  0  0  0  0  0
    1.2597   -9.0826    1.0431 C   0  0  0  0  0  0  0  0  0  0  0  0
    1.5530   -7.7656    1.0977 C   0  0  0  0  0  0  0  0  0  0  0  0
    1.5300   -7.1323    2.3379 C   0  0  0  0  0  0  0  0  0  0  0  0
    1.6813   -5.7666    2.5762 C   0  0  0  0  0  0  0  0  0  0  0  0
    0.9576  -11.2422    2.1140 C   0  0  0  0  0  0  0  0  0  0  0  0
    1.9370  -12.0290    2.4379 C   0  0  0  0  0  0  0  0  0  0  0  0
    1.7573  -13.4162    2.2858 C   0  0  0  0  0  0  0  0  0  0  0  0
    0.3398  -13.5559    1.7953 C   0  0  2  0  0  0  0  0  0  0  0  0
   -0.0709  -12.1278    1.7916 C   0  0  0  0  0  0  0  0  0  0  0  0
    2.4693  -14.5343    2.4211 Cl  0  0  0  0  0  0  0  0  0  0  0  0
   -0.4263  -14.4559    1.5567 C   0  0  0  0  0  0  0  0  0  0  0  0
   -0.0869  -15.0685    0.4577 C   0  0  0  0  0  0  0  0  0  0  0  0
    0.1241  -14.4181   -0.7845 C   0  0  0  0  0  0  0  0  0  0  0  0
   -1.2790  -11.6365    1.5005 C   0  0  0  0  0  0  0  0  0  0  0  0
   -2.0135  -11.8702    0.3190 O   0  0  0  0  0  0  0  0  0  0  0  0
  6  7  1  0
  3  8  1  0
  8  9  1  0
  9 10  2  0
 10 11  1  0
  8 12  1  0
 11 12  1  0
 10 13  1  0
 11 14  1  1
 14 15  1  0
 15 16  1  0
 12 17  1  0
 17 18  2  0
  1  2  2  0
  2  3  1  0
  3  4  2  0
  4  5  1  0
  5  6  2  0
  1  6  1  0
M  END

$$$$
No_1082-/export/home/yangzhenyu/potential_scad_32_flow//YTHDC2/2024-12-06-03-22-00/
     RDKit          3D

 14 14  0  0  0  0  0  0  0  0999 V2000
    1.1787   -8.0297    3.5154 C   0  0  0  0  0  0  0  0  0  0  0  0
    1.0491   -6.8434    2.9820 C   0  0  0  0  0  0  0  0  0  0  0  0
    0.0950   -8.8404    3.2292 C   0  0  0  0  0  0  0  0  0  0  0  0
   -0.9173   -8.4596    2.5152 C   0  0  0  0  0  0  0  0  0  0  0  0
   -1.0331   -7.2162    2.0653 C   0  0  0  0  0  0  0  0  0  0  0  0
   -0.0105   -6.3168    2.3081 C   0  0  0  0  0  0  0  0  0  0  0  0
    0.1150   -4.9910    1.8495 C   0  0  0  0  0  0  0  0  0  0  0  0
   -0.5774   -4.1593    2.0596 O   0  0  0  0  0  0  0  0  0  0  0  0
    1.1226   -4.6805    0.9513 O   0  0  0  0  0  0  0  0  0  0  0  0
    0.1816  -10.2865    3.6380 C   0  0  0  0  0  0  0  0  0  0  0  0
   -1.0297  -10.9845    3.7634 C   0  0  0  0  0  0  0  0  0  0  0  0
    1.2933  -10.7508    4.4849 C   0  0  0  0  0  0  0  0  0  0  0  0
    1.3765  -12.1305    4.6229 O   0  0  0  0  0  0  0  0  0  0  0  0
    2.4245  -10.1636    4.8444 N   0  0  0  0  0  0  0  0  0  0  0  0
  6  7  1  0
  7  8  2  0
  7  9  1  0
  3 10  1  0
 10 11  2  0
 10 12  1  0
 12 13  2  0
 12 14  1  0
  1  2  2  0
  2  6  1  0
  5  6  2  0
  4  5  1  0
  3  4  2  0
  1  3  1  0
M  END

$$$$
No_1083-/export/home/yangzhenyu/potential_scad_32_flow//YTHDC2/2024-12-06-03-22-00/
     RDKit          3D

 19 19  0  0  0  0  0  0  0  0999 V2000
    1.1787   -8.0297    3.5154 N   0  0  0  0  0  0  0  0  0  0  0  0
    1.0818   -9.0751    3.2053 C   0  0  0  0  0  0  0  0  0  0  0  0
    0.7576   -9.3725    1.9159 C   0  0  0  0  0  0  0  0  0  0  0  0
    0.8823   -8.4917    1.0547 C   0  0  0  0  0  0  0  0  0  0  0  0
    1.4631   -7.3107    1.2451 C   0  0  0  0  0  0  0  0  0  0  0  0
    1.6470   -6.9326    2.5669 C   0  0  0  0  0  0  0  0  0  0  0  0
    0.8237  -10.1305    4.2407 C   0  0  0  0  0  0  0  0  0  0  0  0
    1.7644  -11.1125    4.2479 C   0  0  0  0  0  0  0  0  0  0  0  0
    0.8446   -8.8698   -0.4314 C   0  0  0  0  0  0  0  0  0  0  0  0
    1.7120   -8.8126   -1.2544 O   0  0  0  0  0  0  0  0  0  0  0  0
   -0.4047   -9.1367   -0.8382 O   0  0  0  0  0  0  0  0  0  0  0  0
    1.3530  -12.3293    3.7932 N   0  0  0  0  0  0  0  0  0  0  0  0
    1.2542  -12.6733    2.6150 C   0  0  0  0  0  0  0  0  0  0  0  0
    1.5559  -13.5289    2.1665 O   0  0  0  0  0  0  0  0  0  0  0  0
    0.1472  -12.1452    1.6686 O   0  0  0  0  0  0  0  0  0  0  0  0
    1.8362   -5.6623    3.0777 C   0  0  0  0  0  0  0  0  0  0  0  0
    1.5914   -4.5777    2.2284 N   0  0  0  0  0  0  0  0  0  0  0  0
    1.8595   -5.4235    4.3242 O   0  0  0  0  0  0  0  0  0  0  0  0
    0.9757   -3.5577    2.2716 C   0  0  0  0  0  0  0  0  0  0  0  0
  2  7  1  0
  7  8  1  0
  4  9  1  0
  9 10  2  0
  9 11  1  0
  8 12  1  0
 12 13  1  0
 13 14  2  0
 13 15  1  0
  6 16  1  0
 16 17  1  0
 16 18  2  0
 17 19  1  0
  1  2  2  0
  2  3  1  0
  3  4  2  0
  4  5  1  0
  5  6  2  0
  1  6  1  0
M  END

$$$$
No_1084-/export/home/yangzhenyu/potential_scad_32_flow//YTHDC2/2024-12-06-03-22-00/
     RDKit          3D

 20 21  0  0  1  0  0  0  0  0999 V2000
    1.1787   -8.0297    3.5154 C   0  0  0  0  0  0  0  0  0  0  0  0
    1.0491   -6.8434    2.9820 C   0  0  0  0  0  0  0  0  0  0  0  0
    0.9905   -9.0774    2.6527 C   0  0  0  0  0  0  0  0  0  0  0  0
    0.7897   -8.9519    1.3691 C   0  0  0  0  0  0  0  0  0  0  0  0
    0.7018   -7.7198    0.7892 C   0  0  0  0  0  0  0  0  0  0  0  0
    0.8918   -6.5957    1.6117 C   0  0  0  0  0  0  0  0  0  0  0  0
    1.0711  -10.4814    3.2282 C   0  0  0  0  0  0  0  0  0  0  0  0
    1.1227  -11.5770    2.4616 C   0  0  0  0  0  0  0  0  0  0  0  0
    1.1500  -12.9052    3.0782 C   0  0  0  0  0  0  0  0  0  0  0  0
    1.2520  -13.9470    2.2846 C   0  0  2  0  0  0  0  0  0  0  0  0
    1.7273  -15.2693    2.8138 C   0  0  0  0  0  0  0  0  0  0  0  0
    1.3080  -16.4502    2.1980 C   0  0  1  0  0  0  0  0  0  0  0  0
    0.4412  -16.2354    1.1926 C   0  0  0  0  0  0  0  0  0  0  0  0
    0.1934  -17.2836    0.5777 C   0  0  0  0  0  0  0  0  0  0  0  0
    0.8982  -18.4877    1.1521 C   0  0  0  0  0  0  0  0  0  0  0  0
    1.6844  -17.7803    2.2719 C   0  0  0  0  0  0  0  0  0  0  0  0
    0.8435   -5.2732    1.1561 O   0  0  0  0  0  0  0  0  0  0  0  0
    0.3955   -4.2059    1.8177 C   0  0  0  0  0  0  0  0  0  0  0  0
    1.8176  -13.6839    1.0020 C   0  0  0  0  0  0  0  0  0  0  0  0
    1.0723  -12.8001    0.2223 C   0  0  0  0  0  0  0  0  0  0  0  0
  3  7  1  0
  7  8  2  3
  8  9  1  0
 10  9  1  1
 10 11  1  0
 12 11  1  6
 12 13  1  0
 13 14  2  0
 14 15  1  0
 12 16  1  0
 15 16  1  0
  6 17  1  0
 17 18  1  0
 10 19  1  0
 19 20  1  0
  1  2  2  0
  2  6  1  0
  5  6  2  0
  4  5  1  0
  3  4  2  0
  1  3  1  0
M  END

$$$$
No_1085-/export/home/yangzhenyu/potential_scad_32_flow//YTHDC2/2024-12-06-03-22-00/
     RDKit          3D

 16 17  0  0  1  0  0  0  0  0999 V2000
    1.1787   -8.0297    3.5154 C   0  0  0  0  0  0  0  0  0  0  0  0
    1.1048   -9.2215    3.2892 N   0  0  0  0  0  0  0  0  0  0  0  0
    1.5378  -10.1363    4.2323 C   0  0  0  0  0  0  0  0  0  0  0  0
    0.9975   -7.0391    2.5788 C   0  0  0  0  0  0  0  0  0  0  0  0
    0.7137   -7.5395    1.3675 C   0  0  0  0  0  0  0  0  0  0  0  0
    0.6451   -8.7545    1.0015 C   0  0  0  0  0  0  0  0  0  0  0  0
    0.8770   -9.6930    1.9260 C   0  0  2  0  0  0  0  0  0  0  0  0
    2.8186  -10.6161    4.2637 C   0  0  0  0  0  0  0  0  0  0  0  0
    0.6962  -10.9958    1.7389 C   0  0  0  0  0  0  0  0  0  0  0  0
   -0.3437  -11.7331    2.0213 N   0  0  0  0  0  0  0  0  0  0  0  0
   -0.3266  -13.0331    1.9001 N   0  0  0  0  0  0  0  0  0  0  0  0
    0.3949  -13.6189    1.3629 C   0  0  0  0  0  0  0  0  0  0  0  0
    1.6794  -13.0527    0.9201 C   0  0  0  0  0  0  0  0  0  0  0  0
    1.9050  -11.7042    1.1678 C   0  0  0  0  0  0  0  0  0  0  0  0
    1.0931   -5.6142    2.8351 Cl  0  0  0  0  0  0  0  0  0  0  0  0
    3.1361  -11.5502    5.3193 Cl  0  0  0  0  0  0  0  0  0  0  0  0
  1  2  1  0
  2  3  1  0
  4  5  1  0
  2  7  1  0
  6  7  1  0
  3  8  1  0
  7  9  1  1
  4 15  1  0
  8 16  1  0
  1  4  1  0
  5  6  1  0
  9 10  2  0
 10 11  1  0
 11 12  2  0
 12 13  1  0
 13 14  2  0
  9 14  1  0
M  END

$$$$
No_1086-/export/home/yangzhenyu/potential_scad_32_flow//YTHDC2/2024-12-06-03-22-00/
     RDKit          3D

 19 19  0  0  0  0  0  0  0  0999 V2000
    1.1787   -8.0297    3.5154 C   0  0  0  0  0  0  0  0  0  0  0  0
    1.1048   -9.2215    3.2892 C   0  0  0  0  0  0  0  0  0  0  0  0
    1.2339   -9.7611    2.0189 C   0  0  0  0  0  0  0  0  0  0  0  0
    1.1954  -11.2312    1.8661 C   0  0  0  0  0  0  0  0  0  0  0  0
    1.5546  -12.1691    2.7931 C   0  0  0  0  0  0  0  0  0  0  0  0
    1.4918  -11.6215    4.1439 C   0  0  0  0  0  0  0  0  0  0  0  0
    1.2451  -10.2569    4.3641 C   0  0  0  0  0  0  0  0  0  0  0  0
    1.5931  -13.4682    2.5140 C   0  0  0  0  0  0  0  0  0  0  0  0
    0.8712   -7.0755    2.6565 C   0  0  0  0  0  0  0  0  0  0  0  0
    1.0327   -5.6151    2.9650 C   0  0  0  0  0  0  0  0  0  0  0  0
    1.1705  -14.4313    3.2398 N   0  0  0  0  0  0  0  0  0  0  0  0
    2.3635  -13.8608    1.5023 O   0  0  0  0  0  0  0  0  0  0  0  0
    1.7128   -5.2620    4.0195 O   0  0  0  0  0  0  0  0  0  0  0  0
    0.6586   -4.7353    2.0209 C   0  0  0  0  0  0  0  0  0  0  0  0
    1.3658  -15.7827    3.0518 C   0  0  0  0  0  0  0  0  0  0  0  0
   -0.1459   -3.9185    2.0855 C   0  0  0  0  0  0  0  0  0  0  0  0
    0.5140  -16.6524    3.7795 C   0  0  0  0  0  0  0  0  0  0  0  0
    0.8784  -18.0087    3.6665 C   0  0  0  0  0  0  0  0  0  0  0  0
    1.8763  -18.3820    2.7133 C   0  0  0  0  0  0  0  0  0  0  0  0
  1  2  1  0
  5  8  1  0
  1  9  2  3
  9 10  1  0
  8 11  1  0
  8 12  2  0
 10 13  2  0
 10 14  1  0
 11 15  1  0
 14 16  1  0
 15 17  1  0
 17 18  2  3
 18 19  1  0
  2  3  2  0
  3  4  1  0
  4  5  2  0
  5  6  1  0
  6  7  2  0
  2  7  1  0
M  END

$$$$
No_1087-/export/home/yangzhenyu/potential_scad_32_flow//YTHDC2/2024-12-06-03-22-00/
     RDKit          3D

 17 18  0  0  0  0  0  0  0  0999 V2000
    1.1787   -8.0297    3.5154 C   0  0  0  0  0  0  0  0  0  0  0  0
    1.1048   -9.2215    3.2892 C   0  0  0  0  0  0  0  0  0  0  0  0
    1.2339   -9.7611    2.0189 C   0  0  0  0  0  0  0  0  0  0  0  0
    1.3583   -9.0036    0.9764 C   0  0  0  0  0  0  0  0  0  0  0  0
    1.5996   -7.6362    1.1311 C   0  0  0  0  0  0  0  0  0  0  0  0
    1.4830   -7.0928    2.3626 C   0  0  0  0  0  0  0  0  0  0  0  0
    1.4898   -5.7274    2.6199 C   0  0  0  0  0  0  0  0  0  0  0  0
    1.1681  -11.2222    1.8390 C   0  0  0  0  0  0  0  0  0  0  0  0
    1.9047  -12.1147    2.3357 C   0  0  0  0  0  0  0  0  0  0  0  0
    1.2927  -13.3233    2.7474 C   0  0  0  0  0  0  0  0  0  0  0  0
    1.7756  -14.5591    2.3026 C   0  0  0  0  0  0  0  0  0  0  0  0
    1.2258  -15.7621    2.8132 C   0  0  0  0  0  0  0  0  0  0  0  0
    1.8527  -16.9943    2.7225 C   0  0  0  0  0  0  0  0  0  0  0  0
    1.4134  -18.1548    3.2093 C   0  0  0  0  0  0  0  0  0  0  0  0
    0.3827  -18.1617    4.0402 C   0  0  0  0  0  0  0  0  0  0  0  0
   -0.2513  -17.0061    4.3535 C   0  0  0  0  0  0  0  0  0  0  0  0
    0.2035  -15.8298    3.8700 C   0  0  0  0  0  0  0  0  0  0  0  0
  6  7  1  0
  3  8  1  0
  8  9  1  0
  9 10  1  0
 10 11  1  0
 11 12  1  0
 12 13  2  0
 13 14  1  0
 14 15  2  0
 15 16  1  0
 16 17  2  0
 12 17  1  0
  1  2  2  0
  2  3  1  0
  3  4  2  0
  4  5  1  0
  5  6  2  0
  1  6  1  0
M  END

$$$$
No_1088-/export/home/yangzhenyu/potential_scad_32_flow//YTHDC2/2024-12-06-03-22-00/
     RDKit          3D

 20 21  0  0  0  0  0  0  0  0999 V2000
    1.1787   -8.0297    3.5154 C   0  0  0  0  0  0  0  0  0  0  0  0
    1.0491   -6.8434    2.9820 C   0  0  0  0  0  0  0  0  0  0  0  0
    0.9905   -9.0774    2.6527 C   0  0  0  0  0  0  0  0  0  0  0  0
    0.7897   -8.9519    1.3691 C   0  0  0  0  0  0  0  0  0  0  0  0
    0.7018   -7.7198    0.7892 C   0  0  0  0  0  0  0  0  0  0  0  0
    0.8918   -6.5957    1.6117 C   0  0  0  0  0  0  0  0  0  0  0  0
    1.0998  -10.4710    3.2437 C   0  0  0  0  0  0  0  0  0  0  0  0
    0.0472  -11.2546    3.3963 C   0  0  0  0  0  0  0  0  0  0  0  0
    0.1622  -12.5732    3.4140 C   0  0  0  0  0  0  0  0  0  0  0  0
    1.4182  -13.1957    3.4048 C   0  0  0  0  0  0  0  0  0  0  0  0
    2.5550  -12.3947    3.0877 F   0  0  0  0  0  0  0  0  0  0  0  0
    1.6540  -14.4411    3.3049 N   0  0  0  0  0  0  0  0  0  0  0  0
    0.8645   -5.2899    1.1817 C   0  0  0  0  0  0  0  0  0  0  0  0
   -0.2008   -4.7622    0.6955 C   0  0  0  0  0  0  0  0  0  0  0  0
   -0.3326   -3.4180    0.3492 C   0  0  0  0  0  0  0  0  0  0  0  0
    0.6151   -2.4929    0.9255 C   0  0  0  0  0  0  0  0  0  0  0  0
    1.7026   -3.0071    1.6589 C   0  0  0  0  0  0  0  0  0  0  0  0
    1.8128   -4.3761    1.8652 C   0  0  0  0  0  0  0  0  0  0  0  0
   -1.2544  -10.6033    3.6495 C   0  0  0  0  0  0  0  0  0  0  0  0
    2.5972  -14.7653    3.1458 H   0  0  0  0  0  0  0  0  0  0  0  0
  3  7  1  0
  7  8  1  0
  8  9  2  3
  9 10  1  0
 10 11  1  0
 10 12  2  0
  6 13  1  0
  8 19  1  0
 13 14  2  0
 14 15  1  0
 15 16  2  0
 16 17  1  0
 17 18  2  0
 13 18  1  0
  1  2  2  0
  2  6  1  0
  5  6  2  0
  4  5  1  0
  3  4  2  0
  1  3  1  0
 12 20  1  0
M  END

$$$$
No_1089-/export/home/yangzhenyu/potential_scad_32_flow//YTHDC2/2024-12-06-03-22-00/
     RDKit          3D

 19 20  0  0  0  0  0  0  0  0999 V2000
    1.1787   -8.0297    3.5154 C   0  0  0  0  0  0  0  0  0  0  0  0
    1.1048   -9.2215    3.2892 C   0  0  0  0  0  0  0  0  0  0  0  0
    1.2339   -9.7611    2.0189 C   0  0  0  0  0  0  0  0  0  0  0  0
    1.3583   -9.0036    0.9764 C   0  0  0  0  0  0  0  0  0  0  0  0
    1.5996   -7.6362    1.1311 C   0  0  0  0  0  0  0  0  0  0  0  0
    1.4830   -7.0928    2.3626 C   0  0  0  0  0  0  0  0  0  0  0  0
    1.1008  -11.2372    1.8542 C   0  0  0  0  0  0  0  0  0  0  0  0
    0.4812  -11.6084    0.6459 O   0  0  0  0  0  0  0  0  0  0  0  0
    1.2619  -12.0916    2.7465 N   0  0  0  0  0  0  0  0  0  0  0  0
    1.1740  -13.4390    2.7228 C   0  0  0  0  0  0  0  0  0  0  0  0
    2.2628  -14.2671    2.4159 Br  0  0  0  0  0  0  0  0  0  0  0  0
    1.6042   -5.6637    2.6645 C   0  0  0  0  0  0  0  0  0  0  0  0
    0.7645   -4.8160    2.6239 N   0  0  0  0  0  0  0  0  0  0  0  0
    0.8897   -3.4527    2.9335 C   0  0  0  0  0  0  0  0  0  0  0  0
   -0.6236   -5.0447    1.9408 C   0  0  0  0  0  0  0  0  0  0  0  0
   -1.4209   -4.0312    2.0609 C   0  0  0  0  0  0  0  0  0  0  0  0
   -0.4063   -2.9582    2.8222 C   0  0  0  0  0  0  0  0  0  0  0  0
   -0.9442   -6.0656    1.4005 C   0  0  0  0  0  0  0  0  0  0  0  0
   -1.8361   -6.8772    2.1481 C   0  0  0  0  0  0  0  0  0  0  0  0
  3  7  1  0
  7  8  2  0
  7  9  1  0
  9 10  1  0
 10 11  1  0
  6 12  1  0
 12 13  1  0
 13 14  1  0
 13 15  1  0
 15 16  1  0
 14 17  1  0
 16 17  1  0
 15 18  1  0
 18 19  1  0
  1  2  2  0
  2  3  1  0
  3  4  2  0
  4  5  1  0
  5  6  2  0
  1  6  1  0
M  END

$$$$
No_1090-/export/home/yangzhenyu/potential_scad_32_flow//YTHDC2/2024-12-06-03-22-00/
     RDKit          3D

 19 20  0  0  0  0  0  0  0  0999 V2000
    1.1787   -8.0297    3.5154 C   0  0  0  0  0  0  0  0  0  0  0  0
    1.0491   -6.8434    2.9820 C   0  0  0  0  0  0  0  0  0  0  0  0
    0.0950   -8.8404    3.2292 C   0  0  0  0  0  0  0  0  0  0  0  0
   -0.9173   -8.4596    2.5152 C   0  0  0  0  0  0  0  0  0  0  0  0
   -1.0331   -7.2162    2.0653 C   0  0  0  0  0  0  0  0  0  0  0  0
   -0.0105   -6.3168    2.3081 C   0  0  0  0  0  0  0  0  0  0  0  0
    0.0485   -4.9783    1.8782 C   0  0  0  0  0  0  0  0  0  0  0  0
    0.9625   -4.1072    2.3252 O   0  0  0  0  0  0  0  0  0  0  0  0
    0.1709  -10.4695    3.7373 C   0  0  0  0  0  0  0  0  0  0  0  0
    1.2221  -10.9952    4.1799 C   0  0  0  0  0  0  0  0  0  0  0  0
    1.2860  -12.3373    3.9265 C   0  0  0  0  0  0  0  0  0  0  0  0
    0.2131  -13.0098    3.4967 C   0  0  0  0  0  0  0  0  0  0  0  0
   -0.8506  -12.4114    3.0754 C   0  0  0  0  0  0  0  0  0  0  0  0
   -0.9317  -11.0227    3.2189 C   0  0  0  0  0  0  0  0  0  0  0  0
   -0.5504   -4.4925    0.8827 O   0  0  0  0  0  0  0  0  0  0  0  0
    0.3722  -14.4183    3.4248 N   0  0  0  0  0  0  0  0  0  0  0  0
   -0.3828  -15.3303    3.1600 C   0  0  0  0  0  0  0  0  0  0  0  0
   -0.1834  -16.6472    3.5203 C   0  0  0  0  0  0  0  0  0  0  0  0
   -1.0969  -17.4380    3.9355 C   0  0  0  0  0  0  0  0  0  0  0  0
  6  7  1  0
  7  8  1  0
  3  9  1  0
  7 15  2  0
 12 16  1  0
 16 17  1  0
 17 18  1  0
 18 19  2  0
  1  2  2  0
  2  6  1  0
  5  6  2  0
  4  5  1  0
  3  4  2  0
  1  3  1  0
  9 10  2  0
 10 11  1  0
 11 12  2  0
 12 13  1  0
 13 14  2  0
  9 14  1  0
M  END

$$$$
No_1091-/export/home/yangzhenyu/potential_scad_32_flow//YTHDC2/2024-12-06-03-22-00/
     RDKit          3D

 18 19  0  0  1  0  0  0  0  0999 V2000
    1.1787   -8.0297    3.5154 C   0  0  0  0  0  0  0  0  0  0  0  0
    1.0491   -6.8434    2.9820 C   0  0  0  0  0  0  0  0  0  0  0  0
    0.0950   -8.8404    3.2292 C   0  0  0  0  0  0  0  0  0  0  0  0
   -0.9173   -8.4596    2.5152 C   0  0  0  0  0  0  0  0  0  0  0  0
   -1.0331   -7.2162    2.0653 C   0  0  0  0  0  0  0  0  0  0  0  0
   -0.0105   -6.3168    2.3081 C   0  0  0  0  0  0  0  0  0  0  0  0
    0.1935  -10.3737    3.7416 C   0  0  0  0  0  0  0  0  0  0  0  0
    1.2406  -10.8901    4.0986 C   0  0  0  0  0  0  0  0  0  0  0  0
    1.1186  -12.3145    4.4006 O   0  0  0  0  0  0  0  0  0  0  0  0
    0.0122   -4.9648    1.8453 C   0  0  1  0  0  0  0  0  0  0  0  0
   -0.7777   -4.1147    2.3505 C   0  0  0  0  0  0  0  0  0  0  0  0
   -0.2384   -2.9835    2.9789 C   0  0  0  0  0  0  0  0  0  0  0  0
    2.4253  -10.4126    4.5069 O   0  0  0  0  0  0  0  0  0  0  0  0
    0.4421   -2.0694    2.3379 C   0  0  0  0  0  0  0  0  0  0  0  0
    1.6412   -2.8263    1.8553 C   0  0  0  0  0  0  0  0  0  0  0  0
    1.1490   -4.1440    1.0306 C   0  0  0  0  0  0  0  0  0  0  0  0
   -2.2044   -4.2831    2.3652 C   0  0  0  0  0  0  0  0  0  0  0  0
   -2.8323   -4.6326    3.6190 O   0  0  0  0  0  0  0  0  0  0  0  0
  3  7  1  0
  7  8  2  3
  8  9  1  0
 10  6  1  1
 10 11  1  0
 11 12  1  0
  8 13  1  0
 12 14  1  0
 14 15  1  0
 10 16  1  0
 15 16  1  0
 11 17  1  0
 17 18  1  0
  1  2  2  0
  2  6  1  0
  5  6  2  0
  4  5  1  0
  3  4  2  0
  1  3  1  0
M  END

$$$$
No_1092-/export/home/yangzhenyu/potential_scad_32_flow//YTHDC2/2024-12-06-03-22-00/
     RDKit          3D

 19 19  0  0  0  0  0  0  0  0999 V2000
    1.1787   -8.0297    3.5154 C   0  0  0  0  0  0  0  0  0  0  0  0
    1.1048   -9.2215    3.2892 C   0  0  0  0  0  0  0  0  0  0  0  0
    1.3627  -10.1721    4.3044 C   0  0  0  0  0  0  0  0  0  0  0  0
    1.7354  -11.4730    3.9023 C   0  0  0  0  0  0  0  0  0  0  0  0
    1.8080  -11.8127    2.7216 C   0  0  0  0  0  0  0  0  0  0  0  0
    1.5854  -11.0021    1.7249 C   0  0  0  0  0  0  0  0  0  0  0  0
    1.3573   -9.7389    1.9287 C   0  0  0  0  0  0  0  0  0  0  0  0
    1.2865   -8.8078    0.9161 C   0  0  0  0  0  0  0  0  0  0  0  0
    1.6845   -9.1638   -0.2896 C   0  0  0  0  0  0  0  0  0  0  0  0
    2.8611   -9.7120   -0.5522 O   0  0  0  0  0  0  0  0  0  0  0  0
    1.0038   -8.9122   -1.3119 O   0  0  0  0  0  0  0  0  0  0  0  0
    2.0511  -13.2453    2.4126 O   0  0  0  0  0  0  0  0  0  0  0  0
    0.1031   -7.2172    3.3643 O   0  0  0  0  0  0  0  0  0  0  0  0
    2.2628   -7.0973    3.3323 O   0  0  0  0  0  0  0  0  0  0  0  0
    1.9124  -13.8332    1.2079 C   0  0  0  0  0  0  0  0  0  0  0  0
    0.7109  -14.0785    0.9448 C   0  0  0  0  0  0  0  0  0  0  0  0
    0.2893  -13.6143   -0.1770 C   0  0  0  0  0  0  0  0  0  0  0  0
   -1.0604  -13.7857   -0.5314 C   0  0  0  0  0  0  0  0  0  0  0  0
   -1.8862  -14.2755    0.3049 C   0  0  0  0  0  0  0  0  0  0  0  0
  1  2  1  0
  7  8  1  0
  8  9  1  0
  9 10  1  0
  9 11  2  0
  5 12  1  0
  1 13  1  0
  1 14  2  0
 12 15  1  0
 15 16  1  0
 16 17  1  0
 17 18  2  3
 18 19  1  0
  2  3  2  0
  3  4  1  0
  4  5  2  0
  5  6  1  0
  6  7  2  0
  2  7  1  0
M  END

$$$$
No_1093-/export/home/yangzhenyu/potential_scad_32_flow//YTHDC2/2024-12-06-03-22-00/
     RDKit          3D

 12 12  0  0  0  0  0  0  0  0999 V2000
    1.1787   -8.0297    3.5154 C   0  0  0  0  0  0  0  0  0  0  0  0
    1.0491   -6.8434    2.9820 C   0  0  0  0  0  0  0  0  0  0  0  0
    0.9905   -9.0774    2.6527 C   0  0  0  0  0  0  0  0  0  0  0  0
    0.7897   -8.9519    1.3691 C   0  0  0  0  0  0  0  0  0  0  0  0
    0.7018   -7.7198    0.7892 C   0  0  0  0  0  0  0  0  0  0  0  0
    0.8918   -6.5957    1.6117 C   0  0  0  0  0  0  0  0  0  0  0  0
    1.0774  -10.6059    3.3145 N   0  0  0  0  0  0  0  0  0  0  0  0
   -0.0361  -11.2461    3.4220 C   0  0  0  0  0  0  0  0  0  0  0  0
    0.1009  -12.5595    3.4543 C   0  0  0  0  0  0  0  0  0  0  0  0
   -0.6940  -13.3201    2.7296 C   0  0  0  0  0  0  0  0  0  0  0  0
   -1.9732  -12.8601    2.5386 C   0  0  0  0  0  0  0  0  0  0  0  0
   -2.2693  -11.5566    2.8001 C   0  0  0  0  0  0  0  0  0  0  0  0
  3  7  1  0
  7  8  1  0
  8  9  1  0
  9 10  2  3
 10 11  1  0
 11 12  2  0
  1  2  2  0
  2  6  1  0
  5  6  2  0
  4  5  1  0
  3  4  2  0
  1  3  1  0
M  END

$$$$
No_1094-/export/home/yangzhenyu/potential_scad_32_flow//YTHDC2/2024-12-06-03-22-00/
     RDKit          3D

 19 20  0  0  1  0  0  0  0  0999 V2000
    1.1787   -8.0297    3.5154 C   0  0  0  0  0  0  0  0  0  0  0  0
    1.1048   -9.2215    3.2892 C   0  0  0  0  0  0  0  0  0  0  0  0
    1.2339   -9.7611    2.0189 C   0  0  0  0  0  0  0  0  0  0  0  0
    1.3583   -9.0036    0.9764 C   0  0  0  0  0  0  0  0  0  0  0  0
    1.5996   -7.6362    1.1311 C   0  0  0  0  0  0  0  0  0  0  0  0
    1.4830   -7.0928    2.3626 C   0  0  0  0  0  0  0  0  0  0  0  0
    1.5395   -5.7300    2.6182 C   0  0  0  0  0  0  0  0  0  0  0  0
    1.1969  -11.3760    1.8433 C   0  0  0  0  0  0  0  0  0  0  0  0
    0.2951  -11.9827    2.0623 C   0  0  1  0  0  0  0  0  0  0  0  0
   -0.9878  -11.4755    2.0049 C   0  0  0  0  0  0  0  0  0  0  0  0
   -1.7945  -11.4171    2.9577 C   0  0  0  0  0  0  0  0  0  0  0  0
   -3.0503  -10.8414    3.0423 C   0  0  0  0  0  0  0  0  0  0  0  0
   -3.6370  -10.6051    1.9222 C   0  0  0  0  0  0  0  0  0  0  0  0
   -2.9287  -10.5773    0.7380 C   0  0  0  0  0  0  0  0  0  0  0  0
   -1.6213  -11.0710    0.6880 C   0  0  0  0  0  0  0  0  0  0  0  0
    0.4984  -13.3035    2.2465 C   0  0  2  0  0  0  0  0  0  0  0  0
   -0.3234  -14.3279    1.8674 Br  0  0  0  0  0  0  0  0  0  0  0  0
    1.5606  -13.6165    3.2888 C   0  0  0  0  0  0  0  0  0  0  0  0
    1.2646   -4.8145    1.7041 O   0  0  0  0  0  0  0  0  0  0  0  0
  6  7  1  0
  3  8  1  0
  9  8  1  6
  9 10  1  0
  9 16  1  0
 16 17  1  0
 16 18  1  1
  7 19  2  0
  1  2  2  0
  2  3  1  0
  3  4  2  0
  4  5  1  0
  5  6  2  0
  1  6  1  0
 10 11  2  0
 11 12  1  0
 12 13  2  0
 13 14  1  0
 14 15  2  0
 10 15  1  0
M  END

$$$$
No_1095-/export/home/yangzhenyu/potential_scad_32_flow//YTHDC2/2024-12-06-03-22-00/
     RDKit          3D

 19 21  0  0  0  0  0  0  0  0999 V2000
    1.1787   -8.0297    3.5154 C   0  0  0  0  0  0  0  0  0  0  0  0
    1.0491   -6.8434    2.9820 C   0  0  0  0  0  0  0  0  0  0  0  0
    0.9905   -9.0774    2.6527 C   0  0  0  0  0  0  0  0  0  0  0  0
    0.7897   -8.9519    1.3691 C   0  0  0  0  0  0  0  0  0  0  0  0
    0.7018   -7.7198    0.7892 C   0  0  0  0  0  0  0  0  0  0  0  0
    0.8918   -6.5957    1.6117 C   0  0  0  0  0  0  0  0  0  0  0  0
    1.0774  -10.6059    3.3145 C   0  0  0  0  0  0  0  0  0  0  0  0
   -0.1032  -11.1934    3.4585 C   0  0  0  0  0  0  0  0  0  0  0  0
   -1.2292  -10.4461    3.8202 C   0  0  0  0  0  0  0  0  0  0  0  0
   -1.2824   -9.6328    4.9527 C   0  0  0  0  0  0  0  0  0  0  0  0
   -2.3466   -8.8188    5.2878 C   0  0  0  0  0  0  0  0  0  0  0  0
   -3.4133   -8.9099    4.5761 C   0  0  0  0  0  0  0  0  0  0  0  0
   -3.5080   -9.6452    3.4883 C   0  0  0  0  0  0  0  0  0  0  0  0
   -2.4510  -10.4626    3.0878 C   0  0  0  0  0  0  0  0  0  0  0  0
   -0.1171  -12.5009    3.4480 N   0  0  0  0  0  0  0  0  0  0  0  0
    2.1326  -11.3776    2.7981 C   0  0  0  0  0  0  0  0  0  0  0  0
    2.0279  -12.6073    2.8166 C   0  0  0  0  0  0  0  0  0  0  0  0
    0.8816  -13.1319    3.0782 C   0  0  0  0  0  0  0  0  0  0  0  0
    0.7663  -14.5744    3.1071 C   0  0  0  0  0  0  0  0  0  0  0  0
  3  7  1  0
  8  9  1  0
 18 19  1  0
  1  2  2  0
  2  6  1  0
  5  6  2  0
  4  5  1  0
  3  4  2  0
  1  3  1  0
  9 10  2  0
 10 11  1  0
 11 12  2  0
 12 13  1  0
 13 14  2  0
  9 14  1  0
  7  8  1  0
  8 15  2  0
 15 18  1  0
 17 18  2  0
 16 17  1  0
  7 16  2  0
M  END

$$$$
No_1096-/export/home/yangzhenyu/potential_scad_32_flow//YTHDC2/2024-12-06-03-22-00/
     RDKit          3D

 18 20  0  0  0  0  0  0  0  0999 V2000
    1.1787   -8.0297    3.5154 C   0  0  0  0  0  0  0  0  0  0  0  0
    1.1048   -9.2215    3.2892 C   0  0  0  0  0  0  0  0  0  0  0  0
    1.2339   -9.7611    2.0189 C   0  0  0  0  0  0  0  0  0  0  0  0
    1.1954  -11.2312    1.8661 C   0  0  0  0  0  0  0  0  0  0  0  0
    1.5546  -12.1691    2.7931 C   0  0  0  0  0  0  0  0  0  0  0  0
    0.5849   -7.0929    2.5729 C   0  0  0  0  0  0  0  0  0  0  0  0
    0.5567   -7.6699    1.1955 C   0  0  0  0  0  0  0  0  0  0  0  0
    0.7903   -8.9699    0.9209 C   0  0  0  0  0  0  0  0  0  0  0  0
    1.5479  -13.4950    2.3568 C   0  0  0  0  0  0  0  0  0  0  0  0
    1.2456  -13.9001    1.1648 C   0  0  0  0  0  0  0  0  0  0  0  0
    1.0233  -13.0589    0.1983 C   0  0  0  0  0  0  0  0  0  0  0  0
    0.9548  -11.6626    0.4956 C   0  0  0  0  0  0  0  0  0  0  0  0
    0.6175   -5.4409    2.6606 C   0  0  0  0  0  0  0  0  0  0  0  0
   -0.5432   -4.9756    2.3417 C   0  0  0  0  0  0  0  0  0  0  0  0
   -0.5645   -3.6484    2.0224 C   0  0  0  0  0  0  0  0  0  0  0  0
    0.6310   -2.8723    2.2203 C   0  0  0  0  0  0  0  0  0  0  0  0
    1.8531   -3.5259    2.5093 C   0  0  0  0  0  0  0  0  0  0  0  0
    1.8101   -4.9298    2.6817 C   0  0  0  0  0  0  0  0  0  0  0  0
  3  4  1  0
  6 13  1  0
 13 14  2  0
 14 15  1  0
 15 16  2  0
 16 17  1  0
 17 18  2  0
 13 18  1  0
  1  2  2  0
  2  3  1  0
  3  8  2  0
  7  8  1  0
  6  7  2  0
  1  6  1  0
  4  5  2  0
  5  9  1  0
  9 10  2  0
 10 11  1  0
 11 12  2  0
  4 12  1  0
M  END

$$$$
No_1097-/export/home/yangzhenyu/potential_scad_32_flow//YTHDC2/2024-12-06-03-22-00/
     RDKit          3D

 18 18  0  0  0  0  0  0  0  0999 V2000
    1.1787   -8.0297    3.5154 C   0  0  0  0  0  0  0  0  0  0  0  0
    1.0491   -6.8434    2.9820 C   0  0  0  0  0  0  0  0  0  0  0  0
    0.0950   -8.8404    3.2292 C   0  0  0  0  0  0  0  0  0  0  0  0
   -0.9173   -8.4596    2.5152 C   0  0  0  0  0  0  0  0  0  0  0  0
   -1.0331   -7.2162    2.0653 C   0  0  0  0  0  0  0  0  0  0  0  0
   -0.0105   -6.3168    2.3081 C   0  0  0  0  0  0  0  0  0  0  0  0
    0.0485   -4.9783    1.8782 C   0  0  0  0  0  0  0  0  0  0  0  0
    0.9625   -4.1072    2.3252 O   0  0  0  0  0  0  0  0  0  0  0  0
   -0.9023   -4.3813    1.1355 O   0  0  0  0  0  0  0  0  0  0  0  0
    0.1961  -10.2926    3.6353 C   0  0  0  0  0  0  0  0  0  0  0  0
   -1.0239  -10.9827    3.7890 C   0  0  0  0  0  0  0  0  0  0  0  0
    1.3028  -10.7713    4.4972 C   0  0  0  0  0  0  0  0  0  0  0  0
    2.5036  -10.2715    4.5279 C   0  0  0  0  0  0  0  0  0  0  0  0
    3.3755  -11.4594    4.5922 N   0  0  0  0  0  0  0  0  0  0  0  0
   -0.9517  -12.3279    3.4395 C   0  0  0  0  0  0  0  0  0  0  0  0
    0.3161  -12.9148    3.0965 Cl  0  0  0  0  0  0  0  0  0  0  0  0
   -2.1013  -13.0856    3.1172 O   0  0  0  0  0  0  0  0  0  0  0  0
    4.4202  -11.4650    5.4716 C   0  0  0  0  0  0  0  0  0  0  0  0
  6  7  1  0
  7  8  2  0
  7  9  1  0
  3 10  1  0
 10 11  2  3
 10 12  1  0
 12 13  1  0
 13 14  1  0
 11 15  1  0
 15 16  1  0
 15 17  2  0
 14 18  1  0
  1  2  2  0
  2  6  1  0
  5  6  2  0
  4  5  1  0
  3  4  2  0
  1  3  1  0
M  END

$$$$
No_1098-/export/home/yangzhenyu/potential_scad_32_flow//YTHDC2/2024-12-06-03-22-00/
     RDKit          3D

 15 16  0  0  1  0  0  0  0  0999 V2000
    1.1787   -8.0297    3.5154 C   0  0  0  0  0  0  0  0  0  0  0  0
    1.1048   -9.2215    3.2892 C   0  0  0  0  0  0  0  0  0  0  0  0
    1.2339   -9.7611    2.0189 C   0  0  0  0  0  0  0  0  0  0  0  0
    1.3583   -9.0036    0.9764 C   0  0  0  0  0  0  0  0  0  0  0  0
    1.5996   -7.6362    1.1311 C   0  0  0  0  0  0  0  0  0  0  0  0
    1.4830   -7.0928    2.3626 C   0  0  0  0  0  0  0  0  0  0  0  0
    1.1171  -11.3311    1.8661 C   0  0  1  0  0  0  0  0  0  0  0  0
    0.5022  -11.6388    0.6531 C   0  0  0  0  0  0  0  0  0  0  0  0
    0.5683  -13.0838    0.5424 C   0  0  0  0  0  0  0  0  0  0  0  0
    1.2318  -13.7226    1.6757 C   0  0  0  0  0  0  0  0  0  0  0  0
    1.8181  -13.2350    2.6727 C   0  0  0  0  0  0  0  0  0  0  0  0
    1.7194  -11.9324    2.9048 C   0  0  0  0  0  0  0  0  0  0  0  0
    1.5210   -5.6594    2.6694 N   0  0  0  0  0  0  0  0  0  0  0  0
    2.3306  -11.3351    3.8968 O   0  0  0  0  0  0  0  0  0  0  0  0
    1.0256   -4.7132    1.8793 O   0  0  0  0  0  0  0  0  0  0  0  0
  7  3  1  6
  7  8  1  0
  9 10  1  0
  7 12  1  0
 11 12  1  0
  6 13  1  0
 12 14  2  0
 13 15  2  0
  8  9  1  0
 10 11  1  0
  1  2  2  0
  2  3  1  0
  3  4  2  0
  4  5  1  0
  5  6  2  0
  1  6  1  0
M  END

$$$$
No_1099-/export/home/yangzhenyu/potential_scad_32_flow//YTHDC2/2024-12-06-03-22-00/
     RDKit          3D

 19 20  0  0  0  0  0  0  0  0999 V2000
    1.1787   -8.0297    3.5154 C   0  0  0  0  0  0  0  0  0  0  0  0
    1.1048   -9.2215    3.2892 C   0  0  0  0  0  0  0  0  0  0  0  0
    1.3627  -10.1721    4.3044 C   0  0  0  0  0  0  0  0  0  0  0  0
    1.0682  -11.5187    4.0618 C   0  0  0  0  0  0  0  0  0  0  0  0
    0.6332  -11.9655    2.9682 C   0  0  0  0  0  0  0  0  0  0  0  0
    0.4776  -11.1308    1.9203 C   0  0  0  0  0  0  0  0  0  0  0  0
    0.7470   -9.8274    2.0368 C   0  0  0  0  0  0  0  0  0  0  0  0
    1.0387   -7.0301    2.5175 C   0  0  0  0  0  0  0  0  0  0  0  0
    0.9130   -7.5288    1.2013 C   0  0  0  0  0  0  0  0  0  0  0  0
    0.7893   -8.7980    0.9542 C   0  0  0  0  0  0  0  0  0  0  0  0
    1.3508   -9.2322   -0.2427 C   0  0  0  0  0  0  0  0  0  0  0  0
    2.2107  -10.1993   -0.3673 O   0  0  0  0  0  0  0  0  0  0  0  0
    0.8413   -8.8949   -1.3489 O   0  0  0  0  0  0  0  0  0  0  0  0
    0.4851  -13.6283    2.7354 C   0  0  0  0  0  0  0  0  0  0  0  0
    1.5500  -14.3665    3.1469 C   0  0  0  0  0  0  0  0  0  0  0  0
    1.5962  -15.5819    2.3369 C   0  0  0  0  0  0  0  0  0  0  0  0
    2.6979  -15.7315    1.7727 O   0  0  0  0  0  0  0  0  0  0  0  0
    0.6715  -16.3954    2.2061 O   0  0  0  0  0  0  0  0  0  0  0  0
    1.1693   -5.6031    2.7412 O   0  0  0  0  0  0  0  0  0  0  0  0
 10 11  1  0
 11 12  1  0
 11 13  2  0
  5 14  1  0
 14 15  1  0
 15 16  1  0
 16 17  1  0
 16 18  2  0
  8 19  1  0
  2  3  1  0
  3  4  2  0
  4  5  1  0
  5  6  2  0
  6  7  1  0
  1  2  2  0
  2  7  1  0
  7 10  2  0
  9 10  1  0
  8  9  2  0
  1  8  1  0
M  END

$$$$
No_1100-/export/home/yangzhenyu/potential_scad_32_flow//YTHDC2/2024-12-06-03-22-00/
     RDKit          3D

 17 18  0  0  1  0  0  0  0  0999 V2000
    1.1787   -8.0297    3.5154 C   0  0  0  0  0  0  0  0  0  0  0  0
    1.1048   -9.2215    3.2892 C   0  0  0  0  0  0  0  0  0  0  0  0
    1.0239   -9.7790    2.0239 C   0  0  0  0  0  0  0  0  0  0  0  0
    1.1393   -9.0211    0.9686 C   0  0  0  0  0  0  0  0  0  0  0  0
    1.4050   -7.6500    1.1251 C   0  0  0  0  0  0  0  0  0  0  0  0
    1.4868   -7.1041    2.3534 C   0  0  1  0  0  0  0  0  0  0  0  0
    1.5885   -5.7190    2.5687 C   0  0  0  0  0  0  0  0  0  0  0  0
    0.8710  -11.2137    1.9144 C   0  0  0  0  0  0  0  0  0  0  0  0
   -0.2197  -11.6423    1.2255 N   0  0  0  0  0  0  0  0  0  0  0  0
   -0.2456  -12.9002    0.7970 C   0  0  0  0  0  0  0  0  0  0  0  0
   -1.0735  -13.2997   -0.1285 C   0  0  0  0  0  0  0  0  0  0  0  0
   -1.8943  -12.4582   -0.7489 C   0  0  0  0  0  0  0  0  0  0  0  0
   -1.8985  -11.1146   -0.3090 C   0  0  0  0  0  0  0  0  0  0  0  0
   -0.9870  -10.6765    0.5827 C   0  0  0  0  0  0  0  0  0  0  0  0
    1.8010  -11.9578    2.4575 O   0  0  0  0  0  0  0  0  0  0  0  0
    1.5286   -6.9375    0.0958 O   0  0  0  0  0  0  0  0  0  0  0  0
   -2.8120  -12.8776   -1.7219 O   0  0  0  0  0  0  0  0  0  0  0  0
  2  3  1  0
  4  5  1  0
  1  6  1  0
  5  6  1  0
  6  7  1  6
  3  8  1  0
  8  9  1  0
  9 10  1  0
 11 12  1  0
  9 14  1  0
 13 14  1  0
  8 15  2  0
  5 16  2  0
 12 17  1  0
 10 11  1  0
 12 13  1  0
  3  4  1  0
  1  2  1  0
M  END

$$$$
No_1101-/export/home/yangzhenyu/potential_scad_32_flow//YTHDC2/2024-12-06-03-22-00/
     RDKit          3D

 16 16  0  0  0  0  0  0  0  0999 V2000
    1.1787   -8.0297    3.5154 C   0  0  0  0  0  0  0  0  0  0  0  0
    1.1048   -9.2215    3.2892 C   0  0  0  0  0  0  0  0  0  0  0  0
    1.2339   -9.7611    2.0189 C   0  0  0  0  0  0  0  0  0  0  0  0
    1.3583   -9.0036    0.9764 C   0  0  0  0  0  0  0  0  0  0  0  0
    1.5996   -7.6362    1.1311 C   0  0  0  0  0  0  0  0  0  0  0  0
    1.4830   -7.0928    2.3626 C   0  0  0  0  0  0  0  0  0  0  0  0
    1.4898   -5.7274    2.6199 C   0  0  0  0  0  0  0  0  0  0  0  0
    1.1681  -11.2222    1.8390 C   0  0  0  0  0  0  0  0  0  0  0  0
    0.7145  -11.5870    0.5424 C   0  0  0  0  0  0  0  0  0  0  0  0
   -0.1922  -10.9837   -0.0791 N   0  0  0  0  0  0  0  0  0  0  0  0
   -1.3679  -11.4132    0.0317 C   0  0  0  0  0  0  0  0  0  0  0  0
   -2.4423  -10.5886   -0.5279 O   0  0  0  0  0  0  0  0  0  0  0  0
   -1.8595  -12.1169    1.1608 C   0  0  0  0  0  0  0  0  0  0  0  0
   -2.2835  -11.8503    2.2973 C   0  0  0  0  0  0  0  0  0  0  0  0
   -2.7131  -12.8266    3.2452 C   0  0  0  0  0  0  0  0  0  0  0  0
   -2.6772  -14.0030    2.8108 C   0  0  0  0  0  0  0  0  0  0  0  0
  6  7  1  0
  3  8  1  0
  8  9  1  0
  9 10  1  0
 10 11  1  0
 11 12  2  0
 11 13  1  0
 13 14  2  3
 14 15  1  0
 15 16  2  0
  1  2  2  0
  2  3  1  0
  3  4  2  0
  4  5  1  0
  5  6  2  0
  1  6  1  0
M  END

$$$$
No_1102-/export/home/yangzhenyu/potential_scad_32_flow//YTHDC2/2024-12-06-03-22-00/
     RDKit          3D

 18 18  0  0  1  0  0  0  0  0999 V2000
    1.1787   -8.0297    3.5154 C   0  0  0  0  0  0  0  0  0  0  0  0
    1.0491   -6.8434    2.9820 C   0  0  0  0  0  0  0  0  0  0  0  0
    0.9905   -9.0774    2.6527 C   0  0  0  0  0  0  0  0  0  0  0  0
    0.7897   -8.9519    1.3691 C   0  0  0  0  0  0  0  0  0  0  0  0
    0.7018   -7.7198    0.7892 C   0  0  0  0  0  0  0  0  0  0  0  0
    0.8918   -6.5957    1.6117 C   0  0  0  0  0  0  0  0  0  0  0  0
    1.0998  -10.4710    3.2437 C   0  0  0  0  0  0  0  0  0  0  0  0
    1.3102  -11.5554    2.5214 N   0  0  0  0  0  0  0  0  0  0  0  0
    1.4271  -12.7713    3.1438 C   0  0  0  0  0  0  0  0  0  0  0  0
    1.3143  -13.9699    2.4884 C   0  0  1  0  0  0  0  0  0  0  0  0
    1.8209  -14.1420    1.2689 C   0  0  0  0  0  0  0  0  0  0  0  0
    0.8554   -5.2544    1.2336 C   0  0  0  0  0  0  0  0  0  0  0  0
    1.0265  -10.6509    4.5197 O   0  0  0  0  0  0  0  0  0  0  0  0
    1.6516  -15.2098    0.6428 O   0  0  0  0  0  0  0  0  0  0  0  0
    2.6398  -13.1746    0.9047 O   0  0  0  0  0  0  0  0  0  0  0  0
    0.1918   -4.3115    2.0164 Cl  0  0  0  0  0  0  0  0  0  0  0  0
    0.7506  -15.0268    3.2535 C   0  0  0  0  0  0  0  0  0  0  0  0
   -0.3091  -15.5921    2.9933 C   0  0  0  0  0  0  0  0  0  0  0  0
  3  7  1  0
  7  8  1  0
  8  9  1  0
 10  9  1  1
 10 11  1  0
  6 12  1  0
  7 13  2  0
 11 14  2  0
 11 15  1  0
 12 16  1  0
 10 17  1  0
 17 18  1  0
  1  2  2  0
  2  6  1  0
  5  6  2  0
  4  5  1  0
  3  4  2  0
  1  3  1  0
M  END

$$$$
No_1103-/export/home/yangzhenyu/potential_scad_32_flow//YTHDC2/2024-12-06-03-22-00/
     RDKit          3D

 19 21  0  0  0  0  0  0  0  0999 V2000
    1.1787   -8.0297    3.5154 C   0  0  0  0  0  0  0  0  0  0  0  0
    1.0491   -6.8434    2.9820 C   0  0  0  0  0  0  0  0  0  0  0  0
    0.9905   -9.0774    2.6527 C   0  0  0  0  0  0  0  0  0  0  0  0
    0.7897   -8.9519    1.3691 C   0  0  0  0  0  0  0  0  0  0  0  0
    0.7018   -7.7198    0.7892 C   0  0  0  0  0  0  0  0  0  0  0  0
    0.8918   -6.5957    1.6117 C   0  0  0  0  0  0  0  0  0  0  0  0
    1.0711  -10.4814    3.2282 C   0  0  0  0  0  0  0  0  0  0  0  0
   -0.1055  -11.1328    3.5223 C   0  0  0  0  0  0  0  0  0  0  0  0
   -0.1824  -12.4513    3.3816 N   0  0  0  0  0  0  0  0  0  0  0  0
    0.9364  -13.1235    3.1787 C   0  0  0  0  0  0  0  0  0  0  0  0
    2.1736  -12.5827    2.9471 C   0  0  0  0  0  0  0  0  0  0  0  0
    2.1936  -11.2231    2.8429 C   0  0  0  0  0  0  0  0  0  0  0  0
    0.8680  -14.5888    3.2836 C   0  0  0  0  0  0  0  0  0  0  0  0
   -0.1125  -15.3274    3.2967 C   0  0  0  0  0  0  0  0  0  0  0  0
   -0.0855  -16.6682    3.7771 C   0  0  0  0  0  0  0  0  0  0  0  0
    1.1000  -17.2657    3.9152 C   0  0  0  0  0  0  0  0  0  0  0  0
    2.3249  -16.5743    3.7299 C   0  0  0  0  0  0  0  0  0  0  0  0
    2.2415  -15.2064    3.3271 C   0  0  0  0  0  0  0  0  0  0  0  0
    0.8572   -5.2760    1.1219 N   0  0  0  0  0  0  0  0  0  0  0  0
  3  7  1  0
 10 13  1  0
  6 19  1  0
 13 14  2  0
 14 15  1  0
 15 16  2  0
 16 17  1  0
 17 18  2  0
 13 18  1  0
  1  2  2  0
  2  6  1  0
  5  6  2  0
  4  5  1  0
  3  4  2  0
  1  3  1  0
  7  8  2  0
  8  9  1  0
  9 10  2  0
 10 11  1  0
 11 12  2  0
  7 12  1  0
M  END

$$$$
No_1104-/export/home/yangzhenyu/potential_scad_32_flow//YTHDC2/2024-12-06-03-22-00/
     RDKit          3D

 15 16  0  0  1  0  0  0  0  0999 V2000
    1.1787   -8.0297    3.5154 C   0  0  0  0  0  0  0  0  0  0  0  0
    1.1048   -9.2215    3.2892 C   0  0  0  0  0  0  0  0  0  0  0  0
    1.3627  -10.1721    4.3044 C   0  0  0  0  0  0  0  0  0  0  0  0
    1.0682  -11.5187    4.0618 C   0  0  0  0  0  0  0  0  0  0  0  0
    0.6332  -11.9655    2.9682 C   0  0  0  0  0  0  0  0  0  0  0  0
    0.4776  -11.1308    1.9203 C   0  0  0  0  0  0  0  0  0  0  0  0
    0.7470   -9.8274    2.0368 C   0  0  0  0  0  0  0  0  0  0  0  0
    1.0387   -7.0301    2.5175 C   0  0  0  0  0  0  0  0  0  0  0  0
    0.9130   -7.5288    1.2013 C   0  0  0  0  0  0  0  0  0  0  0  0
    0.7893   -8.7979    0.9542 C   0  0  0  0  0  0  0  0  0  0  0  0
    0.5241   -9.2578   -0.2817 C   0  0  2  0  0  0  0  0  0  0  0  0
    1.2450   -9.2169   -1.2769 O   0  0  0  0  0  0  0  0  0  0  0  0
   -0.7842   -9.6477   -0.5640 Cl  0  0  0  0  0  0  0  0  0  0  0  0
    0.5097  -13.3772    2.7068 C   0  0  0  0  0  0  0  0  0  0  0  0
   -0.6573  -13.9801    2.4049 O   0  0  0  0  0  0  0  0  0  0  0  0
 10 11  1  0
 11 12  1  6
 11 13  1  0
  5 14  1  0
 14 15  1  0
  2  3  1  0
  3  4  2  0
  4  5  1  0
  5  6  2  0
  6  7  1  0
  1  2  2  0
  2  7  1  0
  7 10  2  0
  9 10  1  0
  8  9  2  0
  1  8  1  0
M  END

$$$$
No_1105-/export/home/yangzhenyu/potential_scad_32_flow//YTHDC2/2024-12-06-03-22-00/
     RDKit          3D

 19 20  0  0  1  0  0  0  0  0999 V2000
    1.1787   -8.0297    3.5154 C   0  0  0  0  0  0  0  0  0  0  0  0
    1.0491   -6.8434    2.9820 O   0  0  0  0  0  0  0  0  0  0  0  0
    0.9046   -9.0606    2.6037 C   0  0  0  0  0  0  0  0  0  0  0  0
    1.1437  -10.3181    3.1506 C   0  0  0  0  0  0  0  0  0  0  0  0
    1.1328  -11.4259    2.3867 C   0  0  0  0  0  0  0  0  0  0  0  0
    0.9334  -11.3264    1.1173 C   0  0  0  0  0  0  0  0  0  0  0  0
    0.7913  -10.0894    0.5001 C   0  0  0  0  0  0  0  0  0  0  0  0
    0.8065   -8.9482    1.2829 C   0  0  0  0  0  0  0  0  0  0  0  0
    0.6895   -7.7637    0.7322 C   0  0  0  0  0  0  0  0  0  0  0  0
    1.0107   -6.5526    1.6499 C   0  0  0  0  0  0  0  0  0  0  0  0
    0.8236   -5.3050    1.2537 O   0  0  0  0  0  0  0  0  0  0  0  0
    1.4285  -12.9953    3.0796 C   0  0  0  0  0  0  0  0  0  0  0  0
    0.2907  -13.8441    2.9068 O   0  0  0  0  0  0  0  0  0  0  0  0
    0.7100  -15.0147    2.3772 C   0  0  1  0  0  0  0  0  0  0  0  0
    1.9815  -15.1420    2.1979 C   0  0  0  0  0  0  0  0  0  0  0  0
    2.3839  -16.5657    1.9766 O   0  0  0  0  0  0  0  0  0  0  0  0
    2.8430  -14.3434    1.8051 O   0  0  0  0  0  0  0  0  0  0  0  0
   -0.1914  -15.8961    2.6331 C   0  0  0  0  0  0  0  0  0  0  0  0
   -1.2112  -15.9961    1.8204 C   0  0  0  0  0  0  0  0  0  0  0  0
  1  2  1  0
  1  3  1  0
  8  9  1  0
  2 10  1  0
  9 10  1  0
 10 11  2  0
  5 12  1  0
 12 13  1  0
 14 13  1  1
 14 15  1  0
 15 16  2  0
 15 17  1  0
 14 18  1  0
 18 19  2  0
  3  4  2  0
  4  5  1  0
  5  6  2  0
  6  7  1  0
  7  8  2  0
  3  8  1  0
M  END

$$$$
No_1106-/export/home/yangzhenyu/potential_scad_32_flow//YTHDC2/2024-12-06-03-22-00/
     RDKit          3D

 18 18  0  0  1  0  0  0  0  0999 V2000
    1.1787   -8.0297    3.5154 C   0  0  0  0  0  0  0  0  0  0  0  0
    1.0491   -6.8434    2.9820 C   0  0  0  0  0  0  0  0  0  0  0  0
    0.9905   -9.0774    2.6527 C   0  0  0  0  0  0  0  0  0  0  0  0
    0.9687   -8.6883    1.3634 C   0  0  0  0  0  0  0  0  0  0  0  0
    1.0948   -6.3768    1.7686 C   0  0  0  0  0  0  0  0  0  0  0  0
    0.9504   -7.3975    0.8471 C   0  0  0  0  0  0  0  0  0  0  0  0
    0.9617   -9.7173    0.3352 C   0  0  0  0  0  0  0  0  0  0  0  0
    0.7096   -9.5224   -0.9434 O   0  0  0  0  0  0  0  0  0  0  0  0
    1.4181  -11.0071    0.5824 N   0  0  0  0  0  0  0  0  0  0  0  0
    0.9497  -12.0621    0.9458 C   0  0  0  0  0  0  0  0  0  0  0  0
   -0.3187  -12.4174    0.6821 O   0  0  0  0  0  0  0  0  0  0  0  0
    1.8617  -13.2805    1.1902 C   0  0  0  0  0  0  0  0  0  0  0  0
    1.0518   -4.8450    1.3446 O   0  0  0  0  0  0  0  0  0  0  0  0
    1.6926  -13.9408    2.4896 C   0  0  0  0  0  0  0  0  0  0  0  0
    2.0430  -15.3534    2.3931 C   0  0  1  0  0  0  0  0  0  0  0  0
    3.1305  -15.8763    1.8702 N   0  0  0  0  0  0  0  0  0  0  0  0
    1.1941  -16.1724    3.1217 C   0  0  0  0  0  0  0  0  0  0  0  0
    1.4070  -17.5017    3.2323 C   0  0  0  0  0  0  0  0  0  0  0  0
  4  7  1  0
  7  8  2  0
  7  9  1  0
  9 10  1  0
 10 11  2  0
 10 12  1  0
  5 13  1  0
 12 14  1  0
 14 15  1  0
 15 16  1  1
 15 17  1  0
 17 18  2  0
  1  2  2  0
  2  5  1  0
  5  6  2  0
  4  6  1  0
  3  4  2  0
  1  3  1  0
M  END

$$$$
No_1107-/export/home/yangzhenyu/potential_scad_32_flow//YTHDC2/2024-12-06-03-22-00/
     RDKit          3D

 13 14  0  0  0  0  0  0  0  0999 V2000
    1.1787   -8.0297    3.5154 N   0  0  0  0  0  0  0  0  0  0  0  0
    0.8669   -7.0905    2.8589 C   0  0  0  0  0  0  0  0  0  0  0  0
    0.8842   -5.8387    3.2677 N   0  0  0  0  0  0  0  0  0  0  0  0
    1.2385   -9.3073    2.9821 C   0  0  0  0  0  0  0  0  0  0  0  0
    1.0236   -9.3734    1.6597 C   0  0  0  0  0  0  0  0  0  0  0  0
    0.5860   -8.3784    0.8521 C   0  0  0  0  0  0  0  0  0  0  0  0
    0.5780   -7.1401    1.4384 C   0  0  0  0  0  0  0  0  0  0  0  0
    1.6996  -10.5713    3.8335 P   0  0  0  0  0  0  0  0  0  0  0  0
    0.4786  -11.1959    4.4606 O   0  0  0  0  0  0  0  0  0  0  0  0
    2.7716  -10.1710    4.9011 O   0  0  0  0  0  0  0  0  0  0  0  0
    0.2593   -5.9088    0.9142 N   0  0  0  0  0  0  0  0  0  0  0  0
    0.6700   -4.7148    2.7218 C   0  0  0  0  0  0  0  0  0  0  0  0
    0.3127   -4.7722    1.4788 C   0  0  0  0  0  0  0  0  0  0  0  0
  4  8  1  0
  8  9  2  0
  8 10  2  0
  2  3  1  0
  3 12  2  0
 12 13  1  0
 11 13  2  0
  7 11  1  0
  1  2  2  0
  2  7  1  0
  6  7  2  0
  5  6  1  0
  4  5  2  0
  1  4  1  0
M  END

$$$$
No_1108-/export/home/yangzhenyu/potential_scad_32_flow//YTHDC2/2024-12-06-03-22-00/
     RDKit          3D

 18 20  0  0  1  0  0  0  0  0999 V2000
    1.1787   -8.0297    3.5154 C   0  0  0  0  0  0  0  0  0  0  0  0
    1.0491   -6.8434    2.9820 C   0  0  0  0  0  0  0  0  0  0  0  0
    1.9985   -8.9840    2.8958 C   0  0  2  0  0  0  0  0  0  0  0  0
    1.7297   -9.2108    1.6335 C   0  0  0  0  0  0  0  0  0  0  0  0
    1.7343   -8.0566    0.8408 C   0  0  0  0  0  0  0  0  0  0  0  0
    1.0269   -6.8892    1.4456 C   0  0  0  0  0  0  0  0  0  0  0  0
    2.0740   -7.9416   -0.3682 O   0  0  0  0  0  0  0  0  0  0  0  0
    1.9646  -10.3580    3.5767 C   0  0  0  0  0  0  0  0  0  0  0  0
    1.1665  -11.3332    3.3170 C   0  0  0  0  0  0  0  0  0  0  0  0
    1.3428  -12.5965    3.9373 C   0  0  0  0  0  0  0  0  0  0  0  0
    0.6264  -13.6829    3.2496 C   0  0  0  0  0  0  0  0  0  0  0  0
   -0.2222  -13.3342    2.2234 N   0  0  0  0  0  0  0  0  0  0  0  0
   -0.0567  -11.9221    2.1094 C   0  0  2  0  0  0  0  0  0  0  0  0
   -0.9060  -13.9962    1.4558 C   0  0  0  0  0  0  0  0  0  0  0  0
   -1.4015  -13.3495    0.4055 C   0  0  0  0  0  0  0  0  0  0  0  0
   -1.1209  -11.8949    0.2210 C   0  0  0  0  0  0  0  0  0  0  0  0
   -0.3863  -11.2093    1.1755 C   0  0  0  0  0  0  0  0  0  0  0  0
   -1.6052  -11.2126   -0.9116 C   0  0  0  0  0  0  0  0  0  0  0  0
  1  2  1  0
  3  1  1  1
  3  4  1  0
  4  5  1  0
  2  6  1  0
  5  6  1  0
  5  7  2  0
  3  8  1  0
  8  9  2  3
  9 10  1  0
 10 11  2  0
 11 12  1  0
  9 13  1  0
 12 13  1  0
 12 14  1  0
 15 16  1  0
 13 17  1  6
 16 17  1  0
 16 18  1  0
 14 15  1  0
M  END

$$$$
No_1109-/export/home/yangzhenyu/potential_scad_32_flow//YTHDC2/2024-12-06-03-22-00/
     RDKit          3D

 17 17  0  0  1  0  0  0  0  0999 V2000
    1.1787   -8.0297    3.5154 C   0  0  0  0  0  0  0  0  0  0  0  0
    1.0491   -6.8434    2.9820 C   0  0  0  0  0  0  0  0  0  0  0  0
    0.9905   -9.0774    2.6527 C   0  0  0  0  0  0  0  0  0  0  0  0
    1.1655  -10.4663    3.1286 C   0  0  2  0  0  0  0  0  0  0  0  0
    1.7409  -10.6480    4.4599 C   0  0  0  0  0  0  0  0  0  0  0  0
    1.6536   -5.6667    3.5105 C   0  0  0  0  0  0  0  0  0  0  0  0
    1.0829  -11.4712    2.2542 C   0  0  0  0  0  0  0  0  0  0  0  0
    0.9891  -11.3970    0.9869 C   0  0  0  0  0  0  0  0  0  0  0  0
    2.2540  -10.8534    0.4165 C   0  0  0  0  0  0  0  0  0  0  0  0
    1.3783   -4.5138    2.8489 C   0  0  0  0  0  0  0  0  0  0  0  0
    0.5109   -4.4287    1.8477 C   0  0  0  0  0  0  0  0  0  0  0  0
    0.0384   -5.5391    1.2813 C   0  0  0  0  0  0  0  0  0  0  0  0
    0.2393   -6.7797    1.8355 C   0  0  0  0  0  0  0  0  0  0  0  0
    2.0828   -9.7020   -0.3833 C   0  0  0  0  0  0  0  0  0  0  0  0
    1.2119   -8.8071   -0.3311 O   0  0  0  0  0  0  0  0  0  0  0  0
    3.1993   -9.0653   -0.9334 O   0  0  0  0  0  0  0  0  0  0  0  0
    0.2960   -3.1203    1.2753 O   0  0  0  0  0  0  0  0  0  0  0  0
  1  2  1  0
  1  3  2  3
  3  4  1  0
  4  5  1  6
  4  7  1  0
  7  8  1  0
  8  9  1  0
  9 14  1  0
 14 15  2  0
 14 16  1  0
 11 17  1  0
  2  6  2  0
  6 10  1  0
 10 11  2  0
 11 12  1  0
 12 13  2  0
  2 13  1  0
M  END

$$$$
No_1110-/export/home/yangzhenyu/potential_scad_32_flow//YTHDC2/2024-12-06-03-22-00/
     RDKit          3D

 20 21  0  0  1  0  0  0  0  0999 V2000
    1.1787   -8.0297    3.5154 C   0  0  0  0  0  0  0  0  0  0  0  0
    1.1048   -9.2215    3.2892 C   0  0  0  0  0  0  0  0  0  0  0  0
    1.2339   -9.7611    2.0189 C   0  0  0  0  0  0  0  0  0  0  0  0
    1.3583   -9.0036    0.9764 C   0  0  0  0  0  0  0  0  0  0  0  0
    1.5996   -7.6362    1.1311 C   0  0  0  0  0  0  0  0  0  0  0  0
    1.4830   -7.0928    2.3626 C   0  0  0  0  0  0  0  0  0  0  0  0
    1.4898   -5.7274    2.6199 C   0  0  0  0  0  0  0  0  0  0  0  0
    1.1681  -11.2222    1.8390 C   0  0  0  0  0  0  0  0  0  0  0  0
    0.7145  -11.5870    0.5424 C   0  0  0  0  0  0  0  0  0  0  0  0
    0.5927  -13.0110    0.4510 C   0  0  0  0  0  0  0  0  0  0  0  0
    0.9525  -13.8879    1.4418 C   0  0  2  0  0  0  0  0  0  0  0  0
    1.4790  -13.3992    2.6566 C   0  0  0  0  0  0  0  0  0  0  0  0
    1.5748  -12.0402    2.8872 C   0  0  0  0  0  0  0  0  0  0  0  0
    1.6978   -5.1711    3.8675 O   0  0  0  0  0  0  0  0  0  0  0  0
    1.3628   -4.8279    1.6672 O   0  0  0  0  0  0  0  0  0  0  0  0
    2.1221  -11.5412    3.9804 O   0  0  0  0  0  0  0  0  0  0  0  0
    0.9376  -15.2407    1.2373 Cl  0  0  0  0  0  0  0  0  0  0  0  0
    1.6352   -9.4705   -0.5492 O   0  0  0  0  0  0  0  0  0  0  0  0
    1.8767  -14.2190    3.6258 O   0  0  0  0  0  0  0  0  0  0  0  0
    0.0469  -13.5668   -0.7044 O   0  0  0  0  0  0  0  0  0  0  0  0
  6  7  1  0
  3  8  1  0
  8  9  1  0
 10 11  1  0
  8 13  1  0
 12 13  1  0
  7 14  1  0
  7 15  2  0
 13 16  2  0
 11 17  1  6
  4 18  1  0
 12 19  1  0
 10 20  1  0
  9 10  1  0
 11 12  1  0
  1  2  2  0
  2  3  1  0
  3  4  2  0
  4  5  1  0
  5  6  2  0
  1  6  1  0
M  END

$$$$
No_1111-/export/home/yangzhenyu/potential_scad_32_flow//YTHDC2/2024-12-06-03-22-00/
     RDKit          3D

 19 20  0  0  1  0  0  0  0  0999 V2000
    1.1787   -8.0297    3.5154 C   0  0  0  0  0  0  0  0  0  0  0  0
    1.1048   -9.2215    3.2892 C   0  0  0  0  0  0  0  0  0  0  0  0
    1.0239   -9.7790    2.0239 C   0  0  2  0  0  0  0  0  0  0  0  0
    1.0632  -11.2393    1.8978 C   0  0  0  0  0  0  0  0  0  0  0  0
    1.2664   -7.1133    2.3309 C   0  0  1  0  0  0  0  0  0  0  0  0
    1.2080   -7.6832    1.0760 C   0  0  0  0  0  0  0  0  0  0  0  0
    1.1535   -8.9837    0.8897 C   0  0  0  0  0  0  0  0  0  0  0  0
    1.5434  -12.1192    2.7356 C   0  0  0  0  0  0  0  0  0  0  0  0
    1.4960  -13.4804    2.4774 C   0  0  0  0  0  0  0  0  0  0  0  0
    0.9784  -14.0090    1.4059 C   0  0  0  0  0  0  0  0  0  0  0  0
    0.5177  -13.1808    0.4753 C   0  0  0  0  0  0  0  0  0  0  0  0
    0.5445  -11.8006    0.6518 C   0  0  0  0  0  0  0  0  0  0  0  0
    1.1499   -9.4324   -0.3667 O   0  0  0  0  0  0  0  0  0  0  0  0
    1.3331   -5.4449    2.5626 C   0  0  0  0  0  0  0  0  0  0  0  0
    2.0498  -14.3755    3.4882 F   0  0  0  0  0  0  0  0  0  0  0  0
    0.4080   -4.8037    2.4827 C   0  0  0  0  0  0  0  0  0  0  0  0
    0.4883   -3.3287    2.7659 C   0  0  0  0  0  0  0  0  0  0  0  0
   -0.3638   -2.6962    3.1350 C   0  0  0  0  0  0  0  0  0  0  0  0
   -0.3748   -2.5247    4.6053 C   0  0  0  0  0  0  0  0  0  0  0  0
  2  3  1  0
  3  4  1  1
  1  5  1  0
  3  7  1  0
  6  7  1  0
  7 13  2  0
  5 14  1  1
  9 15  1  0
 14 16  1  0
 16 17  1  0
 17 18  1  0
 18 19  1  0
  1  2  1  0
  5  6  1  0
  4  8  2  0
  8  9  1  0
  9 10  2  0
 10 11  1  0
 11 12  2  0
  4 12  1  0
M  END

$$$$
No_1112-/export/home/yangzhenyu/potential_scad_32_flow//YTHDC2/2024-12-06-03-22-00/
     RDKit          3D

 19 20  0  0  1  0  0  0  0  0999 V2000
    1.1787   -8.0297    3.5154 C   0  0  0  0  0  0  0  0  0  0  0  0
    1.0491   -6.8434    2.9820 C   0  0  0  0  0  0  0  0  0  0  0  0
    0.9905   -9.0774    2.6527 C   0  0  0  0  0  0  0  0  0  0  0  0
    0.7897   -8.9519    1.3691 C   0  0  0  0  0  0  0  0  0  0  0  0
    0.7018   -7.7198    0.7892 C   0  0  0  0  0  0  0  0  0  0  0  0
    0.8918   -6.5957    1.6117 C   0  0  0  0  0  0  0  0  0  0  0  0
    1.0711  -10.4814    3.2282 C   0  0  0  0  0  0  0  0  0  0  0  0
   -0.1055  -11.1328    3.5223 C   0  0  0  0  0  0  0  0  0  0  0  0
   -0.1824  -12.4513    3.3816 N   0  0  0  0  0  0  0  0  0  0  0  0
    0.9364  -13.1235    3.1787 C   0  0  0  0  0  0  0  0  0  0  0  0
    2.1736  -12.5827    2.9471 C   0  0  0  0  0  0  0  0  0  0  0  0
    2.1936  -11.2231    2.8429 C   0  0  0  0  0  0  0  0  0  0  0  0
    0.8680  -14.5888    3.2836 C   0  0  0  0  0  0  0  0  0  0  0  0
    0.9932  -15.3856    2.2356 C   0  0  0  0  0  0  0  0  0  0  0  0
    0.7206  -15.0161    1.1654 C   0  0  1  0  0  0  0  0  0  0  0  0
    1.5296  -14.2224    0.4618 C   0  0  0  0  0  0  0  0  0  0  0  0
    0.8489   -5.2798    1.1187 Cl  0  0  0  0  0  0  0  0  0  0  0  0
   -0.2254  -15.6423    0.3879 C   0  0  0  0  0  0  0  0  0  0  0  0
   -0.6376  -15.1746   -0.8536 O   0  0  0  0  0  0  0  0  0  0  0  0
  3  7  1  0
 10 13  1  0
 13 14  1  0
 14 15  1  0
 15 16  1  6
  6 17  1  0
 15 18  1  0
 18 19  2  0
  1  2  2  0
  2  6  1  0
  5  6  2  0
  4  5  1  0
  3  4  2  0
  1  3  1  0
  7  8  2  0
  8  9  1  0
  9 10  2  0
 10 11  1  0
 11 12  2  0
  7 12  1  0
M  END

$$$$
No_1113-/export/home/yangzhenyu/potential_scad_32_flow//YTHDC2/2024-12-06-03-22-00/
     RDKit          3D

 19 20  0  0  1  0  0  0  0  0999 V2000
    1.1787   -8.0297    3.5154 C   0  0  0  0  0  0  0  0  0  0  0  0
    1.0491   -6.8434    2.9820 C   0  0  0  0  0  0  0  0  0  0  0  0
    0.9905   -9.0774    2.6527 C   0  0  0  0  0  0  0  0  0  0  0  0
    0.7897   -8.9519    1.3691 C   0  0  0  0  0  0  0  0  0  0  0  0
    0.7018   -7.7198    0.7892 C   0  0  0  0  0  0  0  0  0  0  0  0
    0.8918   -6.5957    1.6117 C   0  0  0  0  0  0  0  0  0  0  0  0
    1.0600  -10.5680    3.3321 C   0  0  0  0  0  0  0  0  0  0  0  0
    2.1422  -11.0089    3.6867 C   0  0  0  0  0  0  0  0  0  0  0  0
    0.8986   -5.2530    1.1685 C   0  0  0  0  0  0  0  0  0  0  0  0
   -0.0562  -11.2191    3.4645 C   0  0  0  0  0  0  0  0  0  0  0  0
   -0.1830  -12.4497    3.1726 C   0  0  0  0  0  0  0  0  0  0  0  0
    2.2258  -12.4450    3.8210 C   0  0  0  0  0  0  0  0  0  0  0  0
    1.1273  -13.1937    3.5665 C   0  0  0  0  0  0  0  0  0  0  0  0
    1.2109  -14.5797    3.5845 O   0  0  0  0  0  0  0  0  0  0  0  0
   -0.1972   -4.7441    0.7150 C   0  0  1  0  0  0  0  0  0  0  0  0
   -1.3808   -5.4049    0.8660 C   0  0  0  0  0  0  0  0  0  0  0  0
   -0.2150   -3.4015    0.5258 C   0  0  0  0  0  0  0  0  0  0  0  0
   -1.0370   -2.8314   -0.4559 C   0  0  0  0  0  0  0  0  0  0  0  0
   -2.1977   -3.6101   -0.6706 C   0  0  0  0  0  0  0  0  0  0  0  0
  3  7  1  0
  7  8  1  0
  6  9  1  0
  7 10  1  0
 11 13  1  0
 12 13  1  0
 13 14  2  0
  9 15  1  0
 15 16  1  1
 15 17  1  0
 17 18  2  3
 18 19  1  0
 10 11  1  0
  8 12  1  0
  1  2  2  0
  2  6  1  0
  5  6  2  0
  4  5  1  0
  3  4  2  0
  1  3  1  0
M  END

$$$$
No_1114-/export/home/yangzhenyu/potential_scad_32_flow//YTHDC2/2024-12-06-03-22-00/
     RDKit          3D

 17 17  0  0  1  0  0  0  0  0999 V2000
    1.1787   -8.0297    3.5154 C   0  0  0  0  0  0  0  0  0  0  0  0
    1.0491   -6.8434    2.9820 C   0  0  0  0  0  0  0  0  0  0  0  0
    0.9905   -9.0774    2.6527 C   0  0  0  0  0  0  0  0  0  0  0  0
    0.7897   -8.9519    1.3691 C   0  0  0  0  0  0  0  0  0  0  0  0
    0.7018   -7.7198    0.7892 C   0  0  0  0  0  0  0  0  0  0  0  0
    0.8918   -6.5957    1.6117 C   0  0  0  0  0  0  0  0  0  0  0  0
    1.0998  -10.4710    3.2437 C   0  0  2  0  0  0  0  0  0  0  0  0
    2.1917  -10.8879    3.7399 C   0  0  0  0  0  0  0  0  0  0  0  0
    0.8624   -5.2493    1.2482 C   0  0  0  0  0  0  0  0  0  0  0  0
    0.4931  -11.5180    2.4119 C   0  0  0  0  0  0  0  0  0  0  0  0
   -0.8655  -11.6428    2.6910 C   0  0  0  0  0  0  0  0  0  0  0  0
   -1.4329  -10.7858    3.7146 O   0  0  0  0  0  0  0  0  0  0  0  0
   -1.6659  -12.4694    2.2670 N   0  0  0  0  0  0  0  0  0  0  0  0
   -1.2736  -13.4791    1.4388 C   0  0  0  0  0  0  0  0  0  0  0  0
    2.6771  -12.0133    4.1069 O   0  0  0  0  0  0  0  0  0  0  0  0
   -1.9120  -14.3386    1.1587 C   0  0  0  0  0  0  0  0  0  0  0  0
   -3.2657  -14.4814    1.5921 C   0  0  0  0  0  0  0  0  0  0  0  0
  3  7  1  0
  7  8  1  0
  6  9  1  0
  7 10  1  6
 10 11  1  0
 11 12  2  0
 11 13  1  0
 13 14  1  0
  8 15  2  0
 14 16  2  3
 16 17  1  0
  1  2  2  0
  2  6  1  0
  5  6  2  0
  4  5  1  0
  3  4  2  0
  1  3  1  0
M  END

$$$$
No_1115-/export/home/yangzhenyu/potential_scad_32_flow//YTHDC2/2024-12-06-03-22-00/
     RDKit          3D

 19 20  0  0  1  0  0  0  0  0999 V2000
    1.1787   -8.0297    3.5154 C   0  0  0  0  0  0  0  0  0  0  0  0
    1.1048   -9.2215    3.2892 C   0  0  0  0  0  0  0  0  0  0  0  0
    1.2339   -9.7611    2.0189 C   0  0  0  0  0  0  0  0  0  0  0  0
    1.1954  -11.2312    1.8661 C   0  0  2  0  0  0  0  0  0  0  0  0
    1.5546  -12.1691    2.7931 C   0  0  0  0  0  0  0  0  0  0  0  0
    0.9527   -7.0669    2.3918 C   0  0  0  0  0  0  0  0  0  0  0  0
    1.0618   -7.6392    1.0692 C   0  0  0  0  0  0  0  0  0  0  0  0
    1.2060   -8.9530    0.8578 C   0  0  0  0  0  0  0  0  0  0  0  0
    0.7976  -13.2804    2.9292 C   0  0  0  0  0  0  0  0  0  0  0  0
    0.6522  -14.0376    1.7512 C   0  0  2  0  0  0  0  0  0  0  0  0
    0.2167  -13.0869    0.6758 C   0  0  0  0  0  0  0  0  0  0  0  0
    0.9507  -11.8372    0.6586 C   0  0  0  0  0  0  0  0  0  0  0  0
    0.9938   -5.5050    2.4777 Br  0  0  0  0  0  0  0  0  0  0  0  0
    1.2604   -9.4575   -0.3504 C   0  0  0  0  0  0  0  0  0  0  0  0
    0.2291   -9.8497   -0.9309 O   0  0  0  0  0  0  0  0  0  0  0  0
    2.3792   -9.3223   -1.0590 O   0  0  0  0  0  0  0  0  0  0  0  0
   -0.2586  -15.1556    1.9227 C   0  0  0  0  0  0  0  0  0  0  0  0
    0.0282  -16.1400    1.5240 C   0  0  0  0  0  0  0  0  0  0  0  0
    1.2832  -16.3581    0.7800 C   0  0  0  0  0  0  0  0  0  0  0  0
  4  3  1  6
  4  5  1  0
  5  9  1  0
 10  9  1  1
 10 11  1  0
  4 12  1  0
 11 12  1  0
  6 13  1  0
  8 14  1  0
 14 15  2  0
 14 16  1  0
 10 17  1  0
 17 18  2  3
 18 19  1  0
  1  2  2  0
  2  3  1  0
  3  8  2  0
  7  8  1  0
  6  7  2  0
  1  6  1  0
M  END

$$$$
No_1116-/export/home/yangzhenyu/potential_scad_32_flow//YTHDC2/2024-12-06-03-22-00/
     RDKit          3D

 20 20  0  0  0  0  0  0  0  0999 V2000
    1.1787   -8.0297    3.5154 C   0  0  0  0  0  0  0  0  0  0  0  0
    1.0491   -6.8434    2.9820 C   0  0  0  0  0  0  0  0  0  0  0  0
    1.9985   -8.9840    2.8958 C   0  0  0  0  0  0  0  0  0  0  0  0
    1.7297   -9.2108    1.6335 C   0  0  0  0  0  0  0  0  0  0  0  0
    1.5234   -8.1478    0.8618 C   0  0  0  0  0  0  0  0  0  0  0  0
    1.0558   -6.9632    1.4912 C   0  0  0  0  0  0  0  0  0  0  0  0
    1.5402   -8.1720   -0.5079 C   0  0  0  0  0  0  0  0  0  0  0  0
    1.5726   -9.3078   -1.0566 O   0  0  0  0  0  0  0  0  0  0  0  0
    2.2112  -10.4558    3.7143 C   0  0  0  0  0  0  0  0  0  0  0  0
    3.1076  -10.3314    4.4929 N   0  0  0  0  0  0  0  0  0  0  0  0
    1.6074  -11.4797    3.4488 O   0  0  0  0  0  0  0  0  0  0  0  0
    3.5878  -11.4546    5.2892 C   0  0  0  0  0  0  0  0  0  0  0  0
    1.6917   -7.3386   -1.2958 O   0  0  0  0  0  0  0  0  0  0  0  0
    5.0397  -10.8386    5.5526 C   0  0  0  0  0  0  0  0  0  0  0  0
    0.7057   -5.7021    3.5498 O   0  0  0  0  0  0  0  0  0  0  0  0
    0.7783   -4.5122    2.9317 C   0  0  0  0  0  0  0  0  0  0  0  0
    1.9697   -3.8869    3.1291 C   0  0  0  0  0  0  0  0  0  0  0  0
    2.2212   -2.7006    2.2589 C   0  0  0  0  0  0  0  0  0  0  0  0
    2.1128   -3.1696    0.7406 C   0  0  0  0  0  0  0  0  0  0  0  0
    0.7948   -2.7996    0.5234 C   0  0  0  0  0  0  0  0  0  0  0  0
  5  7  1  0
  7  8  2  0
  3  9  1  0
  9 10  1  0
  9 11  2  0
 10 12  1  0
  7 13  1  0
 12 14  1  0
  2 15  1  0
 15 16  1  0
 16 17  1  0
 17 18  1  0
 18 19  1  0
 19 20  1  0
  1  2  2  0
  2  6  1  0
  5  6  2  0
  4  5  1  0
  3  4  2  0
  1  3  1  0
M  END

$$$$
No_1117-/export/home/yangzhenyu/potential_scad_32_flow//YTHDC2/2024-12-06-03-22-00/
     RDKit          3D

 18 19  0  0  0  0  0  0  0  0999 V2000
    1.1787   -8.0297    3.5154 C   0  0  0  0  0  0  0  0  0  0  0  0
    1.1048   -9.2215    3.2892 C   0  0  0  0  0  0  0  0  0  0  0  0
    1.3627  -10.1721    4.3044 C   0  0  0  0  0  0  0  0  0  0  0  0
    1.0682  -11.5187    4.0618 C   0  0  0  0  0  0  0  0  0  0  0  0
    0.6332  -11.9655    2.9682 C   0  0  0  0  0  0  0  0  0  0  0  0
    0.4776  -11.1308    1.9203 C   0  0  0  0  0  0  0  0  0  0  0  0
    0.7470   -9.8274    2.0368 C   0  0  0  0  0  0  0  0  0  0  0  0
    1.0387   -7.0301    2.5175 C   0  0  0  0  0  0  0  0  0  0  0  0
    0.9130   -7.5288    1.2013 C   0  0  0  0  0  0  0  0  0  0  0  0
    0.7893   -8.7979    0.9542 C   0  0  0  0  0  0  0  0  0  0  0  0
    0.5241   -9.2578   -0.2817 C   0  0  0  0  0  0  0  0  0  0  0  0
   -0.1121   -8.6523   -1.0898 N   0  0  0  0  0  0  0  0  0  0  0  0
    0.4971  -13.3750    2.6833 C   0  0  0  0  0  0  0  0  0  0  0  0
   -0.6798  -13.9334    2.3531 C   0  0  0  0  0  0  0  0  0  0  0  0
    1.6562  -14.2525    2.7415 C   0  0  0  0  0  0  0  0  0  0  0  0
    1.9380  -15.1974    1.7802 C   0  0  0  0  0  0  0  0  0  0  0  0
    1.5452  -14.9390    0.6663 C   0  0  0  0  0  0  0  0  0  0  0  0
   -0.8275   -7.6614   -1.0880 O   0  0  0  0  0  0  0  0  0  0  0  0
 10 11  1  0
 11 12  1  0
  5 13  1  0
 13 14  1  0
 13 15  1  0
 15 16  1  0
 16 17  1  0
 12 18  2  0
  2  3  1  0
  3  4  2  0
  4  5  1  0
  5  6  2  0
  6  7  1  0
  1  2  2  0
  2  7  1  0
  7 10  2  0
  9 10  1  0
  8  9  2  0
  1  8  1  0
M  END

$$$$
No_1118-/export/home/yangzhenyu/potential_scad_32_flow//YTHDC2/2024-12-06-03-22-00/
     RDKit          3D

 17 17  0  0  1  0  0  0  0  0999 V2000
    1.1787   -8.0297    3.5154 C   0  0  0  0  0  0  0  0  0  0  0  0
    1.1048   -9.2215    3.2892 C   0  0  0  0  0  0  0  0  0  0  0  0
    1.3627  -10.1721    4.3044 C   0  0  0  0  0  0  0  0  0  0  0  0
    1.7354  -11.4730    3.9023 C   0  0  0  0  0  0  0  0  0  0  0  0
    1.8080  -11.8127    2.7216 C   0  0  0  0  0  0  0  0  0  0  0  0
    1.5854  -11.0021    1.7249 C   0  0  0  0  0  0  0  0  0  0  0  0
    1.3573   -9.7389    1.9287 C   0  0  0  0  0  0  0  0  0  0  0  0
    1.2865   -8.8078    0.9161 C   0  0  0  0  0  0  0  0  0  0  0  0
    0.9210   -7.5140    1.1674 O   0  0  0  0  0  0  0  0  0  0  0  0
    1.4288   -9.1781   -0.4279 O   0  0  0  0  0  0  0  0  0  0  0  0
    2.0879  -13.2053    2.3135 I   0  0  0  0  0  0  0  0  0  0  0  0
    0.1325   -7.1857    3.6769 N   0  0  0  0  0  0  0  0  0  0  0  0
    0.0473   -5.9918    3.1947 C   0  0  2  0  0  0  0  0  0  0  0  0
    1.1314   -5.0378    3.3325 C   0  0  0  0  0  0  0  0  0  0  0  0
   -1.0726   -5.3825    2.6507 C   0  0  0  0  0  0  0  0  0  0  0  0
   -0.9771   -4.2068    1.8211 C   0  0  0  0  0  0  0  0  0  0  0  0
    0.1832   -3.4465    1.9176 C   0  0  0  0  0  0  0  0  0  0  0  0
  1  2  1  0
  7  8  1  0
  8  9  2  0
  8 10  1  0
  5 11  1  0
  1 12  1  0
 12 13  1  0
 13 14  1  1
 13 15  1  0
 15 16  2  3
 16 17  1  0
  2  3  2  0
  3  4  1  0
  4  5  2  0
  5  6  1  0
  6  7  2  0
  2  7  1  0
M  END

$$$$
No_1119-/export/home/yangzhenyu/potential_scad_32_flow//YTHDC2/2024-12-06-03-22-00/
     RDKit          3D

 17 17  0  0  1  0  0  0  0  0999 V2000
    1.1787   -8.0297    3.5154 O   0  0  0  0  0  0  0  0  0  0  0  0
    0.9969   -8.9689    3.0048 C   0  0  0  0  0  0  0  0  0  0  0  0
    1.3055  -10.1056    3.6616 C   0  0  0  0  0  0  0  0  0  0  0  0
    1.5709  -11.1115    3.2016 C   0  0  0  0  0  0  0  0  0  0  0  0
    1.6332  -11.2629    1.7349 C   0  0  0  0  0  0  0  0  0  0  0  0
    1.4616  -10.1742    0.9691 C   0  0  0  0  0  0  0  0  0  0  0  0
    1.1252   -9.0006    1.6051 C   0  0  0  0  0  0  0  0  0  0  0  0
    0.8275   -7.7749    1.0285 C   0  0  0  0  0  0  0  0  0  0  0  0
    0.2093   -7.9203   -0.1052 O   0  0  0  0  0  0  0  0  0  0  0  0
    0.8064   -6.5425    1.4558 O   0  0  0  0  0  0  0  0  0  0  0  0
    1.9558  -12.6073    3.9589 C   0  0  0  0  0  0  0  0  0  0  0  0
    0.9486  -13.6683    3.4715 O   0  0  0  0  0  0  0  0  0  0  0  0
    1.4146  -14.7935    3.1156 C   0  0  0  0  0  0  0  0  0  0  0  0
    0.3754  -15.7427    2.9569 C   0  0  0  0  0  0  0  0  0  0  0  0
    0.4872  -16.8149    3.7215 C   0  0  1  0  0  0  0  0  0  0  0  0
   -0.4385  -17.2330    4.3604 O   0  0  0  0  0  0  0  0  0  0  0  0
    1.2702  -17.9591    3.3383 C   0  0  0  0  0  0  0  0  0  0  0  0
  1  2  1  0
  7  8  1  0
  8  9  2  0
  8 10  1  0
  4 11  1  0
 11 12  1  0
 12 13  1  0
 13 14  1  0
 14 15  1  0
 15 16  1  0
 15 17  1  6
  2  3  2  0
  3  4  1  0
  4  5  2  0
  5  6  1  0
  6  7  2  0
  2  7  1  0
M  END

$$$$
No_1120-/export/home/yangzhenyu/potential_scad_32_flow//YTHDC2/2024-12-06-03-22-00/
     RDKit          3D

 19 19  0  0  1  0  0  0  0  0999 V2000
    1.1787   -8.0297    3.5154 C   0  0  0  0  0  0  0  0  0  0  0  0
    1.0491   -6.8434    2.9820 F   0  0  0  0  0  0  0  0  0  0  0  0
    2.2352   -8.8249    2.8819 C   0  0  0  0  0  0  0  0  0  0  0  0
    2.2285  -10.1834    3.4417 C   0  0  0  0  0  0  0  0  0  0  0  0
    1.2164  -10.7837    4.1268 C   0  0  0  0  0  0  0  0  0  0  0  0
    1.1343  -12.1967    4.4089 C   0  0  0  0  0  0  0  0  0  0  0  0
    0.3827  -12.8950    3.3661 C   0  0  1  0  0  0  0  0  0  0  0  0
   -0.5930  -12.1667    2.7836 C   0  0  1  0  0  0  0  0  0  0  0  0
   -1.4367  -12.9580    1.9451 C   0  0  2  0  0  0  0  0  0  0  0  0
   -1.0285  -14.1128    1.5147 C   0  0  2  0  0  0  0  0  0  0  0  0
    0.1155  -14.7144    1.8758 C   0  0  1  0  0  0  0  0  0  0  0  0
    0.8858  -14.0977    2.9336 C   0  0  0  0  0  0  0  0  0  0  0  0
    0.1650   -8.5214    4.0359 F   0  0  0  0  0  0  0  0  0  0  0  0
    1.9751  -14.6327    3.4152 O   0  0  0  0  0  0  0  0  0  0  0  0
   -2.5628  -12.2881    1.2356 Cl  0  0  0  0  0  0  0  0  0  0  0  0
   -1.8160  -14.8798    0.2507 Cl  0  0  0  0  0  0  0  0  0  0  0  0
    3.3598  -10.8792    2.8614 O   0  0  0  0  0  0  0  0  0  0  0  0
    0.5124  -16.0437    1.5916 Cl  0  0  0  0  0  0  0  0  0  0  0  0
   -1.1306  -10.9640    3.3387 Cl  0  0  0  0  0  0  0  0  0  0  0  0
  1  2  1  0
  1  3  1  0
  3  4  2  3
  4  5  1  0
  5  6  1  0
  7  6  1  6
  7  8  1  0
  9 10  1  0
  7 12  1  0
 11 12  1  0
  1 13  1  0
 12 14  2  0
  9 15  1  6
 10 16  1  6
  4 17  1  0
 11 18  1  1
  8 19  1  1
  8  9  1  0
 10 11  1  0
M  END

$$$$
No_1121-/export/home/yangzhenyu/potential_scad_32_flow//YTHDC2/2024-12-06-03-22-00/
     RDKit          3D

 18 18  0  0  1  0  0  0  0  0999 V2000
    1.1787   -8.0297    3.5154 C   0  0  0  0  0  0  0  0  0  0  0  0
    1.0491   -6.8434    2.9820 C   0  0  0  0  0  0  0  0  0  0  0  0
    1.9985   -8.9840    2.8958 C   0  0  0  0  0  0  0  0  0  0  0  0
    1.1815  -10.1889    2.5497 C   0  0  2  0  0  0  0  0  0  0  0  0
    0.3496  -10.1352    1.6536 C   0  0  1  0  0  0  0  0  0  0  0  0
   -0.8355  -10.5689    1.8958 C   0  0  0  0  0  0  0  0  0  0  0  0
   -1.0417  -11.4149    2.9972 C   0  0  0  0  0  0  0  0  0  0  0  0
    0.0974  -11.7237    3.8799 C   0  0  0  0  0  0  0  0  0  0  0  0
    1.2333  -10.9395    3.7501 C   0  0  0  0  0  0  0  0  0  0  0  0
    1.7731   -5.7931    3.0567 O   0  0  0  0  0  0  0  0  0  0  0  0
    0.1792   -6.6547    1.9107 O   0  0  0  0  0  0  0  0  0  0  0  0
    2.3276  -11.1329    4.4447 O   0  0  0  0  0  0  0  0  0  0  0  0
    0.4769   -9.3222    0.4466 C   0  0  0  0  0  0  0  0  0  0  0  0
   -0.5660   -8.8891   -0.2920 C   0  0  0  0  0  0  0  0  0  0  0  0
   -0.3771   -8.4071   -1.6040 C   0  0  0  0  0  0  0  0  0  0  0  0
   -0.9735   -8.4973   -2.4792 O   0  0  0  0  0  0  0  0  0  0  0  0
    0.7490   -7.8749   -1.9405 O   0  0  0  0  0  0  0  0  0  0  0  0
    1.3451   -4.4924    2.5754 C   0  0  0  0  0  0  0  0  0  0  0  0
  1  2  1  0
  1  3  1  0
  4  3  1  1
  4  5  1  0
  6  7  1  0
  4  9  1  0
  8  9  1  0
  2 10  1  0
  2 11  2  0
  9 12  2  0
  5 13  1  0
 13 14  2  3
 14 15  1  0
 15 16  2  0
 15 17  1  0
 10 18  1  0
  5  6  1  1
  7  8  1  0
M  END

$$$$
No_1122-/export/home/yangzhenyu/potential_scad_32_flow//YTHDC2/2024-12-06-03-22-00/
     RDKit          3D

 18 19  0  0  0  0  0  0  0  0999 V2000
    1.1787   -8.0297    3.5154 C   0  0  0  0  0  0  0  0  0  0  0  0
    1.1048   -9.2215    3.2892 C   0  0  0  0  0  0  0  0  0  0  0  0
    1.2339   -9.7611    2.0189 C   0  0  0  0  0  0  0  0  0  0  0  0
    1.3583   -9.0036    0.9764 C   0  0  0  0  0  0  0  0  0  0  0  0
    1.5996   -7.6362    1.1311 C   0  0  0  0  0  0  0  0  0  0  0  0
    1.4830   -7.0928    2.3626 C   0  0  0  0  0  0  0  0  0  0  0  0
    1.1008  -11.2372    1.8542 C   0  0  0  0  0  0  0  0  0  0  0  0
    0.4812  -11.6084    0.6459 N   0  0  0  0  0  0  0  0  0  0  0  0
    1.7135  -12.0836    2.6110 C   0  0  0  0  0  0  0  0  0  0  0  0
    2.0736  -11.9711    3.8085 C   0  0  0  0  0  0  0  0  0  0  0  0
    1.5447  -13.4672    2.0456 C   0  0  0  0  0  0  0  0  0  0  0  0
    1.0019  -13.5051    0.9733 C   0  0  0  0  0  0  0  0  0  0  0  0
    0.4699  -12.6803    0.2052 N   0  0  0  0  0  0  0  0  0  0  0  0
    1.5471   -5.6678    2.6800 Cl  0  0  0  0  0  0  0  0  0  0  0  0
    2.1358  -14.5568    2.8418 C   0  0  0  0  0  0  0  0  0  0  0  0
    2.6859  -15.5820    2.2113 C   0  0  0  0  0  0  0  0  0  0  0  0
    2.8762  -16.7933    2.8756 N   0  0  0  0  0  0  0  0  0  0  0  0
    2.0743  -17.2829    3.7250 O   0  0  0  0  0  0  0  0  0  0  0  0
  3  7  1  0
  6 14  1  0
 11 15  1  0
 15 16  2  3
 16 17  1  0
 17 18  2  0
  9 10  1  0
  7  8  2  0
  8 13  1  0
 12 13  2  0
 11 12  1  0
  9 11  2  0
  7  9  1  0
  1  2  2  0
  2  3  1  0
  3  4  2  0
  4  5  1  0
  5  6  2  0
  1  6  1  0
M  END

$$$$
No_1123-/export/home/yangzhenyu/potential_scad_32_flow//YTHDC2/2024-12-06-03-22-00/
     RDKit          3D

 14 15  0  0  0  0  0  0  0  0999 V2000
    1.1787   -8.0297    3.5154 C   0  0  0  0  0  0  0  0  0  0  0  0
    1.1048   -9.2215    3.2892 C   0  0  0  0  0  0  0  0  0  0  0  0
    1.3627  -10.1721    4.3044 C   0  0  0  0  0  0  0  0  0  0  0  0
    1.7354  -11.4730    3.9023 C   0  0  0  0  0  0  0  0  0  0  0  0
    1.8080  -11.8127    2.7216 C   0  0  0  0  0  0  0  0  0  0  0  0
    1.5854  -11.0021    1.7249 C   0  0  0  0  0  0  0  0  0  0  0  0
    1.3573   -9.7389    1.9287 C   0  0  0  0  0  0  0  0  0  0  0  0
    1.2865   -8.8078    0.9161 C   0  0  0  0  0  0  0  0  0  0  0  0
    0.9210   -7.5140    1.1674 C   0  0  0  0  0  0  0  0  0  0  0  0
    1.0097   -7.0192    2.4369 C   0  0  0  0  0  0  0  0  0  0  0  0
    2.0228  -13.2586    2.4222 C   0  0  0  0  0  0  0  0  0  0  0  0
    1.7593  -14.1964    3.3244 C   0  0  0  0  0  0  0  0  0  0  0  0
    1.8334  -15.5686    2.9052 N   0  0  0  0  0  0  0  0  0  0  0  0
    2.7910  -15.6839    2.0018 O   0  0  0  0  0  0  0  0  0  0  0  0
  5 11  1  0
 11 12  1  0
 12 13  1  0
 13 14  2  0
  1  2  2  0
  7  8  2  0
  8  9  1  0
  9 10  2  0
  1 10  1  0
  2  3  1  0
  3  4  2  0
  4  5  1  0
  5  6  2  0
  6  7  1  0
  2  7  1  0
M  END

$$$$
No_1124-/export/home/yangzhenyu/potential_scad_32_flow//YTHDC2/2024-12-06-03-22-00/
     RDKit          3D

 17 18  0  0  0  0  0  0  0  0999 V2000
    1.1787   -8.0297    3.5154 N   0  0  0  0  0  0  0  0  0  0  0  0
    0.8669   -7.0905    2.8589 C   0  0  0  0  0  0  0  0  0  0  0  0
    0.8842   -5.8387    3.2677 C   0  0  0  0  0  0  0  0  0  0  0  0
    1.2819   -9.4050    3.1259 C   0  0  0  0  0  0  0  0  0  0  0  0
    1.6244  -10.3514    4.1878 C   0  0  0  0  0  0  0  0  0  0  0  0
    1.8536  -11.6104    4.0056 C   0  0  0  0  0  0  0  0  0  0  0  0
    1.6770  -12.1040    2.6883 C   0  0  0  0  0  0  0  0  0  0  0  0
    1.5317  -11.2022    1.6336 C   0  0  0  0  0  0  0  0  0  0  0  0
    1.3555   -9.8493    1.9383 C   0  0  0  0  0  0  0  0  0  0  0  0
    0.3857   -4.8006    2.3536 C   0  0  0  0  0  0  0  0  0  0  0  0
    0.1475   -5.1658    1.0486 C   0  0  0  0  0  0  0  0  0  0  0  0
    0.5607   -7.0099    1.3844 N   0  0  0  0  0  0  0  0  0  0  0  0
    0.2767   -6.1742    0.6574 N   0  0  0  0  0  0  0  0  0  0  0  0
    1.9106  -13.4744    2.3563 C   0  0  0  0  0  0  0  0  0  0  0  0
    1.8417  -14.4139    3.2492 O   0  0  0  0  0  0  0  0  0  0  0  0
    2.5575  -13.7579    1.2514 O   0  0  0  0  0  0  0  0  0  0  0  0
   -0.2818   -4.0123    0.2331 N   0  0  0  0  0  0  0  0  0  0  0  0
  1  2  1  0
  1  4  1  0
  7 14  1  0
 14 15  1  0
 14 16  2  0
 11 17  1  0
  2  3  2  0
  3 10  1  0
 10 11  2  0
 11 13  1  0
 12 13  2  0
  2 12  1  0
  4  5  2  0
  5  6  1  0
  6  7  2  0
  7  8  1  0
  8  9  2  0
  4  9  1  0
M  END

$$$$
No_1125-/export/home/yangzhenyu/potential_scad_32_flow//YTHDC2/2024-12-06-03-22-00/
     RDKit          3D

 19 20  0  0  0  0  0  0  0  0999 V2000
    1.1787   -8.0297    3.5154 C   0  0  0  0  0  0  0  0  0  0  0  0
    1.1048   -9.2215    3.2892 C   0  0  0  0  0  0  0  0  0  0  0  0
    1.2339   -9.7611    2.0189 C   0  0  0  0  0  0  0  0  0  0  0  0
    1.3583   -9.0036    0.9764 C   0  0  0  0  0  0  0  0  0  0  0  0
    1.5996   -7.6362    1.1311 C   0  0  0  0  0  0  0  0  0  0  0  0
    1.4830   -7.0928    2.3626 C   0  0  0  0  0  0  0  0  0  0  0  0
    1.4898   -5.7274    2.6199 C   0  0  0  0  0  0  0  0  0  0  0  0
    1.1882  -11.3736    1.8424 C   0  0  0  0  0  0  0  0  0  0  0  0
    0.2883  -11.9819    2.0702 C   0  0  0  0  0  0  0  0  0  0  0  0
    0.4271  -13.3696    2.3968 C   0  0  0  0  0  0  0  0  0  0  0  0
   -0.5231  -14.3024    2.2303 C   0  0  0  0  0  0  0  0  0  0  0  0
   -1.7993  -13.9020    2.3125 C   0  0  0  0  0  0  0  0  0  0  0  0
   -2.0971  -12.5642    2.2239 C   0  0  0  0  0  0  0  0  0  0  0  0
   -1.1320  -11.6366    2.0957 C   0  0  0  0  0  0  0  0  0  0  0  0
    1.6962   -5.1694    3.8604 O   0  0  0  0  0  0  0  0  0  0  0  0
    1.3240   -4.8355    1.6635 O   0  0  0  0  0  0  0  0  0  0  0  0
    1.8638  -13.9036    2.3245 N   0  0  0  0  0  0  0  0  0  0  0  0
    2.2697  -15.0753    1.9822 C   0  0  0  0  0  0  0  0  0  0  0  0
    3.5900  -15.3110    1.9682 N   0  0  0  0  0  0  0  0  0  0  0  0
  6  7  1  0
  3  8  1  0
  8  9  1  0
  7 15  1  0
  7 16  2  0
 10 17  1  0
 17 18  2  3
 18 19  1  0
  1  2  2  0
  2  3  1  0
  3  4  2  0
  4  5  1  0
  5  6  2  0
  1  6  1  0
  9 10  2  0
 10 11  1  0
 11 12  2  0
 12 13  1  0
 13 14  2  0
  9 14  1  0
M  END

$$$$
No_1126-/export/home/yangzhenyu/potential_scad_32_flow//YTHDC2/2024-12-06-03-22-00/
     RDKit          3D

 18 18  0  0  1  0  0  0  0  0999 V2000
    1.1787   -8.0297    3.5154 O   0  0  0  0  0  0  0  0  0  0  0  0
    0.9969   -8.9689    3.0048 C   0  0  0  0  0  0  0  0  0  0  0  0
    1.3055  -10.1056    3.6616 C   0  0  0  0  0  0  0  0  0  0  0  0
    2.1315  -10.4529    4.2438 C   0  0  0  0  0  0  0  0  0  0  0  0
    0.4484   -8.8156    1.7225 C   0  0  2  0  0  0  0  0  0  0  0  0
    0.5531   -9.6870    0.8856 C   0  0  0  0  0  0  0  0  0  0  0  0
    1.7252  -10.2165    0.2617 C   0  0  0  0  0  0  0  0  0  0  0  0
    2.6290   -9.2961   -0.2652 O   0  0  0  0  0  0  0  0  0  0  0  0
    0.0787   -7.5410    1.4804 C   0  0  0  0  0  0  0  0  0  0  0  0
   -1.0966   -7.3653    0.8258 C   0  0  0  0  0  0  0  0  0  0  0  0
   -1.9145   -8.4053    0.6189 C   0  0  0  0  0  0  0  0  0  0  0  0
   -3.2690   -8.3356    0.0699 C   0  0  0  0  0  0  0  0  0  0  0  0
   -4.0233   -9.4653    0.1315 C   0  0  0  0  0  0  0  0  0  0  0  0
   -3.7447  -10.6208    0.7785 C   0  0  0  0  0  0  0  0  0  0  0  0
   -2.4413  -10.7405    1.3190 C   0  0  0  0  0  0  0  0  0  0  0  0
   -1.4953   -9.6804    1.3271 C   0  0  0  0  0  0  0  0  0  0  0  0
    2.3225  -11.2383    0.6764 O   0  0  0  0  0  0  0  0  0  0  0  0
    2.3785  -11.8430    4.8731 N   0  0  0  0  0  0  0  0  0  0  0  0
  1  2  1  0
  2  3  1  0
  3  4  2  3
  2  5  1  0
  5  6  1  6
  6  7  1  0
  7  8  2  0
  5  9  1  0
  9 10  2  3
 10 11  1  0
  7 17  1  0
  4 18  1  0
 11 12  2  0
 12 13  1  0
 13 14  2  0
 14 15  1  0
 15 16  2  0
 11 16  1  0
M  END

$$$$
No_1127-/export/home/yangzhenyu/potential_scad_32_flow//YTHDC2/2024-12-06-03-22-00/
     RDKit          3D

 20 21  0  0  0  0  0  0  0  0999 V2000
    1.1787   -8.0297    3.5154 O   0  0  0  0  0  0  0  0  0  0  0  0
    0.9969   -8.9689    3.0048 C   0  0  0  0  0  0  0  0  0  0  0  0
    1.3055  -10.1056    3.6616 C   0  0  0  0  0  0  0  0  0  0  0  0
    1.1249  -11.3503    3.0941 C   0  0  0  0  0  0  0  0  0  0  0  0
    0.6932  -11.4484    1.8586 C   0  0  0  0  0  0  0  0  0  0  0  0
    0.5498  -10.3736    1.0579 C   0  0  0  0  0  0  0  0  0  0  0  0
    0.7643   -9.1185    1.6383 C   0  0  0  0  0  0  0  0  0  0  0  0
    0.5937   -7.8467    1.0482 C   0  0  0  0  0  0  0  0  0  0  0  0
    1.5294   -7.0230    1.0749 O   0  0  0  0  0  0  0  0  0  0  0  0
   -0.6365   -7.3369    0.8365 O   0  0  0  0  0  0  0  0  0  0  0  0
    1.1997  -12.6524    3.8156 Cl  0  0  0  0  0  0  0  0  0  0  0  0
    0.4639  -12.6402    1.0298 C   0  0  0  0  0  0  0  0  0  0  0  0
   -0.5938  -13.0239    0.5867 C   0  0  0  0  0  0  0  0  0  0  0  0
   -0.9079  -14.2349   -0.0606 C   0  0  0  0  0  0  0  0  0  0  0  0
   -0.1960  -15.3721    0.3031 C   0  0  0  0  0  0  0  0  0  0  0  0
    1.0880  -15.1408    0.9614 C   0  0  0  0  0  0  0  0  0  0  0  0
    1.4215  -13.8894    1.4346 C   0  0  0  0  0  0  0  0  0  0  0  0
   -0.4311  -16.7570   -0.3432 I   0  0  0  0  0  0  0  0  0  0  0  0
   -2.1647  -14.3680   -0.6752 O   0  0  0  0  0  0  0  0  0  0  0  0
   -3.2251  -14.4385   -0.0064 C   0  0  0  0  0  0  0  0  0  0  0  0
  1  2  1  0
  7  8  1  0
  8  9  1  0
  8 10  2  0
  4 11  1  0
  5 12  1  0
 15 18  1  0
 14 19  1  0
 19 20  1  0
 12 13  2  0
 13 14  1  0
 14 15  2  0
 15 16  1  0
 16 17  2  0
 12 17  1  0
  2  3  2  0
  3  4  1  0
  4  5  2  0
  5  6  1  0
  6  7  2  0
  2  7  1  0
M  END

$$$$
No_1128-/export/home/yangzhenyu/potential_scad_32_flow//YTHDC2/2024-12-06-03-22-00/
     RDKit          3D

 20 21  0  0  1  0  0  0  0  0999 V2000
    1.1787   -8.0297    3.5154 C   0  0  0  0  0  0  0  0  0  0  0  0
    1.1048   -9.2215    3.2892 C   0  0  0  0  0  0  0  0  0  0  0  0
    1.2339   -9.7611    2.0189 C   0  0  0  0  0  0  0  0  0  0  0  0
    1.3583   -9.0036    0.9764 C   0  0  0  0  0  0  0  0  0  0  0  0
    1.5996   -7.6362    1.1311 C   0  0  0  0  0  0  0  0  0  0  0  0
    1.4830   -7.0928    2.3626 C   0  0  0  0  0  0  0  0  0  0  0  0
    1.4898   -5.7274    2.6199 C   0  0  0  0  0  0  0  0  0  0  0  0
    1.1681  -11.2222    1.8390 C   0  0  1  0  0  0  0  0  0  0  0  0
    1.9047  -12.1147    2.3357 C   0  0  0  0  0  0  0  0  0  0  0  0
    1.2927  -13.3233    2.7474 C   0  0  0  0  0  0  0  0  0  0  0  0
    0.1154  -13.2943    3.1567 C   0  0  0  0  0  0  0  0  0  0  0  0
   -0.7041  -12.5647    2.3499 C   0  0  2  0  0  0  0  0  0  0  0  0
   -0.1189  -11.3574    1.9115 C   0  0  0  0  0  0  0  0  0  0  0  0
    1.6941   -5.1569    3.8609 O   0  0  0  0  0  0  0  0  0  0  0  0
    1.6522   -4.8457    1.5988 O   0  0  0  0  0  0  0  0  0  0  0  0
   -2.0917  -12.5309    2.7585 C   0  0  0  0  0  0  0  0  0  0  0  0
   -2.8202  -13.7215    2.6340 C   0  0  0  0  0  0  0  0  0  0  0  0
   -4.1065  -13.8212    3.2064 C   0  0  0  0  0  0  0  0  0  0  0  0
   -4.6612  -12.6757    3.8460 C   0  0  0  0  0  0  0  0  0  0  0  0
   -3.9968  -11.4697    3.8750 C   0  0  0  0  0  0  0  0  0  0  0  0
  6  7  1  0
  8  3  1  1
  8  9  1  0
  9 10  1  0
 10 11  1  0
 11 12  1  0
  8 13  1  0
 12 13  1  0
  7 14  1  0
  7 15  2  0
 12 16  1  1
 16 17  1  0
 17 18  2  3
 18 19  1  0
 19 20  2  0
  1  2  2  0
  2  3  1  0
  3  4  2  0
  4  5  1  0
  5  6  2  0
  1  6  1  0
M  END

$$$$
No_1129-/export/home/yangzhenyu/potential_scad_32_flow//YTHDC2/2024-12-06-03-22-00/
     RDKit          3D

 18 19  0  0  0  0  0  0  0  0999 V2000
    1.1787   -8.0297    3.5154 C   0  0  0  0  0  0  0  0  0  0  0  0
    1.1048   -9.2215    3.2892 C   0  0  0  0  0  0  0  0  0  0  0  0
    1.3627  -10.1721    4.3044 C   0  0  0  0  0  0  0  0  0  0  0  0
    1.0682  -11.5187    4.0618 C   0  0  0  0  0  0  0  0  0  0  0  0
    0.6332  -11.9655    2.9682 C   0  0  0  0  0  0  0  0  0  0  0  0
    0.4776  -11.1308    1.9203 C   0  0  0  0  0  0  0  0  0  0  0  0
    0.7470   -9.8274    2.0368 C   0  0  0  0  0  0  0  0  0  0  0  0
    0.5535   -7.1314    2.6861 O   0  0  0  0  0  0  0  0  0  0  0  0
    0.3248  -13.5175    2.7383 C   0  0  0  0  0  0  0  0  0  0  0  0
    0.8539  -14.0971    1.6831 N   0  0  0  0  0  0  0  0  0  0  0  0
    2.1756  -13.8040    1.3347 C   0  0  0  0  0  0  0  0  0  0  0  0
    0.4268  -15.1107    0.9980 C   0  0  0  0  0  0  0  0  0  0  0  0
    0.8116  -16.3341    1.5520 C   0  0  0  0  0  0  0  0  0  0  0  0
    0.6198  -17.4805    0.9770 C   0  0  0  0  0  0  0  0  0  0  0  0
   -0.1428  -17.5593   -0.0811 C   0  0  0  0  0  0  0  0  0  0  0  0
   -0.6053  -16.4341   -0.7243 C   0  0  0  0  0  0  0  0  0  0  0  0
   -0.2792  -15.1787   -0.2005 C   0  0  0  0  0  0  0  0  0  0  0  0
   -0.7056  -13.9935   -0.8134 C   0  0  0  0  0  0  0  0  0  0  0  0
  1  2  1  0
  1  8  2  0
  5  9  1  0
  9 10  1  0
 10 11  1  0
 10 12  1  0
 17 18  1  0
 12 13  2  0
 13 14  1  0
 14 15  2  0
 15 16  1  0
 16 17  2  0
 12 17  1  0
  2  3  2  0
  3  4  1  0
  4  5  2  0
  5  6  1  0
  6  7  2  0
  2  7  1  0
M  END

$$$$
No_1130-/export/home/yangzhenyu/potential_scad_32_flow//YTHDC2/2024-12-06-03-22-00/
     RDKit          3D

 19 20  0  0  0  0  0  0  0  0999 V2000
    1.1787   -8.0297    3.5154 C   0  0  0  0  0  0  0  0  0  0  0  0
    1.1048   -9.2215    3.2892 C   0  0  0  0  0  0  0  0  0  0  0  0
    1.2339   -9.7611    2.0189 C   0  0  0  0  0  0  0  0  0  0  0  0
    1.3583   -9.0036    0.9764 C   0  0  0  0  0  0  0  0  0  0  0  0
    1.5996   -7.6362    1.1311 C   0  0  0  0  0  0  0  0  0  0  0  0
    1.4830   -7.0928    2.3626 C   0  0  0  0  0  0  0  0  0  0  0  0
    1.1008  -11.2372    1.8542 C   0  0  0  0  0  0  0  0  0  0  0  0
    0.4812  -11.6084    0.6459 C   0  0  0  0  0  0  0  0  0  0  0  0
   -0.6166  -12.2864    0.7859 C   0  0  0  0  0  0  0  0  0  0  0  0
   -0.7300  -13.0625    1.9848 C   0  0  0  0  0  0  0  0  0  0  0  0
    0.1540  -12.9133    3.0511 C   0  0  0  0  0  0  0  0  0  0  0  0
    1.1516  -11.9685    2.9361 C   0  0  0  0  0  0  0  0  0  0  0  0
    1.5663   -5.6461    2.6613 C   0  0  0  0  0  0  0  0  0  0  0  0
    2.0704  -11.7257    3.9378 C   0  0  0  0  0  0  0  0  0  0  0  0
    1.2010   -4.8053    1.6210 O   0  0  0  0  0  0  0  0  0  0  0  0
    1.5710   -5.1118    3.8456 Cl  0  0  0  0  0  0  0  0  0  0  0  0
   -1.5619  -14.2848    2.0641 O   0  0  0  0  0  0  0  0  0  0  0  0
   -2.8169  -14.0937    1.9771 C   0  0  0  0  0  0  0  0  0  0  0  0
    1.6106   -9.4664   -0.5181 N   0  0  0  0  0  0  0  0  0  0  0  0
  3  7  1  0
  6 13  1  0
 12 14  1  0
 13 15  2  0
 13 16  1  0
 10 17  1  0
 17 18  1  0
  4 19  1  0
  1  2  2  0
  2  3  1  0
  3  4  2  0
  4  5  1  0
  5  6  2  0
  1  6  1  0
  7  8  2  0
  8  9  1  0
  9 10  2  0
 10 11  1  0
 11 12  2  0
  7 12  1  0
M  END

$$$$
No_1131-/export/home/yangzhenyu/potential_scad_32_flow//YTHDC2/2024-12-06-03-22-00/
     RDKit          3D

 18 19  0  0  1  0  0  0  0  0999 V2000
    1.1787   -8.0297    3.5154 C   0  0  0  0  0  0  0  0  0  0  0  0
    1.0491   -6.8434    2.9820 C   0  0  0  0  0  0  0  0  0  0  0  0
    1.9985   -8.9840    2.8958 C   0  0  0  0  0  0  0  0  0  0  0  0
    1.9135  -10.3404    3.6266 C   0  0  0  0  0  0  0  0  0  0  0  0
    0.7479  -10.9191    3.7202 C   0  0  1  0  0  0  0  0  0  0  0  0
    1.8085   -5.7988    3.2380 C   0  0  0  0  0  0  0  0  0  0  0  0
   -0.2979  -10.3849    3.8387 Cl  0  0  0  0  0  0  0  0  0  0  0  0
    1.4856   -4.6362    2.4829 C   0  0  0  0  0  0  0  0  0  0  0  0
    0.5575   -4.6961    1.3889 C   0  0  0  0  0  0  0  0  0  0  0  0
   -0.0983   -5.8279    1.1110 C   0  0  0  0  0  0  0  0  0  0  0  0
    0.1227   -6.9391    1.7986 C   0  0  0  0  0  0  0  0  0  0  0  0
    0.7579  -12.0883    2.7872 C   0  0  0  0  0  0  0  0  0  0  0  0
    1.5222  -13.3407    3.2020 C   0  0  0  0  0  0  0  0  0  0  0  0
    1.2952  -14.5218    2.4263 C   0  0  0  0  0  0  0  0  0  0  0  0
    0.6237  -14.5061    1.3287 C   0  0  0  0  0  0  0  0  0  0  0  0
   -0.0861  -13.3476    0.9667 C   0  0  0  0  0  0  0  0  0  0  0  0
   -0.0036  -12.1882    1.7075 C   0  0  0  0  0  0  0  0  0  0  0  0
   -0.5025   -8.0158    1.4409 C   0  0  0  0  0  0  0  0  0  0  0  0
  1  2  1  0
  1  3  1  0
  3  4  1  0
  4  5  1  0
  5  7  1  6
  5 12  1  0
 11 18  1  0
 12 13  2  0
 13 14  1  0
 14 15  2  0
 15 16  1  0
 16 17  2  0
 12 17  1  0
  2  6  2  0
  6  8  1  0
  8  9  2  0
  9 10  1  0
 10 11  2  0
  2 11  1  0
M  END

$$$$
No_1132-/export/home/yangzhenyu/potential_scad_32_flow//YTHDC2/2024-12-06-03-22-00/
     RDKit          3D

 17 17  0  0  0  0  0  0  0  0999 V2000
    1.1787   -8.0297    3.5154 Cl  0  0  0  0  0  0  0  0  0  0  0  0
    0.6122   -7.9650    2.5747 C   0  0  0  0  0  0  0  0  0  0  0  0
    0.4809   -9.1882    1.8138 C   0  0  0  0  0  0  0  0  0  0  0  0
    0.7467  -10.3320    2.4096 C   0  0  0  0  0  0  0  0  0  0  0  0
    0.5573  -11.4169    1.6406 C   0  0  0  0  0  0  0  0  0  0  0  0
    0.3318  -11.0577    0.2452 C   0  0  0  0  0  0  0  0  0  0  0  0
   -0.0086   -9.8022   -0.1302 C   0  0  0  0  0  0  0  0  0  0  0  0
    0.1462   -8.7766    0.6444 C   0  0  0  0  0  0  0  0  0  0  0  0
    0.0709   -6.7692    2.1951 C   0  0  0  0  0  0  0  0  0  0  0  0
    0.3431   -5.4887    2.6453 C   0  0  0  0  0  0  0  0  0  0  0  0
    0.3977   -4.3380    1.7542 C   0  0  0  0  0  0  0  0  0  0  0  0
    1.1807   -3.3463    2.0096 O   0  0  0  0  0  0  0  0  0  0  0  0
   -0.3660   -4.3145    0.7507 O   0  0  0  0  0  0  0  0  0  0  0  0
    0.8963  -12.7446    2.0307 C   0  0  0  0  0  0  0  0  0  0  0  0
    2.0993  -13.2225    2.0928 C   0  0  0  0  0  0  0  0  0  0  0  0
    2.2663  -14.6380    2.4428 C   0  0  0  0  0  0  0  0  0  0  0  0
    1.2955  -15.4026    2.7698 C   0  0  0  0  0  0  0  0  0  0  0  0
  1  2  1  0
  2  3  1  0
  2  9  1  0
  9 10  1  0
 10 11  1  0
 11 12  1  0
 11 13  2  0
  5 14  1  0
 14 15  1  0
 15 16  2  3
 16 17  1  0
  3  4  2  0
  4  5  1  0
  5  6  2  0
  6  7  1  0
  7  8  2  0
  3  8  1  0
M  END

$$$$
No_1133-/export/home/yangzhenyu/potential_scad_32_flow//YTHDC2/2024-12-06-03-22-00/
     RDKit          3D

 18 19  0  0  0  0  0  0  0  0999 V2000
    1.1787   -8.0297    3.5154 C   0  0  0  0  0  0  0  0  0  0  0  0
    1.0491   -6.8434    2.9820 C   0  0  0  0  0  0  0  0  0  0  0  0
    0.0950   -8.8404    3.2292 C   0  0  0  0  0  0  0  0  0  0  0  0
   -0.9173   -8.4596    2.5152 C   0  0  0  0  0  0  0  0  0  0  0  0
   -1.0331   -7.2162    2.0653 C   0  0  0  0  0  0  0  0  0  0  0  0
   -0.0105   -6.3168    2.3081 C   0  0  0  0  0  0  0  0  0  0  0  0
    0.1465  -10.2446    3.6981 Cl  0  0  0  0  0  0  0  0  0  0  0  0
    0.0249   -4.9418    1.9014 Cl  0  0  0  0  0  0  0  0  0  0  0  0
   -2.2107   -6.7462    1.4705 C   0  0  0  0  0  0  0  0  0  0  0  0
   -3.1865   -7.2246    1.2117 C   0  0  0  0  0  0  0  0  0  0  0  0
   -4.2534   -6.7485    0.2886 C   0  0  0  0  0  0  0  0  0  0  0  0
   -4.0684   -5.6066   -0.3843 C   0  0  0  0  0  0  0  0  0  0  0  0
   -2.8066   -5.0129   -0.2242 C   0  0  0  0  0  0  0  0  0  0  0  0
   -1.8561   -5.4543    0.5823 C   0  0  0  0  0  0  0  0  0  0  0  0
   -2.6369   -3.7817   -1.0646 Cl  0  0  0  0  0  0  0  0  0  0  0  0
   -5.0678   -5.1328   -1.1682 F   0  0  0  0  0  0  0  0  0  0  0  0
   -5.5021   -7.4149    0.1910 P   0  0  0  0  0  0  0  0  0  0  0  0
   -6.4563   -6.8434   -0.2947 O   0  0  0  0  0  0  0  0  0  0  0  0
  3  7  1  0
  6  8  1  0
  5  9  1  0
 13 15  1  0
 12 16  1  0
 11 17  1  0
 17 18  2  0
  1  2  2  0
  2  6  1  0
  5  6  2  0
  4  5  1  0
  3  4  2  0
  1  3  1  0
  9 10  2  0
 10 11  1  0
 11 12  2  0
 12 13  1  0
 13 14  2  0
  9 14  1  0
M  END

$$$$
No_1134-/export/home/yangzhenyu/potential_scad_32_flow//YTHDC2/2024-12-06-03-22-00/
     RDKit          3D

 19 20  0  0  0  0  0  0  0  0999 V2000
    1.1787   -8.0297    3.5154 C   0  0  0  0  0  0  0  0  0  0  0  0
    1.0491   -6.8434    2.9820 C   0  0  0  0  0  0  0  0  0  0  0  0
    0.9905   -9.0774    2.6527 C   0  0  0  0  0  0  0  0  0  0  0  0
    0.7897   -8.9519    1.3691 C   0  0  0  0  0  0  0  0  0  0  0  0
    0.7018   -7.7198    0.7892 C   0  0  0  0  0  0  0  0  0  0  0  0
    0.8918   -6.5957    1.6117 C   0  0  0  0  0  0  0  0  0  0  0  0
    1.0774  -10.6059    3.3145 C   0  0  0  0  0  0  0  0  0  0  0  0
    1.2215  -11.6205    2.4178 C   0  0  0  0  0  0  0  0  0  0  0  0
    1.2379  -12.9166    3.0977 C   0  0  0  0  0  0  0  0  0  0  0  0
    1.3537  -14.0715    2.4214 C   0  0  0  0  0  0  0  0  0  0  0  0
    1.8438  -14.1120    1.1532 C   0  0  0  0  0  0  0  0  0  0  0  0
    1.9661  -12.8637    0.5029 C   0  0  0  0  0  0  0  0  0  0  0  0
    1.7058  -11.6621    1.1343 C   0  0  0  0  0  0  0  0  0  0  0  0
    0.8517  -10.6241    4.5616 O   0  0  0  0  0  0  0  0  0  0  0  0
    0.8047   -5.3081    1.0792 O   0  0  0  0  0  0  0  0  0  0  0  0
    1.2253  -15.3474    3.2030 O   0  0  0  0  0  0  0  0  0  0  0  0
    0.9363  -16.5164    2.5965 C   0  0  0  0  0  0  0  0  0  0  0  0
    1.8442  -17.3294    2.7091 C   0  0  0  0  0  0  0  0  0  0  0  0
    3.1545  -17.1135    2.7373 O   0  0  0  0  0  0  0  0  0  0  0  0
  3  7  1  0
  7  8  1  0
  7 14  2  0
  6 15  1  0
 10 16  1  0
 16 17  1  0
 17 18  1  0
 18 19  2  0
  1  2  2  0
  2  6  1  0
  5  6  2  0
  4  5  1  0
  3  4  2  0
  1  3  1  0
  8  9  2  0
  9 10  1  0
 10 11  2  0
 11 12  1  0
 12 13  2  0
  8 13  1  0
M  END

$$$$
No_1135-/export/home/yangzhenyu/potential_scad_32_flow//YTHDC2/2024-12-06-03-22-00/
     RDKit          3D

 20 22  0  0  1  0  0  0  0  0999 V2000
    1.1787   -8.0297    3.5154 C   0  0  0  0  0  0  0  0  0  0  0  0
    1.1048   -9.2215    3.2892 C   0  0  0  0  0  0  0  0  0  0  0  0
    1.3627  -10.1721    4.3044 N   0  0  0  0  0  0  0  0  0  0  0  0
    0.9525   -6.9720    2.5932 C   0  0  0  0  0  0  0  0  0  0  0  0
    0.8412   -7.6872    1.3225 C   0  0  0  0  0  0  0  0  0  0  0  0
    0.8814   -8.8351    0.9535 C   0  0  0  0  0  0  0  0  0  0  0  0
    0.9935   -9.7378    1.9382 C   0  0  0  0  0  0  0  0  0  0  0  0
    1.0074  -11.0730    1.8713 C   0  0  1  0  0  0  0  0  0  0  0  0
    0.9779  -11.5115    0.6003 C   0  0  0  0  0  0  0  0  0  0  0  0
    1.1823  -11.8895    2.8534 C   0  0  1  0  0  0  0  0  0  0  0  0
    1.3284  -11.4180    4.1202 C   0  0  0  0  0  0  0  0  0  0  0  0
    1.1367  -13.2042    2.7375 C   0  0  0  0  0  0  0  0  0  0  0  0
    1.2936  -13.8631    1.9601 O   0  0  0  0  0  0  0  0  0  0  0  0
    0.7187  -14.0110    3.8788 O   0  0  0  0  0  0  0  0  0  0  0  0
    1.0610   -5.5984    2.8173 O   0  0  0  0  0  0  0  0  0  0  0  0
    0.8644   -9.1848   -0.4360 C   0  0  0  0  0  0  0  0  0  0  0  0
    0.8489  -10.6205   -0.6321 N   0  0  0  0  0  0  0  0  0  0  0  0
    0.5309   -8.4958   -1.4095 O   0  0  0  0  0  0  0  0  0  0  0  0
    0.2688   -5.0952    3.6450 C   0  0  0  0  0  0  0  0  0  0  0  0
   -0.0623   -3.6979    2.9730 C   0  0  0  0  0  0  0  0  0  0  0  0
  2  3  1  0
  7  8  1  0
  8  9  1  6
  8 10  1  0
  3 11  1  0
 10 11  1  0
 10 12  1  1
 12 13  2  0
 12 14  1  0
  4 15  1  0
  6 16  1  0
  9 17  1  0
 16 17  1  0
 16 18  2  0
 15 19  1  0
 19 20  1  0
  1  2  2  0
  2  7  1  0
  6  7  2  0
  5  6  1  0
  4  5  2  0
  1  4  1  0
M  END

$$$$
No_1136-/export/home/yangzhenyu/potential_scad_32_flow//YTHDC2/2024-12-06-03-22-00/
     RDKit          3D

 19 19  0  0  0  0  0  0  0  0999 V2000
    1.1787   -8.0297    3.5154 N   0  0  0  0  0  0  0  0  0  0  0  0
    1.0818   -9.0751    3.2053 C   0  0  0  0  0  0  0  0  0  0  0  0
    0.7576   -9.3725    1.9159 C   0  0  0  0  0  0  0  0  0  0  0  0
    0.8823   -8.4917    1.0547 C   0  0  0  0  0  0  0  0  0  0  0  0
    1.4631   -7.3107    1.2451 C   0  0  0  0  0  0  0  0  0  0  0  0
    1.6470   -6.9326    2.5669 C   0  0  0  0  0  0  0  0  0  0  0  0
    0.8237  -10.1305    4.2407 C   0  0  0  0  0  0  0  0  0  0  0  0
    1.7644  -11.1125    4.2479 C   0  0  0  0  0  0  0  0  0  0  0  0
    0.8218   -8.8684   -0.5112 C   0  0  0  0  0  0  0  0  0  0  0  0
   -0.5223   -9.0297   -0.7401 O   0  0  0  0  0  0  0  0  0  0  0  0
    1.6335   -8.8881   -1.2642 O   0  0  0  0  0  0  0  0  0  0  0  0
    1.6028  -12.0663    3.3272 C   0  0  0  0  0  0  0  0  0  0  0  0
    0.6584  -13.1358    3.6531 C   0  0  0  0  0  0  0  0  0  0  0  0
    1.2159  -14.4308    3.0715 C   0  0  0  0  0  0  0  0  0  0  0  0
    0.4011  -15.5423    3.3221 O   0  0  0  0  0  0  0  0  0  0  0  0
    2.3595  -14.4692    2.4370 O   0  0  0  0  0  0  0  0  0  0  0  0
    1.8065   -5.6408    3.0537 C   0  0  0  0  0  0  0  0  0  0  0  0
    1.6173   -4.5793    2.3392 O   0  0  0  0  0  0  0  0  0  0  0  0
    1.8034   -5.3978    4.3358 Cl  0  0  0  0  0  0  0  0  0  0  0  0
  2  7  1  0
  7  8  1  0
  4  9  1  0
  9 10  1  0
  9 11  2  0
  8 12  1  0
 12 13  1  0
 13 14  1  0
 14 15  1  0
 14 16  2  0
  6 17  1  0
 17 18  2  0
 17 19  1  0
  1  2  2  0
  2  3  1  0
  3  4  2  0
  4  5  1  0
  5  6  2  0
  1  6  1  0
M  END

$$$$
No_1137-/export/home/yangzhenyu/potential_scad_32_flow//YTHDC2/2024-12-06-03-22-00/
     RDKit          3D

 20 20  0  0  1  0  0  0  0  0999 V2000
    1.1787   -8.0297    3.5154 C   0  0  0  0  0  0  0  0  0  0  0  0
    1.0491   -6.8434    2.9820 C   0  0  0  0  0  0  0  0  0  0  0  0
    0.9905   -9.0774    2.6527 C   0  0  0  0  0  0  0  0  0  0  0  0
    0.7897   -8.9519    1.3691 C   0  0  0  0  0  0  0  0  0  0  0  0
    0.7018   -7.7198    0.7892 C   0  0  0  0  0  0  0  0  0  0  0  0
    0.8918   -6.5957    1.6117 C   0  0  0  0  0  0  0  0  0  0  0  0
    1.0600  -10.5680    3.3321 C   0  0  2  0  0  0  0  0  0  0  0  0
    2.1422  -11.0089    3.6867 C   0  0  0  0  0  0  0  0  0  0  0  0
    0.8986   -5.2530    1.1685 C   0  0  0  0  0  0  0  0  0  0  0  0
    0.3676  -11.5400    2.4822 C   0  0  0  0  0  0  0  0  0  0  0  0
   -0.9799  -11.5858    2.7074 C   0  0  0  0  0  0  0  0  0  0  0  0
   -1.5361  -10.6694    3.7744 C   0  0  2  0  0  0  0  0  0  0  0  0
   -0.8155  -10.4039    4.9638 C   0  0  0  0  0  0  0  0  0  0  0  0
    2.5249  -10.3640    5.0443 O   0  0  0  0  0  0  0  0  0  0  0  0
   -2.8339  -10.2811    3.6286 C   0  0  0  0  0  0  0  0  0  0  0  0
   -3.5698  -10.6661    2.7150 O   0  0  0  0  0  0  0  0  0  0  0  0
   -3.4737   -9.6041    4.7833 C   0  0  0  0  0  0  0  0  0  0  0  0
   -3.0813   -8.2893    4.9147 C   0  0  1  0  0  0  0  0  0  0  0  0
   -2.7200   -7.4037    3.9402 F   0  0  0  0  0  0  0  0  0  0  0  0
   -4.0638   -7.4034    5.6204 C   0  0  0  0  0  0  0  0  0  0  0  0
  3  7  1  0
  7  8  1  6
  6  9  1  0
  7 10  1  0
 10 11  1  0
 11 12  1  0
 12 13  1  1
  8 14  1  0
 12 15  1  0
 15 16  2  0
 15 17  1  0
 17 18  1  0
 18 19  1  0
 18 20  1  6
  1  2  2  0
  2  6  1  0
  5  6  2  0
  4  5  1  0
  3  4  2  0
  1  3  1  0
M  END

$$$$
No_1138-/export/home/yangzhenyu/potential_scad_32_flow//YTHDC2/2024-12-06-03-22-00/
     RDKit          3D

 20 21  0  0  1  0  0  0  0  0999 V2000
    1.1787   -8.0297    3.5154 C   0  0  0  0  0  0  0  0  0  0  0  0
    1.0491   -6.8434    2.9820 C   0  0  0  0  0  0  0  0  0  0  0  0
    0.9905   -9.0774    2.6527 C   0  0  0  0  0  0  0  0  0  0  0  0
    0.7897   -8.9519    1.3691 C   0  0  0  0  0  0  0  0  0  0  0  0
    0.7018   -7.7198    0.7892 C   0  0  0  0  0  0  0  0  0  0  0  0
    0.8918   -6.5957    1.6117 C   0  0  0  0  0  0  0  0  0  0  0  0
    1.0998  -10.4710    3.2437 C   0  0  2  0  0  0  0  0  0  0  0  0
    2.1917  -10.8879    3.7399 C   0  0  0  0  0  0  0  0  0  0  0  0
    0.8624   -5.2493    1.2482 C   0  0  0  0  0  0  0  0  0  0  0  0
    0.4931  -11.5180    2.4119 C   0  0  0  0  0  0  0  0  0  0  0  0
   -0.8655  -11.6428    2.6910 C   0  0  0  0  0  0  0  0  0  0  0  0
   -1.4329  -10.7858    3.7146 C   0  0  0  0  0  0  0  0  0  0  0  0
   -2.7595  -10.9704    4.0820 C   0  0  0  0  0  0  0  0  0  0  0  0
   -3.4609  -11.9123    3.4649 C   0  0  0  0  0  0  0  0  0  0  0  0
   -2.9865  -12.7646    2.6258 C   0  0  0  0  0  0  0  0  0  0  0  0
   -1.6467  -12.5957    2.1756 C   0  0  0  0  0  0  0  0  0  0  0  0
    2.2706  -11.4869    4.9836 O   0  0  0  0  0  0  0  0  0  0  0  0
    0.2125   -4.2906    2.0337 O   0  0  0  0  0  0  0  0  0  0  0  0
    0.2880   -2.9447    1.6239 C   0  0  0  0  0  0  0  0  0  0  0  0
   -4.8503  -12.1803    3.8465 Cl  0  0  0  0  0  0  0  0  0  0  0  0
  3  7  1  0
  7  8  1  0
  6  9  1  0
  7 10  1  6
 10 11  1  0
  8 17  2  0
  9 18  1  0
 18 19  1  0
 14 20  1  0
 11 12  2  0
 12 13  1  0
 13 14  2  0
 14 15  1  0
 15 16  2  0
 11 16  1  0
  1  2  2  0
  2  6  1  0
  5  6  2  0
  4  5  1  0
  3  4  2  0
  1  3  1  0
M  END

$$$$
No_1139-/export/home/yangzhenyu/potential_scad_32_flow//YTHDC2/2024-12-06-03-22-00/
     RDKit          3D

 19 20  0  0  0  0  0  0  0  0999 V2000
    1.1787   -8.0297    3.5154 C   0  0  0  0  0  0  0  0  0  0  0  0
    1.0491   -6.8434    2.9820 C   0  0  0  0  0  0  0  0  0  0  0  0
    0.0950   -8.8404    3.2292 C   0  0  0  0  0  0  0  0  0  0  0  0
   -0.9173   -8.4596    2.5152 C   0  0  0  0  0  0  0  0  0  0  0  0
   -1.0331   -7.2162    2.0653 C   0  0  0  0  0  0  0  0  0  0  0  0
   -0.0105   -6.3168    2.3081 C   0  0  0  0  0  0  0  0  0  0  0  0
    0.0485   -4.9783    1.8782 C   0  0  0  0  0  0  0  0  0  0  0  0
   -0.4744   -4.1559    2.2381 N   0  0  0  0  0  0  0  0  0  0  0  0
    0.1794  -10.2887    3.6920 N   0  0  0  0  0  0  0  0  0  0  0  0
    1.1937  -10.9559    3.9652 C   0  0  0  0  0  0  0  0  0  0  0  0
    0.9763  -12.3415    3.9563 C   0  0  0  0  0  0  0  0  0  0  0  0
    0.0955  -12.7156    2.9253 C   0  0  0  0  0  0  0  0  0  0  0  0
   -0.3524  -11.8873    2.2232 C   0  0  0  0  0  0  0  0  0  0  0  0
   -0.7264  -10.6264    2.6781 C   0  0  0  0  0  0  0  0  0  0  0  0
    1.1872   -4.5378    1.0046 N   0  0  0  0  0  0  0  0  0  0  0  0
    0.1832  -14.1197    2.7243 C   0  0  0  0  0  0  0  0  0  0  0  0
    0.7424  -14.7494    1.8731 C   0  0  0  0  0  0  0  0  0  0  0  0
    1.9711  -14.9002    1.8035 C   0  0  0  0  0  0  0  0  0  0  0  0
   -1.2171   -4.2844    2.9104 H   0  0  0  0  0  0  0  0  0  0  0  0
  6  7  1  0
  7  8  2  0
  3  9  1  0
  9 10  1  0
 10 11  1  0
 11 12  1  0
 12 13  1  0
  9 14  1  0
 13 14  1  0
  7 15  1  0
 12 16  1  0
 16 17  1  0
 17 18  1  0
  1  2  2  0
  2  6  1  0
  5  6  2  0
  4  5  1  0
  3  4  2  0
  1  3  1  0
  8 19  1  0
M  END

$$$$
No_1140-/export/home/yangzhenyu/potential_scad_32_flow//YTHDC2/2024-12-06-03-22-00/
     RDKit          3D

 18 18  0  0  0  0  0  0  0  0999 V2000
    1.1787   -8.0297    3.5154 C   0  0  0  0  0  0  0  0  0  0  0  0
    1.1048   -9.2215    3.2892 C   0  0  0  0  0  0  0  0  0  0  0  0
    1.2339   -9.7611    2.0189 C   0  0  0  0  0  0  0  0  0  0  0  0
    1.3583   -9.0036    0.9764 C   0  0  0  0  0  0  0  0  0  0  0  0
    1.5996   -7.6362    1.1311 C   0  0  0  0  0  0  0  0  0  0  0  0
    1.4830   -7.0928    2.3626 C   0  0  0  0  0  0  0  0  0  0  0  0
    1.4898   -5.7274    2.6199 C   0  0  0  0  0  0  0  0  0  0  0  0
    1.1882  -11.3736    1.8424 C   0  0  0  0  0  0  0  0  0  0  0  0
    1.0670  -11.6643    0.5390 O   0  0  0  0  0  0  0  0  0  0  0  0
    1.3856  -12.0931    2.7683 N   0  0  0  0  0  0  0  0  0  0  0  0
    1.4190  -13.4859    2.6580 C   0  0  0  0  0  0  0  0  0  0  0  0
    0.1602  -14.1034    2.7251 C   0  0  0  0  0  0  0  0  0  0  0  0
    0.2350  -15.5969    2.8016 O   0  0  0  0  0  0  0  0  0  0  0  0
   -0.7175  -13.6413    2.1067 N   0  0  0  0  0  0  0  0  0  0  0  0
    1.2419   -4.8623    1.6184 O   0  0  0  0  0  0  0  0  0  0  0  0
    1.4841   -5.1641    3.8821 O   0  0  0  0  0  0  0  0  0  0  0  0
   -1.8447  -14.3106    1.7116 C   0  0  0  0  0  0  0  0  0  0  0  0
   -2.8663  -13.5273    1.1473 C   0  0  0  0  0  0  0  0  0  0  0  0
  6  7  1  0
  3  8  1  0
  8  9  2  0
  8 10  1  0
 10 11  1  0
 11 12  1  0
 12 13  2  0
 12 14  1  0
  7 15  2  0
  7 16  1  0
 14 17  1  0
 17 18  1  0
  1  2  2  0
  2  3  1  0
  3  4  2  0
  4  5  1  0
  5  6  2  0
  1  6  1  0
M  END

$$$$
No_1141-/export/home/yangzhenyu/potential_scad_32_flow//YTHDC2/2024-12-06-03-22-00/
     RDKit          3D

 21 22  0  0  0  0  0  0  0  0999 V2000
    1.1787   -8.0297    3.5154 C   0  0  0  0  0  0  0  0  0  0  0  0
    1.1048   -9.2215    3.2892 C   0  0  0  0  0  0  0  0  0  0  0  0
    1.2339   -9.7611    2.0189 C   0  0  0  0  0  0  0  0  0  0  0  0
    1.3583   -9.0036    0.9764 C   0  0  0  0  0  0  0  0  0  0  0  0
    1.5996   -7.6362    1.1311 C   0  0  0  0  0  0  0  0  0  0  0  0
    1.4830   -7.0928    2.3626 C   0  0  0  0  0  0  0  0  0  0  0  0
    1.5395   -5.7300    2.6182 C   0  0  0  0  0  0  0  0  0  0  0  0
    1.1969  -11.3760    1.8433 C   0  0  0  0  0  0  0  0  0  0  0  0
    0.2951  -11.9827    2.0623 C   0  0  0  0  0  0  0  0  0  0  0  0
    0.2264  -13.3724    1.9493 C   0  0  0  0  0  0  0  0  0  0  0  0
   -0.6651  -14.1398    1.6389 C   0  0  0  0  0  0  0  0  0  0  0  0
   -1.9496  -13.5954    1.3434 C   0  0  0  0  0  0  0  0  0  0  0  0
   -2.0595  -12.1565    1.3693 C   0  0  0  0  0  0  0  0  0  0  0  0
   -0.9785  -11.3667    1.6865 C   0  0  0  0  0  0  0  0  0  0  0  0
    1.5855  -14.0233    2.1924 N   0  0  0  0  0  0  0  0  0  0  0  0
    1.8573  -15.3125    2.2027 C   0  0  0  0  0  0  0  0  0  0  0  0
    0.9228  -16.1349    2.7240 N   0  0  0  0  0  0  0  0  0  0  0  0
    3.2750  -15.6503    2.4275 N   0  0  0  0  0  0  0  0  0  0  0  0
    0.6233   -4.8945    2.7625 O   0  0  0  0  0  0  0  0  0  0  0  0
   -0.3080   -4.8055    1.9691 C   0  0  0  0  0  0  0  0  0  0  0  0
   -3.3297  -11.6434    1.0129 C   0  0  0  0  0  0  0  0  0  0  0  0
  6  7  1  0
  3  8  1  0
 10 15  1  0
 15 16  2  3
 16 17  1  0
 16 18  1  0
  7 19  1  0
 19 20  1  0
 13 21  1  0
  8  9  1  0
  1  2  2  0
  2  3  1  0
  3  4  2  0
  4  5  1  0
  5  6  2  0
  1  6  1  0
  9 10  2  0
 10 11  1  0
 11 12  2  0
 12 13  1  0
 13 14  2  0
  9 14  1  0
M  END

$$$$
No_1142-/export/home/yangzhenyu/potential_scad_32_flow//YTHDC2/2024-12-06-03-22-00/
     RDKit          3D

 17 17  0  0  0  0  0  0  0  0999 V2000
    1.1787   -8.0297    3.5154 N   0  0  0  0  0  0  0  0  0  0  0  0
    0.8669   -7.0905    2.8589 C   0  0  0  0  0  0  0  0  0  0  0  0
    1.0447   -7.3244    1.4123 C   0  0  0  0  0  0  0  0  0  0  0  0
    1.3746   -8.4389    1.0864 C   0  0  0  0  0  0  0  0  0  0  0  0
    1.6686   -9.1952    2.5608 C   0  0  0  0  0  0  0  0  0  0  0  0
    2.0321  -10.4919    2.7987 C   0  0  0  0  0  0  0  0  0  0  0  0
    2.0841  -10.9682    3.9936 C   0  0  0  0  0  0  0  0  0  0  0  0
    1.6734   -9.1115   -0.0210 C   0  0  0  0  0  0  0  0  0  0  0  0
    1.9591   -8.5403   -1.0674 Cl  0  0  0  0  0  0  0  0  0  0  0  0
    1.4026  -10.4703   -0.0515 O   0  0  0  0  0  0  0  0  0  0  0  0
    2.3715  -10.3742    4.9704 O   0  0  0  0  0  0  0  0  0  0  0  0
    1.3869  -12.1440    4.1513 O   0  0  0  0  0  0  0  0  0  0  0  0
    0.6865   -5.8012    3.4371 C   0  0  0  0  0  0  0  0  0  0  0  0
   -0.3804   -5.0676    3.1169 O   0  0  0  0  0  0  0  0  0  0  0  0
    1.5986   -5.2126    4.1564 O   0  0  0  0  0  0  0  0  0  0  0  0
    0.9147  -12.8362    3.0604 C   0  0  0  0  0  0  0  0  0  0  0  0
   -0.3973  -12.7293    2.7525 C   0  0  0  0  0  0  0  0  0  0  0  0
  1  2  1  0
  2  3  2  0
  3  4  1  0
  1  5  1  0
  4  5  2  0
  5  6  1  0
  6  7  1  0
  4  8  1  0
  8  9  1  0
  8 10  2  0
  7 11  2  0
  7 12  1  0
  2 13  1  0
 13 14  2  0
 13 15  1  0
 12 16  1  0
 16 17  1  0
M  END

$$$$
No_1143-/export/home/yangzhenyu/potential_scad_32_flow//YTHDC2/2024-12-06-03-22-00/
     RDKit          3D

 19 20  0  0  0  0  0  0  0  0999 V2000
    1.1787   -8.0297    3.5154 C   0  0  0  0  0  0  0  0  0  0  0  0
    1.1048   -9.2215    3.2892 C   0  0  0  0  0  0  0  0  0  0  0  0
    1.2339   -9.7611    2.0189 C   0  0  0  0  0  0  0  0  0  0  0  0
    1.4306   -8.9466    1.1170 C   0  0  0  0  0  0  0  0  0  0  0  0
    1.6532   -7.5949    1.1786 C   0  0  0  0  0  0  0  0  0  0  0  0
    1.4973   -7.0739    2.4258 C   0  0  0  0  0  0  0  0  0  0  0  0
    1.4438   -5.6890    2.7316 C   0  0  0  0  0  0  0  0  0  0  0  0
    1.2541  -11.1952    1.8085 C   0  0  0  0  0  0  0  0  0  0  0  0
    1.6744  -12.0612    2.6604 C   0  0  0  0  0  0  0  0  0  0  0  0
    1.5191  -13.4749    2.2691 C   0  0  0  0  0  0  0  0  0  0  0  0
    1.0453  -13.8611    1.1842 C   0  0  0  0  0  0  0  0  0  0  0  0
    0.6501  -12.9113    0.1950 C   0  0  0  0  0  0  0  0  0  0  0  0
    0.6692  -11.5941    0.5412 C   0  0  0  0  0  0  0  0  0  0  0  0
    2.0585  -14.3916    3.2845 C   0  0  0  0  0  0  0  0  0  0  0  0
    1.5782  -15.8640    2.8278 N   0  0  0  0  0  0  0  0  0  0  0  0
    2.3800  -16.7203    2.3994 C   0  0  0  0  0  0  0  0  0  0  0  0
    2.0650  -18.0023    2.2133 O   0  0  0  0  0  0  0  0  0  0  0  0
    3.7308  -16.3421    2.0214 O   0  0  0  0  0  0  0  0  0  0  0  0
    0.5269   -4.9428    2.8233 O   0  0  0  0  0  0  0  0  0  0  0  0
  6  7  1  0
  3  8  1  0
 10 14  1  0
 14 15  1  0
 15 16  1  0
 16 17  2  0
 16 18  1  0
  7 19  1  0
  1  2  2  0
  2  3  1  0
  3  4  2  0
  4  5  1  0
  5  6  2  0
  1  6  1  0
  8  9  2  0
  9 10  1  0
 10 11  2  0
 11 12  1  0
 12 13  2  0
  8 13  1  0
M  END

$$$$
No_1144-/export/home/yangzhenyu/potential_scad_32_flow//YTHDC2/2024-12-06-03-22-00/
     RDKit          3D

 19 20  0  0  1  0  0  0  0  0999 V2000
    1.1787   -8.0297    3.5154 C   0  0  0  0  0  0  0  0  0  0  0  0
    1.1048   -9.2215    3.2892 C   0  0  0  0  0  0  0  0  0  0  0  0
    1.2339   -9.7611    2.0189 C   0  0  0  0  0  0  0  0  0  0  0  0
    1.3583   -9.0036    0.9764 C   0  0  0  0  0  0  0  0  0  0  0  0
    1.5996   -7.6362    1.1311 C   0  0  0  0  0  0  0  0  0  0  0  0
    1.4830   -7.0928    2.3626 C   0  0  0  0  0  0  0  0  0  0  0  0
    1.1008  -11.2372    1.8542 C   0  0  1  0  0  0  0  0  0  0  0  0
    0.4812  -11.6084    0.6459 C   0  0  0  0  0  0  0  0  0  0  0  0
    0.5134  -13.0269    0.4830 C   0  0  0  0  0  0  0  0  0  0  0  0
    1.2057  -13.8685    1.2734 C   0  0  0  0  0  0  0  0  0  0  0  0
    1.9819  -13.3990    2.3594 C   0  0  0  0  0  0  0  0  0  0  0  0
    1.8610  -12.0988    2.6716 C   0  0  0  0  0  0  0  0  0  0  0  0
    2.4163  -11.5839    3.7861 O   0  0  0  0  0  0  0  0  0  0  0  0
    1.5574   -5.6480    2.6418 C   0  0  0  0  0  0  0  0  0  0  0  0
    0.6556   -4.8264    2.5860 O   0  0  0  0  0  0  0  0  0  0  0  0
    0.5901   -3.6971    2.1193 C   0  0  0  0  0  0  0  0  0  0  0  0
   -0.4731   -3.0393    2.1037 C   0  0  0  0  0  0  0  0  0  0  0  0
    1.7558   -3.2070    1.5561 C   0  0  0  0  0  0  0  0  0  0  0  0
   -1.3813   -3.3640    2.9629 O   0  0  0  0  0  0  0  0  0  0  0  0
  7  3  1  6
  7  8  1  0
  9 10  1  0
  7 12  1  0
 11 12  1  0
 12 13  2  0
  6 14  1  0
 14 15  1  0
 15 16  1  0
 16 17  1  0
 16 18  1  0
 17 19  2  0
  8  9  1  0
 10 11  1  0
  1  2  2  0
  2  3  1  0
  3  4  2  0
  4  5  1  0
  5  6  2  0
  1  6  1  0
M  END

$$$$
No_1145-/export/home/yangzhenyu/potential_scad_32_flow//YTHDC2/2024-12-06-03-22-00/
     RDKit          3D

 14 14  0  0  1  0  0  0  0  0999 V2000
    1.1787   -8.0297    3.5154 C   0  0  0  0  0  0  0  0  0  0  0  0
    1.0491   -6.8434    2.9820 C   0  0  0  0  0  0  0  0  0  0  0  0
    0.9905   -9.0774    2.6527 C   0  0  0  0  0  0  0  0  0  0  0  0
    1.1655  -10.4663    3.1286 Cl  0  0  0  0  0  0  0  0  0  0  0  0
    0.8273   -6.5102    1.6759 C   0  0  0  0  0  0  0  0  0  0  0  0
    0.6416   -7.5016    0.8509 C   0  0  0  0  0  0  0  0  0  0  0  0
    0.6557   -8.8132    1.3112 C   0  0  0  0  0  0  0  0  0  0  0  0
    0.4774   -9.9059    0.3966 C   0  0  0  0  0  0  0  0  0  0  0  0
   -0.6184  -10.2867    0.1812 O   0  0  0  0  0  0  0  0  0  0  0  0
    1.5827  -10.5416   -0.0950 O   0  0  0  0  0  0  0  0  0  0  0  0
    0.7995   -5.1506    1.2528 C   0  0  0  0  0  0  0  0  0  0  0  0
    1.6891   -4.2758    1.8106 P   0  0  2  0  0  0  0  0  0  0  0  0
    1.0763   -3.3849    3.0717 O   0  0  0  0  0  0  0  0  0  0  0  0
    1.8624   -2.9165    0.9050 O   0  0  0  0  0  0  0  0  0  0  0  0
  3  4  1  0
  7  8  1  0
  8  9  2  0
  8 10  1  0
  5 11  1  0
 11 12  1  0
 12 13  1  1
 12 14  2  0
  1  2  2  0
  2  5  1  0
  5  6  2  0
  6  7  1  0
  3  7  2  0
  1  3  1  0
M  END

$$$$
No_1146-/export/home/yangzhenyu/potential_scad_32_flow//YTHDC2/2024-12-06-03-22-00/
     RDKit          3D

 20 22  0  0  0  0  0  0  0  0999 V2000
    1.1787   -8.0297    3.5154 C   0  0  0  0  0  0  0  0  0  0  0  0
    1.0491   -6.8434    2.9820 C   0  0  0  0  0  0  0  0  0  0  0  0
    0.9905   -9.0774    2.6527 C   0  0  0  0  0  0  0  0  0  0  0  0
    1.1655  -10.4663    3.1286 C   0  0  0  0  0  0  0  0  0  0  0  0
    1.2197  -11.4898    2.5831 C   0  0  0  0  0  0  0  0  0  0  0  0
    1.0589  -11.4458    1.1293 C   0  0  0  0  0  0  0  0  0  0  0  0
    0.9638  -10.3069    0.4651 C   0  0  0  0  0  0  0  0  0  0  0  0
    0.9191   -9.0789    1.1942 C   0  0  0  0  0  0  0  0  0  0  0  0
    0.9198   -7.8339    0.6158 C   0  0  0  0  0  0  0  0  0  0  0  0
    1.0184   -6.6904    1.4953 C   0  0  0  0  0  0  0  0  0  0  0  0
    1.3459  -12.8208    3.0776 C   0  0  0  0  0  0  0  0  0  0  0  0
    1.4191  -13.9138    2.1504 C   0  0  0  0  0  0  0  0  0  0  0  0
    0.5325  -14.6214    1.8395 C   0  0  0  0  0  0  0  0  0  0  0  0
   -0.6417  -14.4890    2.4596 C   0  0  0  0  0  0  0  0  0  0  0  0
   -1.7074  -15.3930    2.0455 C   0  0  0  0  0  0  0  0  0  0  0  0
   -1.6878  -16.1615    1.0519 C   0  0  0  0  0  0  0  0  0  0  0  0
   -0.5358  -16.1818    0.2867 C   0  0  0  0  0  0  0  0  0  0  0  0
    0.6343  -15.2528    0.7082 C   0  0  0  0  0  0  0  0  0  0  0  0
    2.7867  -14.1807    1.7261 O   0  0  0  0  0  0  0  0  0  0  0  0
    0.7682   -7.6122   -0.5087 O   0  0  0  0  0  0  0  0  0  0  0  0
  1  2  1  0
  8  9  1  0
  2 10  1  0
  9 10  1  0
  5 11  1  0
 11 12  1  0
 12 13  1  0
 12 19  2  0
  9 20  2  0
  1  3  1  0
 13 14  2  0
 14 15  1  0
 15 16  2  0
 16 17  1  0
 17 18  2  0
 13 18  1  0
  3  4  2  0
  4  5  1  0
  5  6  2  0
  6  7  1  0
  7  8  2  0
  3  8  1  0
M  END

$$$$
No_1147-/export/home/yangzhenyu/potential_scad_32_flow//YTHDC2/2024-12-06-03-22-00/
     RDKit          3D

 18 19  0  0  0  0  0  0  0  0999 V2000
    1.1787   -8.0297    3.5154 C   0  0  0  0  0  0  0  0  0  0  0  0
    1.1048   -9.2215    3.2892 C   0  0  0  0  0  0  0  0  0  0  0  0
    1.2339   -9.7611    2.0189 C   0  0  0  0  0  0  0  0  0  0  0  0
    1.3583   -9.0036    0.9764 C   0  0  0  0  0  0  0  0  0  0  0  0
    1.5996   -7.6362    1.1311 C   0  0  0  0  0  0  0  0  0  0  0  0
    1.4830   -7.0928    2.3626 C   0  0  0  0  0  0  0  0  0  0  0  0
    1.5395   -5.7300    2.6182 C   0  0  0  0  0  0  0  0  0  0  0  0
    1.1969  -11.3760    1.8433 C   0  0  0  0  0  0  0  0  0  0  0  0
    1.7910  -12.1287    2.5491 C   0  0  0  0  0  0  0  0  0  0  0  0
    1.1433  -13.3521    2.7532 C   0  0  0  0  0  0  0  0  0  0  0  0
    0.1299  -13.8302    2.1502 C   0  0  0  0  0  0  0  0  0  0  0  0
   -0.4780  -12.8927    1.2842 C   0  0  0  0  0  0  0  0  0  0  0  0
    0.0359  -11.6324    1.1189 C   0  0  0  0  0  0  0  0  0  0  0  0
   -0.3266  -15.0845    2.3540 N   0  0  0  0  0  0  0  0  0  0  0  0
   -1.6159  -15.3977    2.1840 C   0  0  0  0  0  0  0  0  0  0  0  0
    0.6605  -16.1152    2.7234 C   0  0  0  0  0  0  0  0  0  0  0  0
    1.9585  -15.9997    2.5327 C   0  0  0  0  0  0  0  0  0  0  0  0
    0.3045  -17.3644    3.4767 C   0  0  0  0  0  0  0  0  0  0  0  0
  6  7  1  0
  3  8  1  0
 11 14  1  0
 14 15  1  0
 14 16  1  0
 16 17  2  0
 16 18  1  0
  1  2  2  0
  2  3  1  0
  3  4  2  0
  4  5  1  0
  5  6  2  0
  1  6  1  0
  8  9  2  0
  9 10  1  0
 10 11  2  0
 11 12  1  0
 12 13  2  0
  8 13  1  0
M  END

$$$$
No_1148-/export/home/yangzhenyu/potential_scad_32_flow//YTHDC2/2024-12-06-03-22-00/
     RDKit          3D

 19 20  0  0  1  0  0  0  0  0999 V2000
    1.1787   -8.0297    3.5154 C   0  0  0  0  0  0  0  0  0  0  0  0
    1.0491   -6.8434    2.9820 N   0  0  0  0  0  0  0  0  0  0  0  0
    0.1476   -8.8697    3.1493 C   0  0  0  0  0  0  0  0  0  0  0  0
    0.1278  -10.1641    3.7696 C   0  0  0  0  0  0  0  0  0  0  0  0
    0.2797   -6.4630    2.0786 C   0  0  0  0  0  0  0  0  0  0  0  0
   -0.3986   -7.7695    1.6444 N   0  0  0  0  0  0  0  0  0  0  0  0
   -0.5425   -8.6415    2.1180 C   0  0  0  0  0  0  0  0  0  0  0  0
    1.0260  -10.7501    4.4423 C   0  0  0  0  0  0  0  0  0  0  0  0
    0.9280  -12.1319    4.7400 C   0  0  0  0  0  0  0  0  0  0  0  0
    0.4667   -5.2966    1.3898 C   0  0  2  0  0  0  0  0  0  0  0  0
   -0.0449  -12.7145    4.0945 C   0  0  0  0  0  0  0  0  0  0  0  0
   -0.9389  -12.2551    3.3390 C   0  0  0  0  0  0  0  0  0  0  0  0
   -0.9031  -10.9007    3.1153 C   0  0  0  0  0  0  0  0  0  0  0  0
    1.2917   -4.4621    1.8928 C   0  0  0  0  0  0  0  0  0  0  0  0
   -0.4289   -4.9485    0.4570 C   0  0  0  0  0  0  0  0  0  0  0  0
   -1.4066   -4.1111    0.7332 C   0  0  0  0  0  0  0  0  0  0  0  0
   -2.1317   -3.8795    1.7275 C   0  0  0  0  0  0  0  0  0  0  0  0
   -2.9175   -4.9258    2.3028 C   0  0  0  0  0  0  0  0  0  0  0  0
   -3.7451   -4.8423    2.9860 C   0  0  0  0  0  0  0  0  0  0  0  0
  3  4  1  0
  5 10  1  0
 10 14  1  1
 10 15  1  0
 15 16  2  3
 16 17  1  0
 17 18  1  0
 18 19  2  0
  4  8  2  0
  8  9  1  0
  9 11  2  0
 11 12  1  0
 12 13  2  0
  4 13  1  0
  1  2  2  0
  2  5  1  0
  5  6  2  0
  6  7  1  0
  3  7  2  0
  1  3  1  0
M  END

$$$$
No_1149-/export/home/yangzhenyu/potential_scad_32_flow//YTHDC2/2024-12-06-03-22-00/
     RDKit          3D

 19 20  0  0  0  0  0  0  0  0999 V2000
    1.1787   -8.0297    3.5154 C   0  0  0  0  0  0  0  0  0  0  0  0
    1.0491   -6.8434    2.9820 C   0  0  0  0  0  0  0  0  0  0  0  0
    0.9905   -9.0774    2.6527 C   0  0  0  0  0  0  0  0  0  0  0  0
    0.7897   -8.9519    1.3691 C   0  0  0  0  0  0  0  0  0  0  0  0
    0.7018   -7.7198    0.7892 C   0  0  0  0  0  0  0  0  0  0  0  0
    0.8918   -6.5957    1.6117 C   0  0  0  0  0  0  0  0  0  0  0  0
    1.0600  -10.5680    3.3321 C   0  0  0  0  0  0  0  0  0  0  0  0
   -0.1041  -11.1772    3.5150 C   0  0  0  0  0  0  0  0  0  0  0  0
   -0.1608  -12.4876    3.3268 C   0  0  0  0  0  0  0  0  0  0  0  0
    0.9865  -13.2841    3.1741 C   0  0  0  0  0  0  0  0  0  0  0  0
    2.2316  -12.5817    3.0045 C   0  0  0  0  0  0  0  0  0  0  0  0
    2.2290  -11.2587    2.9229 C   0  0  0  0  0  0  0  0  0  0  0  0
    0.9909  -14.8111    3.2120 P   0  0  0  0  0  0  0  0  0  0  0  0
    2.2496  -15.2665    3.0425 O   0  0  0  0  0  0  0  0  0  0  0  0
    0.4388  -15.3040    4.5525 O   0  0  0  0  0  0  0  0  0  0  0  0
   -0.0159  -15.3769    2.1831 O   0  0  0  0  0  0  0  0  0  0  0  0
    0.8410   -5.2609    1.1605 O   0  0  0  0  0  0  0  0  0  0  0  0
    0.5989   -9.9793    0.3558 C   0  0  0  0  0  0  0  0  0  0  0  0
    1.7148  -10.6616   -0.0486 O   0  0  0  0  0  0  0  0  0  0  0  0
  1  2  1  0
  3  4  1  0
  2  6  1  0
  5  6  1  0
  3  7  1  0
 10 13  1  0
 13 14  2  0
 13 15  1  0
 13 16  1  0
  6 17  2  0
  4 18  1  0
 18 19  2  0
  1  3  1  0
  4  5  1  0
  7  8  2  0
  8  9  1  0
  9 10  2  0
 10 11  1  0
 11 12  2  0
  7 12  1  0
M  END

$$$$
No_1150-/export/home/yangzhenyu/potential_scad_32_flow//YTHDC2/2024-12-06-03-22-00/
     RDKit          3D

 20 21  0  0  0  0  0  0  0  0999 V2000
    1.1787   -8.0297    3.5154 C   0  0  0  0  0  0  0  0  0  0  0  0
    1.1048   -9.2215    3.2892 C   0  0  0  0  0  0  0  0  0  0  0  0
    1.2339   -9.7611    2.0189 C   0  0  0  0  0  0  0  0  0  0  0  0
    1.3583   -9.0036    0.9764 C   0  0  0  0  0  0  0  0  0  0  0  0
    1.5996   -7.6362    1.1311 C   0  0  0  0  0  0  0  0  0  0  0  0
    1.4830   -7.0928    2.3626 C   0  0  0  0  0  0  0  0  0  0  0  0
    1.5395   -5.7300    2.6182 C   0  0  0  0  0  0  0  0  0  0  0  0
    1.1775  -11.2233    1.8407 C   0  0  0  0  0  0  0  0  0  0  0  0
    0.5085  -11.9762    2.1989 C   0  0  0  0  0  0  0  0  0  0  0  0
    0.4247  -13.3704    2.0465 C   0  0  0  0  0  0  0  0  0  0  0  0
   -0.6059  -14.0773    1.8608 C   0  0  0  0  0  0  0  0  0  0  0  0
   -0.5437  -15.5485    1.8404 C   0  0  0  0  0  0  0  0  0  0  0  0
    0.7428  -16.1379    2.1583 C   0  0  0  0  0  0  0  0  0  0  0  0
    1.8608  -15.4332    2.4453 C   0  0  0  0  0  0  0  0  0  0  0  0
    1.7696  -14.0190    2.4364 C   0  0  0  0  0  0  0  0  0  0  0  0
    1.2979   -4.7991    1.6868 C   0  0  0  0  0  0  0  0  0  0  0  0
    1.2426   -3.3654    1.9049 C   0  0  0  0  0  0  0  0  0  0  0  0
    0.9124  -17.7208    2.2614 C   0  0  0  0  0  0  0  0  0  0  0  0
    1.8250  -18.1400    2.9923 C   0  0  0  0  0  0  0  0  0  0  0  0
    2.0639  -19.5406    2.9140 C   0  0  0  0  0  0  0  0  0  0  0  0
  6  7  1  0
  3  8  1  0
  8  9  2  3
  9 10  1  0
  7 16  2  3
 16 17  1  0
 13 18  1  0
 18 19  2  3
 19 20  1  0
  1  2  2  0
  2  3  1  0
  3  4  2  0
  4  5  1  0
  5  6  2  0
  1  6  1  0
 10 11  2  0
 11 12  1  0
 12 13  2  0
 13 14  1  0
 14 15  2  0
 10 15  1  0
M  END

$$$$
No_1151-/export/home/yangzhenyu/potential_scad_32_flow//YTHDC2/2024-12-06-03-22-00/
     RDKit          3D

 18 19  0  0  0  0  0  0  0  0999 V2000
    1.1787   -8.0297    3.5154 C   0  0  0  0  0  0  0  0  0  0  0  0
    1.0491   -6.8434    2.9820 C   0  0  0  0  0  0  0  0  0  0  0  0
    1.9985   -8.9840    2.8958 C   0  0  0  0  0  0  0  0  0  0  0  0
    1.9135  -10.3404    3.6266 C   0  0  0  0  0  0  0  0  0  0  0  0
    0.7479  -10.9191    3.7202 C   0  0  0  0  0  0  0  0  0  0  0  0
    0.2782   -6.7158    1.8352 C   0  0  0  0  0  0  0  0  0  0  0  0
    0.0493   -5.5581    1.3972 C   0  0  0  0  0  0  0  0  0  0  0  0
    0.2430  -11.4821    2.5107 C   0  0  0  0  0  0  0  0  0  0  0  0
    0.7237   -4.3904    1.9565 C   0  0  0  0  0  0  0  0  0  0  0  0
    1.6601   -4.5957    3.0532 C   0  0  0  0  0  0  0  0  0  0  0  0
    1.6956   -5.8278    3.6267 C   0  0  0  0  0  0  0  0  0  0  0  0
    1.1118  -12.2885    1.7838 C   0  0  0  0  0  0  0  0  0  0  0  0
    0.4727  -13.1601    0.9709 C   0  0  0  0  0  0  0  0  0  0  0  0
   -0.7537  -13.1831    0.6327 C   0  0  0  0  0  0  0  0  0  0  0  0
   -1.5679  -12.4376    1.4158 C   0  0  0  0  0  0  0  0  0  0  0  0
   -1.0696  -11.5446    2.4059 C   0  0  0  0  0  0  0  0  0  0  0  0
    0.5950   -2.9503    1.2402 O   0  0  0  0  0  0  0  0  0  0  0  0
   -1.9987  -10.9348    3.1608 C   0  0  0  0  0  0  0  0  0  0  0  0
  1  2  1  0
  1  3  1  0
  3  4  1  0
  4  5  1  0
  5  8  1  0
  9 17  1  0
 16 18  1  0
  8 12  2  0
 12 13  1  0
 13 14  2  0
 14 15  1  0
 15 16  2  0
  8 16  1  0
  2  6  2  0
  6  7  1  0
  7  9  2  0
  9 10  1  0
 10 11  2  0
  2 11  1  0
M  END

$$$$
No_1152-/export/home/yangzhenyu/potential_scad_32_flow//YTHDC2/2024-12-06-03-22-00/
     RDKit          3D

 18 19  0  0  0  0  0  0  0  0999 V2000
    1.1787   -8.0297    3.5154 C   0  0  0  0  0  0  0  0  0  0  0  0
    1.0491   -6.8434    2.9820 C   0  0  0  0  0  0  0  0  0  0  0  0
    0.0950   -8.8404    3.2292 C   0  0  0  0  0  0  0  0  0  0  0  0
   -0.9173   -8.4596    2.5152 C   0  0  0  0  0  0  0  0  0  0  0  0
   -1.0331   -7.2162    2.0653 C   0  0  0  0  0  0  0  0  0  0  0  0
   -0.0105   -6.3168    2.3081 C   0  0  0  0  0  0  0  0  0  0  0  0
    0.1150   -4.9910    1.8495 C   0  0  0  0  0  0  0  0  0  0  0  0
   -0.1376   -4.7952    0.5550 C   0  0  0  0  0  0  0  0  0  0  0  0
   -0.2146   -3.3857    0.2341 C   0  0  0  0  0  0  0  0  0  0  0  0
    0.4473   -2.4574    0.8723 C   0  0  0  0  0  0  0  0  0  0  0  0
    0.7907   -2.6741    2.1866 C   0  0  0  0  0  0  0  0  0  0  0  0
    0.6797   -3.9846    2.6856 C   0  0  0  0  0  0  0  0  0  0  0  0
    0.2054  -10.4382    3.8171 C   0  0  0  0  0  0  0  0  0  0  0  0
   -0.9313  -11.1586    3.5371 C   0  0  0  0  0  0  0  0  0  0  0  0
   -0.6925  -12.5356    3.8327 C   0  0  0  0  0  0  0  0  0  0  0  0
   -1.5306  -13.3326    3.0769 C   0  0  0  0  0  0  0  0  0  0  0  0
   -1.2886  -14.7651    3.1761 C   0  0  0  0  0  0  0  0  0  0  0  0
   -0.5547  -15.3824    2.6179 C   0  0  0  0  0  0  0  0  0  0  0  0
  6  7  1  0
  3 13  1  0
 13 14  2  3
 14 15  1  0
 15 16  2  3
 16 17  1  0
 17 18  2  0
  1  2  2  0
  2  6  1  0
  5  6  2  0
  4  5  1  0
  3  4  2  0
  1  3  1  0
  7  8  2  0
  8  9  1  0
  9 10  2  0
 10 11  1  0
 11 12  2  0
  7 12  1  0
M  END

$$$$
No_1153-/export/home/yangzhenyu/potential_scad_32_flow//YTHDC2/2024-12-06-03-22-00/
     RDKit          3D

 19 20  0  0  0  0  0  0  0  0999 V2000
    1.1787   -8.0297    3.5154 C   0  0  0  0  0  0  0  0  0  0  0  0
    1.0491   -6.8434    2.9820 C   0  0  0  0  0  0  0  0  0  0  0  0
    0.9905   -9.0774    2.6527 C   0  0  0  0  0  0  0  0  0  0  0  0
    0.7897   -8.9519    1.3691 C   0  0  0  0  0  0  0  0  0  0  0  0
    0.7018   -7.7198    0.7892 C   0  0  0  0  0  0  0  0  0  0  0  0
    0.8918   -6.5957    1.6117 C   0  0  0  0  0  0  0  0  0  0  0  0
    1.0774  -10.6059    3.3145 C   0  0  0  0  0  0  0  0  0  0  0  0
    2.1444  -11.0408    3.6446 C   0  0  0  0  0  0  0  0  0  0  0  0
   -0.0506  -11.2314    3.3994 C   0  0  0  0  0  0  0  0  0  0  0  0
   -0.1534  -12.4640    3.1550 C   0  0  0  0  0  0  0  0  0  0  0  0
    2.2261  -12.4654    3.8102 C   0  0  0  0  0  0  0  0  0  0  0  0
    1.1433  -13.2141    3.5570 C   0  0  0  0  0  0  0  0  0  0  0  0
    1.2063  -14.5816    3.5996 O   0  0  0  0  0  0  0  0  0  0  0  0
    0.7960   -5.0927    0.9927 C   0  0  0  0  0  0  0  0  0  0  0  0
    0.1389   -4.2142    1.9539 O   0  0  0  0  0  0  0  0  0  0  0  0
    0.1847   -2.9005    1.4668 C   0  0  0  0  0  0  0  0  0  0  0  0
    0.9717   -2.1685    2.1039 C   0  0  0  0  0  0  0  0  0  0  0  0
    1.2684   -2.4913    3.2201 C   0  0  0  0  0  0  0  0  0  0  0  0
    0.4595   -2.1274    4.4215 C   0  0  0  0  0  0  0  0  0  0  0  0
  3  7  1  0
  7  8  1  0
  7  9  1  0
 10 12  1  0
 11 12  1  0
 12 13  2  0
  6 14  1  0
 14 15  1  0
 15 16  1  0
 16 17  1  0
 17 18  1  0
 18 19  1  0
  9 10  1  0
  8 11  1  0
  1  2  2  0
  2  6  1  0
  5  6  2  0
  4  5  1  0
  3  4  2  0
  1  3  1  0
M  END

$$$$
No_1154-/export/home/yangzhenyu/potential_scad_32_flow//YTHDC2/2024-12-06-03-22-00/
     RDKit          3D

 19 19  0  0  1  0  0  0  0  0999 V2000
    1.1787   -8.0297    3.5154 C   0  0  0  0  0  0  0  0  0  0  0  0
    1.1048   -9.2215    3.2892 C   0  0  0  0  0  0  0  0  0  0  0  0
    1.2339   -9.7611    2.0189 C   0  0  0  0  0  0  0  0  0  0  0  0
    1.3583   -9.0036    0.9764 C   0  0  0  0  0  0  0  0  0  0  0  0
    1.5996   -7.6362    1.1311 C   0  0  0  0  0  0  0  0  0  0  0  0
    1.4830   -7.0928    2.3626 C   0  0  0  0  0  0  0  0  0  0  0  0
    1.5395   -5.7300    2.6182 C   0  0  0  0  0  0  0  0  0  0  0  0
    1.1775  -11.2233    1.8407 C   0  0  0  0  0  0  0  0  0  0  0  0
    1.9057  -12.1147    2.3397 N   0  0  0  0  0  0  0  0  0  0  0  0
    1.4410  -13.3072    2.6639 C   0  0  0  0  0  0  0  0  0  0  0  0
    1.9524  -14.4992    2.3628 C   0  0  1  0  0  0  0  0  0  0  0  0
    3.0541  -14.4878    1.5513 C   0  0  0  0  0  0  0  0  0  0  0  0
    1.5753  -15.7252    2.8841 C   0  0  0  0  0  0  0  0  0  0  0  0
    0.5027  -15.7936    3.7612 C   0  0  0  0  0  0  0  0  0  0  0  0
    2.2628  -16.8400    2.6613 O   0  0  0  0  0  0  0  0  0  0  0  0
    0.4336  -11.6459    0.8485 O   0  0  0  0  0  0  0  0  0  0  0  0
    0.6196   -4.8799    2.7804 O   0  0  0  0  0  0  0  0  0  0  0  0
   -0.3102  -17.0159    3.6275 C   0  0  0  0  0  0  0  0  0  0  0  0
   -1.1432  -17.1392    4.3746 C   0  0  0  0  0  0  0  0  0  0  0  0
  6  7  1  0
  3  8  1  0
  8  9  1  0
  9 10  1  0
 10 11  1  0
 11 12  1  1
 11 13  1  0
 13 14  1  0
 13 15  2  0
  8 16  2  0
  7 17  2  0
 14 18  1  0
 18 19  1  0
  1  2  2  0
  2  3  1  0
  3  4  2  0
  4  5  1  0
  5  6  2  0
  1  6  1  0
M  END

$$$$
No_1155-/export/home/yangzhenyu/potential_scad_32_flow//YTHDC2/2024-12-06-03-22-00/
     RDKit          3D

 17 17  0  0  1  0  0  0  0  0999 V2000
    1.1787   -8.0297    3.5154 O   0  0  0  0  0  0  0  0  0  0  0  0
    0.6747   -7.4019    2.7838 C   0  0  2  0  0  0  0  0  0  0  0  0
    0.7594   -8.0032    1.4295 C   0  0  0  0  0  0  0  0  0  0  0  0
    0.3459   -9.1500    1.3581 C   0  0  0  0  0  0  0  0  0  0  0  0
    1.1876  -10.0065    2.0240 C   0  0  2  0  0  0  0  0  0  0  0  0
    1.9076   -9.7378    2.7265 C   0  0  0  0  0  0  0  0  0  0  0  0
    1.8714   -9.2752    3.9137 C   0  0  0  0  0  0  0  0  0  0  0  0
    0.5483   -6.0403    2.9669 C   0  0  0  0  0  0  0  0  0  0  0  0
   -0.6932   -5.5000    2.6330 N   0  0  0  0  0  0  0  0  0  0  0  0
    1.5230   -5.1726    3.3871 O   0  0  0  0  0  0  0  0  0  0  0  0
    1.3747  -11.2864    1.1723 C   0  0  0  0  0  0  0  0  0  0  0  0
    2.0297  -12.3317    1.5453 O   0  0  0  0  0  0  0  0  0  0  0  0
    0.3808  -11.6709    0.2108 O   0  0  0  0  0  0  0  0  0  0  0  0
   -0.9117   -4.1249    2.7227 C   0  0  0  0  0  0  0  0  0  0  0  0
   -1.6713   -3.6988    1.7032 C   0  0  0  0  0  0  0  0  0  0  0  0
   -1.2022   -2.9017    0.7381 C   0  0  0  0  0  0  0  0  0  0  0  0
   -0.0016   -2.2446    1.0075 C   0  0  0  0  0  0  0  0  0  0  0  0
  1  2  1  0
  2  3  1  0
  3  4  1  0
  4  5  1  0
  5  6  1  0
  1  7  1  0
  6  7  1  0
  2  8  1  6
  8  9  1  0
  8 10  2  0
  5 11  1  6
 11 12  2  0
 11 13  1  0
  9 14  1  0
 14 15  1  0
 15 16  1  0
 16 17  1  0
M  END

$$$$
No_1156-/export/home/yangzhenyu/potential_scad_32_flow//YTHDC2/2024-12-06-03-22-00/
     RDKit          3D

 18 18  0  0  1  0  0  0  0  0999 V2000
    1.1787   -8.0297    3.5154 C   0  0  0  0  0  0  0  0  0  0  0  0
    1.0491   -6.8434    2.9820 C   0  0  0  0  0  0  0  0  0  0  0  0
    0.0950   -8.8404    3.2292 C   0  0  0  0  0  0  0  0  0  0  0  0
   -0.9173   -8.4596    2.5152 C   0  0  0  0  0  0  0  0  0  0  0  0
   -1.0331   -7.2162    2.0653 C   0  0  0  0  0  0  0  0  0  0  0  0
   -0.0105   -6.3168    2.3081 C   0  0  0  0  0  0  0  0  0  0  0  0
    0.0485   -4.9783    1.8782 C   0  0  0  0  0  0  0  0  0  0  0  0
    0.9625   -4.1072    2.3252 O   0  0  0  0  0  0  0  0  0  0  0  0
   -0.5912   -4.4986    0.8553 C   0  0  0  0  0  0  0  0  0  0  0  0
    0.1928  -10.2856    3.6823 C   0  0  2  0  0  0  0  0  0  0  0  0
   -0.9963  -10.9089    3.9872 N   0  0  0  0  0  0  0  0  0  0  0  0
    1.3377  -10.8610    4.1788 C   0  0  0  0  0  0  0  0  0  0  0  0
    2.0701  -11.5683    3.4367 C   0  0  0  0  0  0  0  0  0  0  0  0
    2.1053  -12.8261    3.5450 C   0  0  0  0  0  0  0  0  0  0  0  0
    1.7443  -13.7163    2.3574 C   0  0  0  0  0  0  0  0  0  0  0  0
    1.5076  -12.9822    1.1661 O   0  0  0  0  0  0  0  0  0  0  0  0
    1.4726  -14.9570    2.3658 N   0  0  0  0  0  0  0  0  0  0  0  0
    0.9695  -15.6809    1.3636 C   0  0  0  0  0  0  0  0  0  0  0  0
  6  7  1  0
  7  8  2  0
  7  9  1  0
  3 10  1  0
 10 11  1  1
 10 12  1  0
 12 13  1  0
 13 14  1  0
 14 15  1  0
 15 16  2  0
 15 17  1  0
 17 18  1  0
  1  2  2  0
  2  6  1  0
  5  6  2  0
  4  5  1  0
  3  4  2  0
  1  3  1  0
M  END

$$$$
No_1157-/export/home/yangzhenyu/potential_scad_32_flow//YTHDC2/2024-12-06-03-22-00/
     RDKit          3D

 18 19  0  0  0  0  0  0  0  0999 V2000
    1.1787   -8.0297    3.5154 C   0  0  0  0  0  0  0  0  0  0  0  0
    1.1048   -9.2215    3.2892 C   0  0  0  0  0  0  0  0  0  0  0  0
    1.2339   -9.7611    2.0189 C   0  0  0  0  0  0  0  0  0  0  0  0
    1.3583   -9.0036    0.9764 C   0  0  0  0  0  0  0  0  0  0  0  0
    1.5996   -7.6362    1.1311 C   0  0  0  0  0  0  0  0  0  0  0  0
    1.4830   -7.0928    2.3626 C   0  0  0  0  0  0  0  0  0  0  0  0
    1.4898   -5.7274    2.6199 C   0  0  0  0  0  0  0  0  0  0  0  0
    1.1681  -11.2222    1.8390 C   0  0  0  0  0  0  0  0  0  0  0  0
    0.5014  -11.9760    2.2068 C   0  0  0  0  0  0  0  0  0  0  0  0
    0.4167  -13.3685    2.0527 C   0  0  0  0  0  0  0  0  0  0  0  0
   -0.6161  -14.0718    1.8701 C   0  0  0  0  0  0  0  0  0  0  0  0
   -0.5561  -15.5453    1.8466 N   0  0  0  0  0  0  0  0  0  0  0  0
    1.7113  -14.1487    2.4013 C   0  0  0  0  0  0  0  0  0  0  0  0
    1.7602  -15.4983    2.5371 C   0  0  0  0  0  0  0  0  0  0  0  0
    0.6718  -16.2085    2.2678 C   0  0  0  0  0  0  0  0  0  0  0  0
    0.7087  -17.5343    2.2241 C   0  0  0  0  0  0  0  0  0  0  0  0
    1.2510   -4.8473    1.6236 C   0  0  0  0  0  0  0  0  0  0  0  0
    0.5844   -3.7564    1.8332 C   0  0  0  0  0  0  0  0  0  0  0  0
  6  7  1  0
  3  8  1  0
  8  9  2  3
  9 10  1  0
 15 16  1  0
  7 17  2  3
 17 18  1  0
  1  2  2  0
  2  3  1  0
  3  4  2  0
  4  5  1  0
  5  6  2  0
  1  6  1  0
 10 11  2  0
 11 12  1  0
 12 15  2  0
 14 15  1  0
 13 14  2  0
 10 13  1  0
M  END

$$$$
No_1158-/export/home/yangzhenyu/potential_scad_32_flow//YTHDC2/2024-12-06-03-22-00/
     RDKit          3D

 18 19  0  0  0  0  0  0  0  0999 V2000
    1.1787   -8.0297    3.5154 C   0  0  0  0  0  0  0  0  0  0  0  0
    1.1048   -9.2215    3.2892 C   0  0  0  0  0  0  0  0  0  0  0  0
    1.2339   -9.7611    2.0189 C   0  0  0  0  0  0  0  0  0  0  0  0
    1.3583   -9.0036    0.9764 C   0  0  0  0  0  0  0  0  0  0  0  0
    1.5996   -7.6362    1.1311 C   0  0  0  0  0  0  0  0  0  0  0  0
    1.4830   -7.0928    2.3626 C   0  0  0  0  0  0  0  0  0  0  0  0
    1.1008  -11.2372    1.8542 C   0  0  0  0  0  0  0  0  0  0  0  0
    0.5178  -11.9759    2.3445 C   0  0  0  0  0  0  0  0  0  0  0  0
    0.4575  -13.3705    2.1281 C   0  0  0  0  0  0  0  0  0  0  0  0
    1.1632  -14.1013    2.0451 C   0  0  0  0  0  0  0  0  0  0  0  0
    1.0401  -15.5542    1.9839 C   0  0  0  0  0  0  0  0  0  0  0  0
   -0.1527  -16.0372    1.9519 C   0  0  0  0  0  0  0  0  0  0  0  0
   -1.1929  -15.2536    2.0893 C   0  0  0  0  0  0  0  0  0  0  0  0
   -1.0069  -13.8556    2.3031 C   0  0  0  0  0  0  0  0  0  0  0  0
    1.5633   -9.4040   -0.3599 Cl  0  0  0  0  0  0  0  0  0  0  0  0
    1.5115   -5.6216    2.5989 Br  0  0  0  0  0  0  0  0  0  0  0  0
   -0.4442  -17.4330    1.8660 Cl  0  0  0  0  0  0  0  0  0  0  0  0
   -2.3270  -12.8497    2.5859 O   0  0  0  0  0  0  0  0  0  0  0  0
  3  7  1  0
  7  8  2  3
  8  9  1  0
  4 15  1  0
  6 16  1  0
 12 17  1  0
 14 18  1  0
  1  2  2  0
  2  3  1  0
  3  4  2  0
  4  5  1  0
  5  6  2  0
  1  6  1  0
  9 10  2  0
 10 11  1  0
 11 12  2  0
 12 13  1  0
 13 14  2  0
  9 14  1  0
M  END

$$$$
No_1159-/export/home/yangzhenyu/potential_scad_32_flow//YTHDC2/2024-12-06-03-22-00/
     RDKit          3D

 17 18  0  0  0  0  0  0  0  0999 V2000
    1.1787   -8.0297    3.5154 C   0  0  0  0  0  0  0  0  0  0  0  0
    1.1048   -9.2215    3.2892 C   0  0  0  0  0  0  0  0  0  0  0  0
    1.2339   -9.7611    2.0189 C   0  0  0  0  0  0  0  0  0  0  0  0
    1.3583   -9.0036    0.9764 C   0  0  0  0  0  0  0  0  0  0  0  0
    1.5996   -7.6362    1.1311 C   0  0  0  0  0  0  0  0  0  0  0  0
    1.4830   -7.0928    2.3626 C   0  0  0  0  0  0  0  0  0  0  0  0
    1.1008  -11.2372    1.8542 C   0  0  0  0  0  0  0  0  0  0  0  0
    0.4812  -11.6084    0.6459 N   0  0  0  0  0  0  0  0  0  0  0  0
    1.9699  -12.0682    2.4383 C   0  0  0  0  0  0  0  0  0  0  0  0
    1.7828  -13.4306    1.9636 C   0  0  0  0  0  0  0  0  0  0  0  0
    1.0527  -13.8167    0.9829 C   0  0  0  0  0  0  0  0  0  0  0  0
    0.3944  -12.7929    0.2486 C   0  0  0  0  0  0  0  0  0  0  0  0
    1.5291   -5.6380    2.6623 Cl  0  0  0  0  0  0  0  0  0  0  0  0
    2.5240  -14.4673    2.7468 S   0  0  0  0  0  0  0  0  0  0  0  0
    1.9806  -15.9856    2.0951 N   0  0  0  0  0  0  0  0  0  0  0  0
    2.8786  -17.0591    2.3687 C   0  0  0  0  0  0  0  0  0  0  0  0
    2.6510  -18.0834    2.8702 O   0  0  0  0  0  0  0  0  0  0  0  0
  3  7  1  0
  6 13  1  0
 10 14  1  0
 14 15  1  0
 15 16  1  0
 16 17  2  0
  1  2  2  0
  2  3  1  0
  3  4  2  0
  4  5  1  0
  5  6  2  0
  1  6  1  0
  7  8  2  0
  8 12  1  0
 11 12  2  0
 10 11  1  0
  9 10  2  0
  7  9  1  0
M  END

$$$$
No_1160-/export/home/yangzhenyu/potential_scad_32_flow//YTHDC2/2024-12-06-03-22-00/
     RDKit          3D

 18 18  0  0  0  0  0  0  0  0999 V2000
    1.1787   -8.0297    3.5154 C   0  0  0  0  0  0  0  0  0  0  0  0
    1.0491   -6.8434    2.9820 C   0  0  0  0  0  0  0  0  0  0  0  0
    0.9905   -9.0774    2.6527 C   0  0  0  0  0  0  0  0  0  0  0  0
    0.7897   -8.9519    1.3691 C   0  0  0  0  0  0  0  0  0  0  0  0
    0.7018   -7.7198    0.7892 C   0  0  0  0  0  0  0  0  0  0  0  0
    0.8918   -6.5957    1.6117 C   0  0  0  0  0  0  0  0  0  0  0  0
    1.0998  -10.4710    3.2437 C   0  0  0  0  0  0  0  0  0  0  0  0
    1.3102  -11.5554    2.5214 N   0  0  0  0  0  0  0  0  0  0  0  0
    1.4271  -12.7713    3.1438 C   0  0  0  0  0  0  0  0  0  0  0  0
    1.3143  -13.9699    2.4884 F   0  0  0  0  0  0  0  0  0  0  0  0
    0.8750   -5.2686    1.1944 C   0  0  0  0  0  0  0  0  0  0  0  0
    1.1734  -10.6055    4.5731 O   0  0  0  0  0  0  0  0  0  0  0  0
    1.5839   -4.3701    1.8672 O   0  0  0  0  0  0  0  0  0  0  0  0
    0.2594   -4.9024    0.2192 O   0  0  0  0  0  0  0  0  0  0  0  0
    2.6945  -12.9890    3.7679 F   0  0  0  0  0  0  0  0  0  0  0  0
    0.6255  -10.0172    0.4035 C   0  0  0  0  0  0  0  0  0  0  0  0
   -0.3013   -9.9064   -0.5296 O   0  0  0  0  0  0  0  0  0  0  0  0
    1.6475  -10.6558   -0.0362 O   0  0  0  0  0  0  0  0  0  0  0  0
  3  7  1  0
  7  8  1  0
  8  9  1  0
  9 10  1  0
  6 11  1  0
  7 12  2  0
 11 13  2  0
 11 14  1  0
  9 15  1  0
  4 16  1  0
 16 17  1  0
 16 18  2  0
  1  2  2  0
  2  6  1  0
  5  6  2  0
  4  5  1  0
  3  4  2  0
  1  3  1  0
M  END

$$$$
No_1161-/export/home/yangzhenyu/potential_scad_32_flow//YTHDC2/2024-12-06-03-22-00/
     RDKit          3D

 20 21  0  0  1  0  0  0  0  0999 V2000
    1.1787   -8.0297    3.5154 C   0  0  0  0  0  0  0  0  0  0  0  0
    1.0491   -6.8434    2.9820 C   0  0  2  0  0  0  0  0  0  0  0  0
    0.9905   -9.0774    2.6527 C   0  0  0  0  0  0  0  0  0  0  0  0
    1.1655  -10.4663    3.1286 C   0  0  0  0  0  0  0  0  0  0  0  0
    1.2197  -11.4898    2.5831 C   0  0  0  0  0  0  0  0  0  0  0  0
    1.0589  -11.4458    1.1293 C   0  0  0  0  0  0  0  0  0  0  0  0
    0.9638  -10.3069    0.4651 C   0  0  0  0  0  0  0  0  0  0  0  0
    0.9191   -9.0789    1.1942 C   0  0  0  0  0  0  0  0  0  0  0  0
    0.9198   -7.8339    0.6158 C   0  0  0  0  0  0  0  0  0  0  0  0
    1.0184   -6.6904    1.4953 C   0  0  1  0  0  0  0  0  0  0  0  0
    1.3459  -12.8208    3.0776 C   0  0  0  0  0  0  0  0  0  0  0  0
    2.4563  -13.4572    3.0988 N   0  0  0  0  0  0  0  0  0  0  0  0
    0.7712   -7.6064   -0.5093 O   0  0  0  0  0  0  0  0  0  0  0  0
    1.4660   -5.6124    3.6294 C   0  0  0  0  0  0  0  0  0  0  0  0
    0.2346  -13.4920    3.4384 O   0  0  0  0  0  0  0  0  0  0  0  0
    1.0796   -4.3355    3.2618 O   0  0  0  0  0  0  0  0  0  0  0  0
    0.9753   -5.4821    0.8762 Cl  0  0  0  0  0  0  0  0  0  0  0  0
    0.0664   -3.7328    3.9387 C   0  0  0  0  0  0  0  0  0  0  0  0
    0.5024   -2.4559    4.5060 C   0  0  0  0  0  0  0  0  0  0  0  0
    0.4276   -1.3334    3.6177 C   0  0  0  0  0  0  0  0  0  0  0  0
  1  2  1  0
  8  9  1  0
  2 10  1  0
  9 10  1  0
  5 11  1  0
 11 12  1  0
  9 13  2  0
  2 14  1  6
 11 15  2  0
 14 16  1  0
 10 17  1  1
 16 18  1  0
 18 19  1  0
 19 20  1  0
  1  3  1  0
  3  4  2  0
  4  5  1  0
  5  6  2  0
  6  7  1  0
  7  8  2  0
  3  8  1  0
M  END

$$$$
No_1162-/export/home/yangzhenyu/potential_scad_32_flow//YTHDC2/2024-12-06-03-22-00/
     RDKit          3D

 19 20  0  0  0  0  0  0  0  0999 V2000
    1.1787   -8.0297    3.5154 C   0  0  0  0  0  0  0  0  0  0  0  0
    1.1048   -9.2215    3.2892 C   0  0  0  0  0  0  0  0  0  0  0  0
    1.3627  -10.1721    4.3044 C   0  0  0  0  0  0  0  0  0  0  0  0
    1.7354  -11.4730    3.9023 C   0  0  0  0  0  0  0  0  0  0  0  0
    1.8080  -11.8127    2.7216 C   0  0  0  0  0  0  0  0  0  0  0  0
    1.5854  -11.0021    1.7249 C   0  0  0  0  0  0  0  0  0  0  0  0
    1.3573   -9.7389    1.9287 C   0  0  0  0  0  0  0  0  0  0  0  0
    1.1102   -8.8712    0.9017 C   0  0  0  0  0  0  0  0  0  0  0  0
    0.5299   -7.6926    1.0325 C   0  0  0  0  0  0  0  0  0  0  0  0
    0.7526   -7.0802    2.3301 C   0  0  0  0  0  0  0  0  0  0  0  0
    2.0528  -13.2563    2.4302 N   0  0  0  0  0  0  0  0  0  0  0  0
    0.5572   -5.7047    2.5351 C   0  0  0  0  0  0  0  0  0  0  0  0
    1.9848  -13.8483    1.3282 C   0  0  0  0  0  0  0  0  0  0  0  0
   -0.5364   -5.1120    2.1361 C   0  0  0  0  0  0  0  0  0  0  0  0
   -0.7231   -3.6672    2.2805 N   0  0  0  0  0  0  0  0  0  0  0  0
    2.3281  -15.1245    1.3285 C   0  0  0  0  0  0  0  0  0  0  0  0
    1.4626  -16.0557    0.9007 C   0  0  0  0  0  0  0  0  0  0  0  0
    0.4209  -15.5531    0.0915 C   0  0  0  0  0  0  0  0  0  0  0  0
    0.1322  -14.1932   -0.0528 C   0  0  0  0  0  0  0  0  0  0  0  0
  5 11  1  0
 10 12  1  0
 11 13  1  0
 12 14  2  3
 14 15  1  0
 13 16  1  0
 16 17  2  3
 17 18  1  0
 18 19  2  0
  1  2  2  0
  7  8  2  0
  8  9  1  0
  9 10  2  0
  1 10  1  0
  2  3  1  0
  3  4  2  0
  4  5  1  0
  5  6  2  0
  6  7  1  0
  2  7  1  0
M  END

$$$$
No_1163-/export/home/yangzhenyu/potential_scad_32_flow//YTHDC2/2024-12-06-03-22-00/
     RDKit          3D

 17 18  0  0  1  0  0  0  0  0999 V2000
    1.1787   -8.0297    3.5154 C   0  0  0  0  0  0  0  0  0  0  0  0
    1.0491   -6.8434    2.9820 C   0  0  0  0  0  0  0  0  0  0  0  0
    1.9985   -8.9840    2.8958 C   0  0  0  0  0  0  0  0  0  0  0  0
    1.9135  -10.3404    3.6266 C   0  0  2  0  0  0  0  0  0  0  0  0
    2.2847  -10.5440    4.7936 C   0  0  0  0  0  0  0  0  0  0  0  0
    0.3304   -6.7696    1.8077 Br  0  0  0  0  0  0  0  0  0  0  0  0
    1.5878  -11.4800    2.8590 C   0  0  0  0  0  0  0  0  0  0  0  0
    1.6628  -12.6678    3.4360 C   0  0  0  0  0  0  0  0  0  0  0  0
    0.8885  -13.7032    2.6409 C   0  0  0  0  0  0  0  0  0  0  0  0
    0.3359  -13.5084    1.5773 C   0  0  0  0  0  0  0  0  0  0  0  0
   -0.2773  -14.5726    0.8056 C   0  0  0  0  0  0  0  0  0  0  0  0
   -0.9597  -14.1524   -0.3351 C   0  0  0  0  0  0  0  0  0  0  0  0
   -0.8195  -12.8084   -0.8238 C   0  0  0  0  0  0  0  0  0  0  0  0
   -0.2982  -11.8482   -0.1072 C   0  0  0  0  0  0  0  0  0  0  0  0
    0.3513  -12.1951    1.1453 C   0  0  0  0  0  0  0  0  0  0  0  0
    1.0721  -11.1930    1.7945 C   0  0  0  0  0  0  0  0  0  0  0  0
    3.4745  -10.9153    5.2766 O   0  0  0  0  0  0  0  0  0  0  0  0
  1  2  1  0
  1  3  1  0
  4  3  1  6
  4  5  1  0
  2  6  1  0
  4  7  1  0
  5 17  2  0
  7  8  2  0
  8  9  1  0
  9 10  2  0
 15 16  2  0
  7 16  1  0
 10 11  1  0
 11 12  2  0
 12 13  1  0
 13 14  2  0
 14 15  1  0
 10 15  1  0
M  END

$$$$
No_1164-/export/home/yangzhenyu/potential_scad_32_flow//YTHDC2/2024-12-06-03-22-00/
     RDKit          3D

 19 19  0  0  0  0  0  0  0  0999 V2000
    1.1787   -8.0297    3.5154 C   0  0  0  0  0  0  0  0  0  0  0  0
    1.1048   -9.2215    3.2892 C   0  0  0  0  0  0  0  0  0  0  0  0
    1.3627  -10.1721    4.3044 C   0  0  0  0  0  0  0  0  0  0  0  0
    1.7354  -11.4730    3.9023 C   0  0  0  0  0  0  0  0  0  0  0  0
    1.8080  -11.8127    2.7216 C   0  0  0  0  0  0  0  0  0  0  0  0
    1.5854  -11.0021    1.7249 C   0  0  0  0  0  0  0  0  0  0  0  0
    1.3573   -9.7389    1.9287 C   0  0  0  0  0  0  0  0  0  0  0  0
    1.1102   -8.8712    0.9017 C   0  0  0  0  0  0  0  0  0  0  0  0
    0.5299   -7.6926    1.0325 O   0  0  0  0  0  0  0  0  0  0  0  0
    1.3970   -9.2634   -0.4035 N   0  0  0  0  0  0  0  0  0  0  0  0
    2.1122  -13.2004    2.3256 C   0  0  0  0  0  0  0  0  0  0  0  0
    1.9001  -14.2511    3.1162 C   0  0  0  0  0  0  0  0  0  0  0  0
    1.3805  -15.4323    2.3982 C   0  0  0  0  0  0  0  0  0  0  0  0
    2.0444  -16.4960    2.5966 C   0  0  0  0  0  0  0  0  0  0  0  0
    1.8005  -17.7393    2.3478 O   0  0  0  0  0  0  0  0  0  0  0  0
    3.4662  -16.4278    2.0949 O   0  0  0  0  0  0  0  0  0  0  0  0
    0.1600   -7.1618    3.6461 O   0  0  0  0  0  0  0  0  0  0  0  0
    1.2425   -8.5357   -1.5416 O   0  0  0  0  0  0  0  0  0  0  0  0
    2.3346   -7.1519    3.6440 O   0  0  0  0  0  0  0  0  0  0  0  0
  1  2  1  0
  7  8  1  0
  8  9  2  0
  8 10  1  0
  5 11  1  0
 11 12  1  0
 12 13  1  0
 13 14  1  0
 14 15  2  0
 14 16  1  0
  1 17  1  0
 10 18  2  0
  1 19  2  0
  2  3  2  0
  3  4  1  0
  4  5  2  0
  5  6  1  0
  6  7  2  0
  2  7  1  0
M  END

$$$$
No_1165-/export/home/yangzhenyu/potential_scad_32_flow//YTHDC2/2024-12-06-03-22-00/
     RDKit          3D

 18 20  0  0  1  0  0  0  0  0999 V2000
    1.1787   -8.0297    3.5154 C   0  0  0  0  0  0  0  0  0  0  0  0
    1.0491   -6.8434    2.9820 C   0  0  0  0  0  0  0  0  0  0  0  0
    0.2462   -8.9560    3.0873 C   0  0  0  0  0  0  0  0  0  0  0  0
    0.3295   -6.5187    1.9069 C   0  0  0  0  0  0  0  0  0  0  0  0
   -0.5260   -8.7862    2.1368 C   0  0  0  0  0  0  0  0  0  0  0  0
   -0.5458   -7.5614    1.5054 C   0  0  0  0  0  0  0  0  0  0  0  0
    0.3663  -10.3301    3.7373 C   0  0  0  0  0  0  0  0  0  0  0  0
   -0.8414  -11.0073    3.8266 C   0  0  0  0  0  0  0  0  0  0  0  0
   -1.8073  -10.7830    2.9067 C   0  0  0  0  0  0  0  0  0  0  0  0
   -1.6751   -9.6316    2.0473 C   0  0  0  0  0  0  0  0  0  0  0  0
    0.3723   -5.1463    1.0710 F   0  0  0  0  0  0  0  0  0  0  0  0
   -2.8664  -11.6437    2.6511 C   0  0  2  0  0  0  0  0  0  0  0  0
   -4.0120  -11.3722    3.2051 C   0  0  0  0  0  0  0  0  0  0  0  0
   -5.0575  -12.3179    3.1210 C   0  0  0  0  0  0  0  0  0  0  0  0
   -4.7623  -13.4323    2.3515 C   0  0  0  0  0  0  0  0  0  0  0  0
   -3.6400  -13.7481    1.8219 C   0  0  0  0  0  0  0  0  0  0  0  0
   -2.5891  -12.7915    1.9758 C   0  0  0  0  0  0  0  0  0  0  0  0
   -3.3705  -14.8907    1.1482 O   0  0  0  0  0  0  0  0  0  0  0  0
  4 11  1  0
 12  9  1  1
 13 14  1  0
 15 16  1  0
 12 17  1  0
 16 17  1  0
 16 18  2  0
 14 15  1  0
 12 13  1  0
  5 10  2  0
  9 10  1  0
  8  9  2  0
  7  8  1  0
  3  7  2  0
  1  2  2  0
  2  4  1  0
  4  6  2  0
  5  6  1  0
  3  5  1  0
  1  3  1  0
M  END

$$$$
No_1166-/export/home/yangzhenyu/potential_scad_32_flow//YTHDC2/2024-12-06-03-22-00/
     RDKit          3D

 20 21  0  0  0  0  0  0  0  0999 V2000
    1.1787   -8.0297    3.5154 C   0  0  0  0  0  0  0  0  0  0  0  0
    1.1048   -9.2215    3.2892 C   0  0  0  0  0  0  0  0  0  0  0  0
    1.3627  -10.1721    4.3044 C   0  0  0  0  0  0  0  0  0  0  0  0
    1.7354  -11.4730    3.9023 C   0  0  0  0  0  0  0  0  0  0  0  0
    1.8080  -11.8127    2.7216 C   0  0  0  0  0  0  0  0  0  0  0  0
    1.5854  -11.0021    1.7249 C   0  0  0  0  0  0  0  0  0  0  0  0
    1.3573   -9.7389    1.9287 C   0  0  0  0  0  0  0  0  0  0  0  0
    1.1102   -8.8712    0.9017 C   0  0  0  0  0  0  0  0  0  0  0  0
    0.5299   -7.6926    1.0325 C   0  0  0  0  0  0  0  0  0  0  0  0
    0.7526   -7.0802    2.3301 C   0  0  0  0  0  0  0  0  0  0  0  0
    2.0515  -13.2522    2.4284 O   0  0  0  0  0  0  0  0  0  0  0  0
    0.4385   -5.4424    2.5651 C   0  0  0  0  0  0  0  0  0  0  0  0
    0.9204   -4.7640    1.5541 C   0  0  0  0  0  0  0  0  0  0  0  0
    0.5044   -3.3471    1.6373 C   0  0  0  0  0  0  0  0  0  0  0  0
    0.8944   -2.6625    0.6884 C   0  0  0  0  0  0  0  0  0  0  0  0
    2.0346  -13.8147    1.2730 C   0  0  0  0  0  0  0  0  0  0  0  0
   -0.0503   -1.7823    0.0845 O   0  0  0  0  0  0  0  0  0  0  0  0
    1.1694   -9.3131   -0.4437 C   0  0  0  0  0  0  0  0  0  0  0  0
    2.3334   -9.4134   -1.0236 O   0  0  0  0  0  0  0  0  0  0  0  0
    0.2082   -9.0819   -1.3108 O   0  0  0  0  0  0  0  0  0  0  0  0
  5 11  1  0
 10 12  1  0
 12 13  1  0
 13 14  1  0
 14 15  1  0
 11 16  1  0
 15 17  1  0
  8 18  1  0
 18 19  1  0
 18 20  2  0
  1  2  2  0
  7  8  2  0
  8  9  1  0
  9 10  2  0
  1 10  1  0
  2  3  1  0
  3  4  2  0
  4  5  1  0
  5  6  2  0
  6  7  1  0
  2  7  1  0
M  END

$$$$
No_1167-/export/home/yangzhenyu/potential_scad_32_flow//YTHDC2/2024-12-06-03-22-00/
     RDKit          3D

 18 18  0  0  0  0  0  0  0  0999 V2000
    1.1787   -8.0297    3.5154 O   0  0  0  0  0  0  0  0  0  0  0  0
    0.9969   -8.9689    3.0048 C   0  0  0  0  0  0  0  0  0  0  0  0
    1.3055  -10.1056    3.6616 C   0  0  0  0  0  0  0  0  0  0  0  0
    1.1249  -11.3503    3.0941 C   0  0  0  0  0  0  0  0  0  0  0  0
    0.6932  -11.4484    1.8586 C   0  0  0  0  0  0  0  0  0  0  0  0
    0.5498  -10.3736    1.0579 C   0  0  0  0  0  0  0  0  0  0  0  0
    0.7643   -9.1185    1.6383 C   0  0  0  0  0  0  0  0  0  0  0  0
    0.4151   -7.8542    1.0784 C   0  0  0  0  0  0  0  0  0  0  0  0
   -0.7614   -7.7061    0.5352 O   0  0  0  0  0  0  0  0  0  0  0  0
    1.2177   -6.8881    0.8566 O   0  0  0  0  0  0  0  0  0  0  0  0
    1.2266  -12.6388    3.8256 Cl  0  0  0  0  0  0  0  0  0  0  0  0
    0.4825  -12.6461    1.0437 Cl  0  0  0  0  0  0  0  0  0  0  0  0
    0.2064  -10.3841   -0.3141 C   0  0  0  0  0  0  0  0  0  0  0  0
   -0.6563  -11.1779   -0.7916 O   0  0  0  0  0  0  0  0  0  0  0  0
    0.9513   -9.7829   -1.2896 O   0  0  0  0  0  0  0  0  0  0  0  0
    1.6924  -10.1497    5.0223 O   0  0  0  0  0  0  0  0  0  0  0  0
    1.0259   -5.6198    1.4288 C   0  0  0  0  0  0  0  0  0  0  0  0
    1.6435   -5.3283    2.7486 C   0  0  0  0  0  0  0  0  0  0  0  0
  1  2  1  0
  7  8  1  0
  8  9  2  0
  8 10  1  0
  4 11  1  0
  5 12  1  0
  6 13  1  0
 13 14  2  0
 13 15  1  0
  3 16  1  0
 10 17  1  0
 17 18  1  0
  2  3  2  0
  3  4  1  0
  4  5  2  0
  5  6  1  0
  6  7  2  0
  2  7  1  0
M  END

$$$$
No_1168-/export/home/yangzhenyu/potential_scad_32_flow//YTHDC2/2024-12-06-03-22-00/
     RDKit          3D

 18 18  0  0  0  0  0  0  0  0999 V2000
    1.1787   -8.0297    3.5154 C   0  0  0  0  0  0  0  0  0  0  0  0
    1.1048   -9.2215    3.2892 C   0  0  0  0  0  0  0  0  0  0  0  0
    1.3627  -10.1721    4.3044 C   0  0  0  0  0  0  0  0  0  0  0  0
    1.7354  -11.4730    3.9023 C   0  0  0  0  0  0  0  0  0  0  0  0
    1.8080  -11.8127    2.7216 C   0  0  0  0  0  0  0  0  0  0  0  0
    1.5854  -11.0021    1.7249 C   0  0  0  0  0  0  0  0  0  0  0  0
    1.3573   -9.7389    1.9287 C   0  0  0  0  0  0  0  0  0  0  0  0
    1.2865   -8.8078    0.9161 C   0  0  0  0  0  0  0  0  0  0  0  0
    1.6845   -9.1638   -0.2896 C   0  0  0  0  0  0  0  0  0  0  0  0
    2.2611   -8.4546   -1.0900 O   0  0  0  0  0  0  0  0  0  0  0  0
    0.7745   -9.9038   -0.9709 O   0  0  0  0  0  0  0  0  0  0  0  0
    2.0233  -13.2411    2.3816 O   0  0  0  0  0  0  0  0  0  0  0  0
    0.0920   -7.2285    3.3507 O   0  0  0  0  0  0  0  0  0  0  0  0
    1.7142  -14.2503    3.0458 C   0  0  0  0  0  0  0  0  0  0  0  0
    2.1289  -15.4807    2.4038 C   0  0  0  0  0  0  0  0  0  0  0  0
    1.8253  -16.6638    3.0390 C   0  0  0  0  0  0  0  0  0  0  0  0
    2.5081  -17.8757    2.7180 O   0  0  0  0  0  0  0  0  0  0  0  0
    0.9041  -16.8130    3.9820 N   0  0  0  0  0  0  0  0  0  0  0  0
  1  2  1  0
  7  8  1  0
  8  9  1  0
  9 10  2  0
  9 11  1  0
  5 12  1  0
  1 13  1  0
 12 14  1  0
 14 15  1  0
 15 16  1  0
 16 17  2  0
 16 18  1  0
  2  3  2  0
  3  4  1  0
  4  5  2  0
  5  6  1  0
  6  7  2  0
  2  7  1  0
M  END

$$$$
No_1169-/export/home/yangzhenyu/potential_scad_32_flow//YTHDC2/2024-12-06-03-22-00/
     RDKit          3D

 17 17  0  0  1  0  0  0  0  0999 V2000
    1.1787   -8.0297    3.5154 C   0  0  0  0  0  0  0  0  0  0  0  0
    1.0491   -6.8434    2.9820 C   0  0  0  0  0  0  0  0  0  0  0  0
    1.9985   -8.9840    2.8958 C   0  0  2  0  0  0  0  0  0  0  0  0
    1.7297   -9.2108    1.6335 C   0  0  0  0  0  0  0  0  0  0  0  0
    1.7343   -8.0566    0.8408 C   0  0  2  0  0  0  0  0  0  0  0  0
    1.0269   -6.8892    1.4456 C   0  0  0  0  0  0  0  0  0  0  0  0
    2.0740   -7.9416   -0.3682 C   0  0  0  0  0  0  0  0  0  0  0  0
    2.2588   -9.0634   -1.1089 O   0  0  0  0  0  0  0  0  0  0  0  0
    1.9403  -10.3752    3.5545 C   0  0  0  0  0  0  0  0  0  0  0  0
    2.3339  -10.4370    4.7338 O   0  0  0  0  0  0  0  0  0  0  0  0
    2.3834  -11.5035    2.7799 N   0  0  0  0  0  0  0  0  0  0  0  0
    2.2707  -12.7121    3.2660 C   0  0  0  0  0  0  0  0  0  0  0  0
    1.3704  -13.6448    2.4835 C   0  0  0  0  0  0  0  0  0  0  0  0
    0.7648  -13.0214    1.4910 C   0  0  0  0  0  0  0  0  0  0  0  0
    1.2891  -13.3145    0.2172 C   0  0  0  0  0  0  0  0  0  0  0  0
    1.2980  -14.8847    2.9246 C   0  0  0  0  0  0  0  0  0  0  0  0
    0.6665  -15.7419    2.1552 C   0  0  0  0  0  0  0  0  0  0  0  0
  1  2  1  0
  1  3  1  0
  3  4  1  0
  4  5  1  0
  2  6  1  0
  5  6  1  0
  5  7  1  6
  7  8  2  0
  3  9  1  1
  9 10  2  0
  9 11  1  0
 11 12  1  0
 12 13  1  0
 13 14  1  0
 14 15  1  0
 13 16  1  0
 16 17  1  0
M  END

$$$$
No_1170-/export/home/yangzhenyu/potential_scad_32_flow//YTHDC2/2024-12-06-03-22-00/
     RDKit          3D

 19 20  0  0  1  0  0  0  0  0999 V2000
    1.1787   -8.0297    3.5154 C   0  0  2  0  0  0  0  0  0  0  0  0
    1.0491   -6.8434    2.9820 F   0  0  0  0  0  0  0  0  0  0  0  0
    2.2352   -8.8249    2.8819 C   0  0  0  0  0  0  0  0  0  0  0  0
    2.2285  -10.1834    3.4417 C   0  0  0  0  0  0  0  0  0  0  0  0
    1.2164  -10.7837    4.1268 C   0  0  1  0  0  0  0  0  0  0  0  0
    0.0470   -9.9989    4.3516 C   0  0  0  0  0  0  0  0  0  0  0  0
    0.0342   -8.6813    3.9912 C   0  0  0  0  0  0  0  0  0  0  0  0
    1.2242  -12.1130    4.3709 O   0  0  0  0  0  0  0  0  0  0  0  0
   -1.0062   -7.9356    4.4750 O   0  0  0  0  0  0  0  0  0  0  0  0
    0.8343  -13.0143    3.2754 C   0  0  0  0  0  0  0  0  0  0  0  0
    1.3745  -14.2701    3.4035 C   0  0  0  0  0  0  0  0  0  0  0  0
    1.0170  -14.9949    2.2132 C   0  0  0  0  0  0  0  0  0  0  0  0
    0.2641  -14.5617    1.2728 C   0  0  0  0  0  0  0  0  0  0  0  0
   -0.0996  -13.3019    1.1736 C   0  0  0  0  0  0  0  0  0  0  0  0
    0.1693  -12.4585    2.3189 C   0  0  0  0  0  0  0  0  0  0  0  0
   -1.0232  -12.7446    0.0315 C   0  0  0  0  0  0  0  0  0  0  0  0
   -0.7971  -11.4995   -0.3451 C   0  0  0  0  0  0  0  0  0  0  0  0
   -1.4352  -10.6708   -0.0972 C   0  0  0  0  0  0  0  0  0  0  0  0
   -2.7136  -10.8648    0.4950 C   0  0  0  0  0  0  0  0  0  0  0  0
  1  2  1  6
  1  3  1  0
  4  5  1  0
  1  7  1  0
  6  7  1  0
  5  8  1  6
  7  9  2  0
  8 10  1  0
 14 16  1  0
 16 17  1  0
 17 18  2  3
 18 19  1  0
  3  4  1  0
  5  6  1  0
 10 11  2  0
 11 12  1  0
 12 13  2  0
 13 14  1  0
 14 15  2  0
 10 15  1  0
M  END

$$$$
No_1171-/export/home/yangzhenyu/potential_scad_32_flow//YTHDC2/2024-12-06-03-22-00/
     RDKit          3D

 20 21  0  0  0  0  0  0  0  0999 V2000
    1.1787   -8.0297    3.5154 C   0  0  0  0  0  0  0  0  0  0  0  0
    1.1048   -9.2215    3.2892 N   0  0  0  0  0  0  0  0  0  0  0  0
    1.0346   -9.7785    2.1176 C   0  0  0  0  0  0  0  0  0  0  0  0
    1.2597   -9.0826    1.0431 C   0  0  0  0  0  0  0  0  0  0  0  0
    1.5636   -9.8096   -0.2267 C   0  0  0  0  0  0  0  0  0  0  0  0
    1.4196   -7.1479    2.2840 C   0  0  0  0  0  0  0  0  0  0  0  0
    1.3794   -7.7587    1.0282 C   0  0  0  0  0  0  0  0  0  0  0  0
    2.0201   -9.1237   -1.1747 O   0  0  0  0  0  0  0  0  0  0  0  0
    0.9044  -10.8349   -0.4480 O   0  0  0  0  0  0  0  0  0  0  0  0
    1.4507   -5.6529    2.4427 F   0  0  0  0  0  0  0  0  0  0  0  0
    1.1039  -11.1756    2.1096 N   0  0  0  0  0  0  0  0  0  0  0  0
    1.2275  -11.9312    3.1909 C   0  0  0  0  0  0  0  0  0  0  0  0
    1.3506  -13.3646    3.1064 C   0  0  0  0  0  0  0  0  0  0  0  0
    0.2726  -14.0777    3.1799 C   0  0  0  0  0  0  0  0  0  0  0  0
    0.3745  -15.4932    2.9670 C   0  0  0  0  0  0  0  0  0  0  0  0
    1.6716  -16.1045    2.7548 C   0  0  0  0  0  0  0  0  0  0  0  0
    2.8068  -15.2066    2.7659 C   0  0  0  0  0  0  0  0  0  0  0  0
    2.6317  -13.8326    2.8320 C   0  0  0  0  0  0  0  0  0  0  0  0
    1.7940  -17.4509    2.5968 I   0  0  0  0  0  0  0  0  0  0  0  0
    1.6717  -11.5694    4.2337 O   0  0  0  0  0  0  0  0  0  0  0  0
  4  5  1  0
  5  8  2  0
  5  9  1  0
  6 10  1  0
  3 11  1  0
 11 12  1  0
 12 13  1  0
 16 19  1  0
 12 20  2  0
 13 14  2  0
 14 15  1  0
 15 16  2  0
 16 17  1  0
 17 18  2  0
 13 18  1  0
  1  2  2  0
  2  3  1  0
  3  4  2  0
  4  7  1  0
  6  7  2  0
  1  6  1  0
M  END

$$$$
No_1172-/export/home/yangzhenyu/potential_scad_32_flow//YTHDC2/2024-12-06-03-22-00/
     RDKit          3D

 19 20  0  0  1  0  0  0  0  0999 V2000
    1.1787   -8.0297    3.5154 C   0  0  0  0  0  0  0  0  0  0  0  0
    1.1048   -9.2215    3.2892 C   0  0  0  0  0  0  0  0  0  0  0  0
    1.3627  -10.1721    4.3044 I   0  0  0  0  0  0  0  0  0  0  0  0
    0.9283   -6.8899    2.5623 C   0  0  0  0  0  0  0  0  0  0  0  0
    0.6032   -7.3278    1.3253 C   0  0  0  0  0  0  0  0  0  0  0  0
    0.3772   -8.5791    1.0232 C   0  0  0  0  0  0  0  0  0  0  0  0
    0.6902   -9.5756    1.9076 C   0  0  0  0  0  0  0  0  0  0  0  0
    0.4374  -10.8493    1.5565 C   0  0  0  0  0  0  0  0  0  0  0  0
   -0.7217  -11.3431    1.3883 O   0  0  0  0  0  0  0  0  0  0  0  0
    1.5492  -11.6515    1.1857 N   0  0  0  0  0  0  0  0  0  0  0  0
    1.4003  -12.9941    0.7643 C   0  0  0  0  0  0  0  0  0  0  0  0
    0.8949  -13.8656    1.7776 C   0  0  2  0  0  0  0  0  0  0  0  0
    1.8572  -14.0271    2.8792 C   0  0  0  0  0  0  0  0  0  0  0  0
    1.2943  -15.1893    3.5986 C   0  0  0  0  0  0  0  0  0  0  0  0
    0.2555  -15.8942    3.3027 C   0  0  1  0  0  0  0  0  0  0  0  0
   -0.1806  -15.1212    1.8830 C   0  0  0  0  0  0  0  0  0  0  0  0
    1.1719   -5.5098    2.9153 Cl  0  0  0  0  0  0  0  0  0  0  0  0
   -0.3891  -16.8899    3.5654 C   0  0  0  0  0  0  0  0  0  0  0  0
   -1.5533  -17.2155    3.1861 C   0  0  0  0  0  0  0  0  0  0  0  0
  2  3  1  0
  7  8  1  0
  8  9  2  0
  8 10  1  0
 10 11  1  0
 12 11  1  6
 12 13  1  0
 13 14  2  0
 14 15  1  0
 12 16  1  0
 15 16  1  0
  4 17  1  0
 15 18  1  6
 18 19  2  0
  1  2  2  0
  2  7  1  0
  6  7  2  0
  5  6  1  0
  4  5  2  0
  1  4  1  0
M  END

$$$$
No_1173-/export/home/yangzhenyu/potential_scad_32_flow//YTHDC2/2024-12-06-03-22-00/
     RDKit          3D

 19 19  0  0  1  0  0  0  0  0999 V2000
    1.1787   -8.0297    3.5154 N   0  0  0  0  0  0  0  0  0  0  0  0
    1.0818   -9.0751    3.2053 C   0  0  0  0  0  0  0  0  0  0  0  0
    0.7576   -9.3725    1.9159 C   0  0  0  0  0  0  0  0  0  0  0  0
    0.8823   -8.4917    1.0547 C   0  0  0  0  0  0  0  0  0  0  0  0
    1.4631   -7.3107    1.2451 C   0  0  0  0  0  0  0  0  0  0  0  0
    1.6470   -6.9326    2.5669 C   0  0  0  0  0  0  0  0  0  0  0  0
    0.8237  -10.1305    4.2407 C   0  0  1  0  0  0  0  0  0  0  0  0
   -0.4178  -10.6899    4.4426 C   0  0  0  0  0  0  0  0  0  0  0  0
    1.9668  -10.7581    4.7665 C   0  0  0  0  0  0  0  0  0  0  0  0
    2.9678  -10.0996    5.4853 O   0  0  0  0  0  0  0  0  0  0  0  0
    2.2469  -11.9551    4.3367 O   0  0  0  0  0  0  0  0  0  0  0  0
    0.8682   -8.8715   -0.4207 C   0  0  0  0  0  0  0  0  0  0  0  0
    1.7759   -8.7836   -1.2271 O   0  0  0  0  0  0  0  0  0  0  0  0
   -0.3516   -9.1378   -0.8726 N   0  0  0  0  0  0  0  0  0  0  0  0
   -1.1096   -9.1699   -1.5894 C   0  0  0  0  0  0  0  0  0  0  0  0
   -1.5976   -8.1422   -2.2694 C   0  0  0  0  0  0  0  0  0  0  0  0
   -1.4805   -7.6927   -3.4226 C   0  0  0  0  0  0  0  0  0  0  0  0
   -1.6453   -6.3852   -4.0416 C   0  0  0  0  0  0  0  0  0  0  0  0
   -2.2217   -5.4919   -3.1820 C   0  0  0  0  0  0  0  0  0  0  0  0
  2  7  1  0
  7  8  1  6
  7  9  1  0
  9 10  1  0
  9 11  2  0
  4 12  1  0
 12 13  2  0
 12 14  1  0
 14 15  1  0
 15 16  1  0
 16 17  1  0
 17 18  2  3
 18 19  1  0
  1  2  2  0
  2  3  1  0
  3  4  2  0
  4  5  1  0
  5  6  2  0
  1  6  1  0
M  END

$$$$
No_1174-/export/home/yangzhenyu/potential_scad_32_flow//YTHDC2/2024-12-06-03-22-00/
     RDKit          3D

 18 20  0  0  0  0  0  0  0  0999 V2000
    1.1787   -8.0297    3.5154 C   0  0  0  0  0  0  0  0  0  0  0  0
    1.0491   -6.8434    2.9820 C   0  0  0  0  0  0  0  0  0  0  0  0
    0.9905   -9.0774    2.6527 C   0  0  0  0  0  0  0  0  0  0  0  0
    0.7897   -8.9519    1.3691 C   0  0  0  0  0  0  0  0  0  0  0  0
    0.7018   -7.7198    0.7892 C   0  0  0  0  0  0  0  0  0  0  0  0
    0.8918   -6.5957    1.6117 C   0  0  0  0  0  0  0  0  0  0  0  0
    1.0711  -10.4814    3.2282 C   0  0  0  0  0  0  0  0  0  0  0  0
   -0.1055  -11.1328    3.5223 C   0  0  0  0  0  0  0  0  0  0  0  0
   -0.7419  -11.5628    2.6150 C   0  0  0  0  0  0  0  0  0  0  0  0
   -2.1035  -12.0758    2.8938 C   0  0  0  0  0  0  0  0  0  0  0  0
   -2.6082  -13.1904    2.4908 C   0  0  0  0  0  0  0  0  0  0  0  0
   -1.9259  -13.9256    1.6046 C   0  0  0  0  0  0  0  0  0  0  0  0
   -0.6328  -13.4114    1.1108 C   0  0  0  0  0  0  0  0  0  0  0  0
   -0.0663  -12.3696    1.7334 C   0  0  0  0  0  0  0  0  0  0  0  0
    0.9048   -5.2903    1.1293 C   0  0  0  0  0  0  0  0  0  0  0  0
    2.1439  -11.2472    2.7363 C   0  0  0  0  0  0  0  0  0  0  0  0
    1.6135  -12.0859    1.5501 C   0  0  0  0  0  0  0  0  0  0  0  0
    1.5396   -4.3219    1.7531 O   0  0  0  0  0  0  0  0  0  0  0  0
  3  7  1  0
  6 15  1  0
 15 18  2  0
  1  2  2  0
  2  6  1  0
  5  6  2  0
  4  5  1  0
  3  4  2  0
  1  3  1  0
  7  8  2  0
  8  9  1  0
 14 17  1  0
 16 17  2  0
  7 16  1  0
  9 10  2  0
 10 11  1  0
 11 12  2  0
 12 13  1  0
 13 14  2  0
  9 14  1  0
M  END

$$$$
No_1175-/export/home/yangzhenyu/potential_scad_32_flow//YTHDC2/2024-12-06-03-22-00/
     RDKit          3D

 17 17  0  0  1  0  0  0  0  0999 V2000
    1.1787   -8.0297    3.5154 C   0  0  0  0  0  0  0  0  0  0  0  0
    1.1048   -9.2215    3.2892 C   0  0  0  0  0  0  0  0  0  0  0  0
    1.2339   -9.7611    2.0189 C   0  0  0  0  0  0  0  0  0  0  0  0
    1.3583   -9.0036    0.9764 C   0  0  0  0  0  0  0  0  0  0  0  0
    1.5996   -7.6362    1.1311 C   0  0  0  0  0  0  0  0  0  0  0  0
    1.4830   -7.0928    2.3626 C   0  0  0  0  0  0  0  0  0  0  0  0
    1.1008  -11.2372    1.8542 C   0  0  0  0  0  0  0  0  0  0  0  0
    0.5178  -11.9759    2.3445 C   0  0  0  0  0  0  0  0  0  0  0  0
    0.4575  -13.3705    2.1281 C   0  0  2  0  0  0  0  0  0  0  0  0
   -0.4455  -13.9844    1.5571 C   0  0  0  0  0  0  0  0  0  0  0  0
    1.5167  -14.2109    2.7556 C   0  0  0  0  0  0  0  0  0  0  0  0
    1.5780   -5.6523    2.6404 C   0  0  0  0  0  0  0  0  0  0  0  0
    1.4821  -15.5980    2.6243 C   0  0  0  0  0  0  0  0  0  0  0  0
    0.6419  -16.3477    3.4726 C   0  0  0  0  0  0  0  0  0  0  0  0
    0.6006  -17.7190    3.3026 C   0  0  0  0  0  0  0  0  0  0  0  0
    1.5576  -18.3253    2.4979 C   0  0  0  0  0  0  0  0  0  0  0  0
    2.4717  -17.5248    1.7724 C   0  0  0  0  0  0  0  0  0  0  0  0
  3  7  1  0
  7  8  2  3
  8  9  1  0
  9 10  1  1
  9 11  1  0
  6 12  1  0
 11 13  1  0
 13 14  1  0
 14 15  2  3
 15 16  1  0
 16 17  2  0
  1  2  2  0
  2  3  1  0
  3  4  2  0
  4  5  1  0
  5  6  2  0
  1  6  1  0
M  END

$$$$
No_1176-/export/home/yangzhenyu/potential_scad_32_flow//YTHDC2/2024-12-06-03-22-00/
     RDKit          3D

 17 17  0  0  0  0  0  0  0  0999 V2000
    1.1787   -8.0297    3.5154 C   0  0  0  0  0  0  0  0  0  0  0  0
    1.0491   -6.8434    2.9820 C   0  0  0  0  0  0  0  0  0  0  0  0
    0.9905   -9.0774    2.6527 C   0  0  0  0  0  0  0  0  0  0  0  0
    1.1655  -10.4663    3.1286 C   0  0  0  0  0  0  0  0  0  0  0  0
    1.2197  -11.4898    2.5831 C   0  0  0  0  0  0  0  0  0  0  0  0
    1.0589  -11.4458    1.1293 C   0  0  0  0  0  0  0  0  0  0  0  0
    0.9638  -10.3069    0.4651 C   0  0  0  0  0  0  0  0  0  0  0  0
    0.9191   -9.0789    1.1942 C   0  0  0  0  0  0  0  0  0  0  0  0
    0.9103   -7.8220    0.6974 Cl  0  0  0  0  0  0  0  0  0  0  0  0
    1.4511   -5.7466    3.6376 C   0  0  0  0  0  0  0  0  0  0  0  0
    1.3434  -12.8336    3.0739 C   0  0  0  0  0  0  0  0  0  0  0  0
    2.4562  -13.4718    3.0646 C   0  0  0  0  0  0  0  0  0  0  0  0
    2.3949  -14.7329    2.3310 C   0  0  0  0  0  0  0  0  0  0  0  0
    1.5019  -15.7042    2.8268 O   0  0  0  0  0  0  0  0  0  0  0  0
    1.0750   -4.4324    3.2842 O   0  0  0  0  0  0  0  0  0  0  0  0
    3.1117  -15.0696    1.4555 O   0  0  0  0  0  0  0  0  0  0  0  0
    0.3288   -4.1595    2.5740 C   0  0  0  0  0  0  0  0  0  0  0  0
  1  2  1  0
  8  9  1  0
  2 10  2  3
  5 11  1  0
 11 12  1  0
 12 13  1  0
 13 14  1  0
 10 15  1  0
 13 16  2  0
 15 17  1  0
  1  3  1  0
  3  4  2  0
  4  5  1  0
  5  6  2  0
  6  7  1  0
  7  8  2  0
  3  8  1  0
M  END

$$$$
No_1177-/export/home/yangzhenyu/potential_scad_32_flow//YTHDC2/2024-12-06-03-22-00/
     RDKit          3D

 17 18  0  0  1  0  0  0  0  0999 V2000
    1.1787   -8.0297    3.5154 N   0  0  0  0  0  0  0  0  0  0  0  0
    1.0818   -9.0751    3.2053 C   0  0  0  0  0  0  0  0  0  0  0  0
    1.5216  -10.1164    3.9747 C   0  0  0  0  0  0  0  0  0  0  0  0
    1.4420  -11.4363    3.6461 C   0  0  0  0  0  0  0  0  0  0  0  0
    0.5969  -11.7648    2.6785 C   0  0  0  0  0  0  0  0  0  0  0  0
    0.0096  -10.8332    1.9506 C   0  0  0  0  0  0  0  0  0  0  0  0
    0.3359   -9.5186    2.1388 C   0  0  0  0  0  0  0  0  0  0  0  0
    0.8819   -6.9011    2.6487 C   0  0  2  0  0  0  0  0  0  0  0  0
    0.4076   -7.2265    1.4607 N   0  0  0  0  0  0  0  0  0  0  0  0
    0.0633   -8.4448    1.1740 C   0  0  0  0  0  0  0  0  0  0  0  0
   -0.4997   -8.6880    0.0350 O   0  0  0  0  0  0  0  0  0  0  0  0
    1.2867   -5.5457    3.0370 C   0  0  0  0  0  0  0  0  0  0  0  0
    0.3181  -13.4381    2.3735 C   0  0  2  0  0  0  0  0  0  0  0  0
   -0.8509  -13.7534    2.1822 Cl  0  0  0  0  0  0  0  0  0  0  0  0
    1.1441  -14.2539    3.3903 C   0  0  0  0  0  0  0  0  0  0  0  0
    1.4586  -15.5174    2.8015 C   0  0  0  0  0  0  0  0  0  0  0  0
    0.8573  -16.5983    3.2082 O   0  0  0  0  0  0  0  0  0  0  0  0
  1  2  1  0
  8  9  1  0
  7 10  1  0
  9 10  1  0
 10 11  2  0
  8 12  1  6
  5 13  1  0
 13 14  1  1
 13 15  1  0
 15 16  1  0
 16 17  1  0
  1  8  1  0
  2  3  2  0
  3  4  1  0
  4  5  2  0
  5  6  1  0
  6  7  2  0
  2  7  1  0
M  END

$$$$
No_1178-/export/home/yangzhenyu/potential_scad_32_flow//YTHDC2/2024-12-06-03-22-00/
     RDKit          3D

 17 18  0  0  0  0  0  0  0  0999 V2000
    1.1787   -8.0297    3.5154 C   0  0  0  0  0  0  0  0  0  0  0  0
    1.0491   -6.8434    2.9820 C   0  0  0  0  0  0  0  0  0  0  0  0
    0.9905   -9.0774    2.6527 C   0  0  0  0  0  0  0  0  0  0  0  0
    0.7897   -8.9519    1.3691 C   0  0  0  0  0  0  0  0  0  0  0  0
    0.7018   -7.7198    0.7892 C   0  0  0  0  0  0  0  0  0  0  0  0
    0.8918   -6.5957    1.6117 C   0  0  0  0  0  0  0  0  0  0  0  0
    1.0711  -10.4814    3.2282 C   0  0  0  0  0  0  0  0  0  0  0  0
    1.1227  -11.5770    2.4616 C   0  0  0  0  0  0  0  0  0  0  0  0
    1.1500  -12.9052    3.0782 C   0  0  0  0  0  0  0  0  0  0  0  0
    0.6702  -13.9897    2.4998 C   0  0  0  0  0  0  0  0  0  0  0  0
    0.1753  -14.0336    1.3348 C   0  0  0  0  0  0  0  0  0  0  0  0
    0.1148  -12.7693    0.6341 C   0  0  0  0  0  0  0  0  0  0  0  0
    0.5660  -11.6229    1.1724 C   0  0  0  0  0  0  0  0  0  0  0  0
    0.8451   -5.2795    1.1559 Cl  0  0  0  0  0  0  0  0  0  0  0  0
    0.7446  -15.2509    3.2745 C   0  0  0  0  0  0  0  0  0  0  0  0
    1.7701  -16.2006    2.9669 C   0  0  0  0  0  0  0  0  0  0  0  0
    1.5887  -17.4660    3.5355 C   0  0  0  0  0  0  0  0  0  0  0  0
  3  7  1  0
  6 14  1  0
 10 15  1  0
 15 16  1  0
 16 17  2  0
  7  8  1  0
  1  2  2  0
  2  6  1  0
  5  6  2  0
  4  5  1  0
  3  4  2  0
  1  3  1  0
  8  9  2  0
  9 10  1  0
 10 11  2  0
 11 12  1  0
 12 13  2  0
  8 13  1  0
M  END

$$$$
No_1179-/export/home/yangzhenyu/potential_scad_32_flow//YTHDC2/2024-12-06-03-22-00/
     RDKit          3D

 19 20  0  0  1  0  0  0  0  0999 V2000
    1.1787   -8.0297    3.5154 N   0  0  0  0  0  0  0  0  0  0  0  0
    0.8669   -7.0905    2.8589 C   0  0  0  0  0  0  0  0  0  0  0  0
    1.0447   -7.3244    1.4123 C   0  0  0  0  0  0  0  0  0  0  0  0
    1.3746   -8.4389    1.0864 C   0  0  1  0  0  0  0  0  0  0  0  0
    1.8185   -8.7923   -0.3129 C   0  0  0  0  0  0  0  0  0  0  0  0
    1.7714   -9.1001    2.3120 C   0  0  2  0  0  0  0  0  0  0  0  0
    2.1345  -10.3511    2.5694 C   0  0  0  0  0  0  0  0  0  0  0  0
    2.6810   -8.5558   -0.8585 O   0  0  0  0  0  0  0  0  0  0  0  0
    0.7290   -9.4341   -0.9577 O   0  0  0  0  0  0  0  0  0  0  0  0
    2.0931  -11.2900    1.5127 O   0  0  0  0  0  0  0  0  0  0  0  0
    2.3355  -10.8100    3.7327 N   0  0  0  0  0  0  0  0  0  0  0  0
    2.6673  -12.0988    4.1288 C   0  0  0  0  0  0  0  0  0  0  0  0
    1.9329  -12.9088    3.1041 C   0  0  0  0  0  0  0  0  0  0  0  0
    0.5756  -13.0674    3.3184 C   0  0  0  0  0  0  0  0  0  0  0  0
   -0.0219  -14.1775    2.6694 C   0  0  0  0  0  0  0  0  0  0  0  0
    0.7520  -15.0612    1.9387 C   0  0  0  0  0  0  0  0  0  0  0  0
    2.1396  -14.9966    1.9034 C   0  0  0  0  0  0  0  0  0  0  0  0
    2.7807  -13.9159    2.5977 C   0  0  0  0  0  0  0  0  0  0  0  0
    0.2207  -16.1590    1.3440 O   0  0  0  0  0  0  0  0  0  0  0  0
  1  2  1  0
  2  3  2  0
  3  4  1  0
  4  5  1  6
  1  6  1  0
  4  6  1  0
  6  7  1  1
  5  8  2  0
  5  9  1  0
  7 10  2  0
  7 11  1  0
 11 12  1  0
 12 13  1  0
 16 19  1  0
 13 14  2  0
 14 15  1  0
 15 16  2  0
 16 17  1  0
 17 18  2  0
 13 18  1  0
M  END

$$$$
No_1180-/export/home/yangzhenyu/potential_scad_32_flow//YTHDC2/2024-12-06-03-22-00/
     RDKit          3D

 19 20  0  0  1  0  0  0  0  0999 V2000
    1.1787   -8.0297    3.5154 C   0  0  0  0  0  0  0  0  0  0  0  0
    1.0491   -6.8434    2.9820 N   0  0  0  0  0  0  0  0  0  0  0  0
    2.0155   -8.9614    2.9776 C   0  0  1  0  0  0  0  0  0  0  0  0
    1.9576  -10.2720    3.7353 C   0  0  0  0  0  0  0  0  0  0  0  0
    2.1525  -10.3592    4.9514 O   0  0  0  0  0  0  0  0  0  0  0  0
    1.6825  -11.3914    2.9759 N   0  0  0  0  0  0  0  0  0  0  0  0
    0.4728   -6.6008    1.7999 C   0  0  0  0  0  0  0  0  0  0  0  0
    0.4084   -7.5736    0.9373 C   0  0  0  0  0  0  0  0  0  0  0  0
    1.4637  -11.2071    1.5030 C   0  0  0  0  0  0  0  0  0  0  0  0
    1.9450  -10.1364    0.8140 C   0  0  0  0  0  0  0  0  0  0  0  0
    2.0036   -8.8453    1.7362 C   0  0  1  0  0  0  0  0  0  0  0  0
    1.2183   -8.5454    0.6115 C   0  0  2  0  0  0  0  0  0  0  0  0
    1.4066   -8.7494   -0.6567 C   0  0  0  0  0  0  0  0  0  0  0  0
    0.3688   -8.6895   -1.5604 O   0  0  0  0  0  0  0  0  0  0  0  0
    2.4376   -8.9631   -1.3563 O   0  0  0  0  0  0  0  0  0  0  0  0
   -0.2418   -5.2628    1.6052 C   0  0  0  0  0  0  0  0  0  0  0  0
    0.4758   -4.1834    1.4773 C   0  0  0  0  0  0  0  0  0  0  0  0
   -0.0078   -3.0665    0.9117 C   0  0  0  0  0  0  0  0  0  0  0  0
   -1.3533   -3.0311    0.6289 C   0  0  0  0  0  0  0  0  0  0  0  0
  1  2  1  0
  3  1  1  1
  3  4  1  0
  4  5  2  0
  4  6  1  0
  2  7  1  0
  7  8  2  0
  6  9  1  0
  3 11  1  0
 11 10  1  6
  8 12  1  0
 11 12  1  0
 12 13  1  6
 13 14  2  0
 13 15  1  0
  7 16  1  0
 16 17  1  0
 17 18  2  3
 18 19  1  0
  9 10  1  0
M  END

$$$$
No_1181-/export/home/yangzhenyu/potential_scad_32_flow//YTHDC2/2024-12-06-03-22-00/
     RDKit          3D

 19 20  0  0  1  0  0  0  0  0999 V2000
    1.1787   -8.0297    3.5154 C   0  0  0  0  0  0  0  0  0  0  0  0
    1.1048   -9.2215    3.2892 C   0  0  0  0  0  0  0  0  0  0  0  0
    1.2339   -9.7611    2.0189 C   0  0  0  0  0  0  0  0  0  0  0  0
    1.1954  -11.2312    1.8661 C   0  0  0  0  0  0  0  0  0  0  0  0
    1.5546  -12.1691    2.7931 C   0  0  0  0  0  0  0  0  0  0  0  0
    0.5849   -7.0929    2.5729 C   0  0  0  0  0  0  0  0  0  0  0  0
    0.5567   -7.6699    1.1955 C   0  0  0  0  0  0  0  0  0  0  0  0
    0.7903   -8.9699    0.9209 C   0  0  0  0  0  0  0  0  0  0  0  0
    1.5479  -13.4950    2.3569 C   0  0  0  0  0  0  0  0  0  0  0  0
    1.2456  -13.9001    1.1648 C   0  0  0  0  0  0  0  0  0  0  0  0
    1.0233  -13.0589    0.1983 C   0  0  0  0  0  0  0  0  0  0  0  0
    0.9548  -11.6626    0.4956 C   0  0  0  0  0  0  0  0  0  0  0  0
    0.6143   -5.6362    2.6298 C   0  0  2  0  0  0  0  0  0  0  0  0
    1.6933   -4.9952    3.1612 C   0  0  0  0  0  0  0  0  0  0  0  0
    2.0163  -14.5411    3.5809 C   0  0  0  0  0  0  0  0  0  0  0  0
    1.4555   -3.5521    3.2707 C   0  0  0  0  0  0  0  0  0  0  0  0
   -0.5761   -5.0404    2.2407 C   0  0  0  0  0  0  0  0  0  0  0  0
   -1.7351   -5.7593    2.0516 C   0  0  0  0  0  0  0  0  0  0  0  0
    0.2812   -2.9922    2.8776 C   0  0  0  0  0  0  0  0  0  0  0  0
  3  4  1  0
  6 13  1  0
 13 14  1  0
  9 15  1  0
 14 16  2  3
 13 17  1  1
 17 18  1  0
 16 19  1  0
  1  2  2  0
  2  3  1  0
  3  8  2  0
  7  8  1  0
  6  7  2  0
  1  6  1  0
  4  5  2  0
  5  9  1  0
  9 10  2  0
 10 11  1  0
 11 12  2  0
  4 12  1  0
M  END

$$$$
No_1182-/export/home/yangzhenyu/potential_scad_32_flow//YTHDC2/2024-12-06-03-22-00/
     RDKit          3D

 19 19  0  0  0  0  0  0  0  0999 V2000
    1.1787   -8.0297    3.5154 O   0  0  0  0  0  0  0  0  0  0  0  0
    0.9969   -8.9689    3.0048 C   0  0  0  0  0  0  0  0  0  0  0  0
    1.3055  -10.1056    3.6616 C   0  0  0  0  0  0  0  0  0  0  0  0
    1.1249  -11.3503    3.0941 C   0  0  0  0  0  0  0  0  0  0  0  0
    1.4907  -12.5554    3.7266 C   0  0  0  0  0  0  0  0  0  0  0  0
    0.6645   -9.1182    1.7007 C   0  0  0  0  0  0  0  0  0  0  0  0
    0.5373  -10.2813    1.0793 C   0  0  0  0  0  0  0  0  0  0  0  0
    0.7999  -11.4155    1.6986 C   0  0  0  0  0  0  0  0  0  0  0  0
    0.6926  -12.6280    1.0130 C   0  0  0  0  0  0  0  0  0  0  0  0
   -0.3980  -13.0605    0.4597 C   0  0  0  0  0  0  0  0  0  0  0  0
   -0.5384  -14.2883   -0.1650 C   0  0  0  0  0  0  0  0  0  0  0  0
    0.5279   -7.7191    0.8969 C   0  0  0  0  0  0  0  0  0  0  0  0
   -0.3779   -7.7601    0.0618 C   0  0  0  0  0  0  0  0  0  0  0  0
   -0.3319   -8.2884   -1.1957 C   0  0  0  0  0  0  0  0  0  0  0  0
    0.8463   -8.6650   -1.7055 N   0  0  0  0  0  0  0  0  0  0  0  0
   -1.4582   -8.7872   -1.7204 O   0  0  0  0  0  0  0  0  0  0  0  0
   -1.2087  -14.5045   -1.2512 C   0  0  0  0  0  0  0  0  0  0  0  0
   -1.7318  -13.7623   -1.8958 C   0  0  0  0  0  0  0  0  0  0  0  0
   -1.7228  -12.2700   -1.4836 C   0  0  0  0  0  0  0  0  0  0  0  0
  1  2  1  0
  4  5  1  0
  8  9  1  0
  9 10  2  3
 10 11  1  0
  6 12  1  0
 12 13  1  0
 13 14  1  0
 14 15  1  0
 14 16  2  0
 11 17  2  3
 17 18  1  0
 18 19  2  0
  2  3  2  0
  3  4  1  0
  4  8  2  0
  7  8  1  0
  6  7  2  0
  2  6  1  0
M  END

$$$$
No_1183-/export/home/yangzhenyu/potential_scad_32_flow//YTHDC2/2024-12-06-03-22-00/
     RDKit          3D

 18 19  0  0  1  0  0  0  0  0999 V2000
    1.1787   -8.0297    3.5154 C   0  0  0  0  0  0  0  0  0  0  0  0
    1.1048   -9.2215    3.2892 C   0  0  0  0  0  0  0  0  0  0  0  0
    1.0239   -9.7790    2.0239 C   0  0  1  0  0  0  0  0  0  0  0  0
    1.2490   -9.1017    1.1040 C   0  0  0  0  0  0  0  0  0  0  0  0
    1.5689   -7.7608    1.1010 C   0  0  0  0  0  0  0  0  0  0  0  0
    1.5562   -7.1368    2.3144 C   0  0  1  0  0  0  0  0  0  0  0  0
    1.5695   -5.7542    2.5127 C   0  0  0  0  0  0  0  0  0  0  0  0
    0.9333  -11.2412    1.9824 C   0  0  1  0  0  0  0  0  0  0  0  0
   -0.1591  -11.6410    1.2030 C   0  0  0  0  0  0  0  0  0  0  0  0
   -1.2466  -10.9566    1.0574 C   0  0  0  0  0  0  0  0  0  0  0  0
   -2.2653  -11.4069    0.2178 C   0  0  0  0  0  0  0  0  0  0  0  0
   -3.3101  -10.5652   -0.0567 C   0  0  0  0  0  0  0  0  0  0  0  0
   -3.3357   -9.3043    0.5451 C   0  0  0  0  0  0  0  0  0  0  0  0
   -2.3380   -8.8035    1.3198 C   0  0  0  0  0  0  0  0  0  0  0  0
   -1.2376   -9.5684    1.5861 C   0  0  0  0  0  0  0  0  0  0  0  0
    1.8126   -6.9715    0.1202 O   0  0  0  0  0  0  0  0  0  0  0  0
    1.9187  -12.0768    2.3563 C   0  0  0  0  0  0  0  0  0  0  0  0
    2.0465  -12.3265    3.6910 C   0  0  0  0  0  0  0  0  0  0  0  0
  3  2  1  1
  4  5  1  0
  1  6  1  0
  5  6  1  0
  6  7  1  6
  3  8  1  0
  8  9  1  6
  5 16  2  0
  8 17  1  0
 17 18  1  0
  9 10  1  0
  3  4  1  0
  1  2  1  0
 10 11  2  0
 11 12  1  0
 12 13  2  0
 13 14  1  0
 14 15  2  0
 10 15  1  0
M  END

$$$$
No_1184-/export/home/yangzhenyu/potential_scad_32_flow//YTHDC2/2024-12-06-03-22-00/
     RDKit          3D

 17 17  0  0  0  0  0  0  0  0999 V2000
    1.1787   -8.0297    3.5154 C   0  0  0  0  0  0  0  0  0  0  0  0
    1.0491   -6.8434    2.9820 C   0  0  0  0  0  0  0  0  0  0  0  0
    1.9985   -8.9840    2.8958 C   0  0  0  0  0  0  0  0  0  0  0  0
    1.9135  -10.3404    3.6266 C   0  0  0  0  0  0  0  0  0  0  0  0
    1.3291  -11.3908    3.0222 C   0  0  0  0  0  0  0  0  0  0  0  0
    1.2749  -12.5326    3.7562 C   0  0  0  0  0  0  0  0  0  0  0  0
    1.8025   -5.7637    3.3237 C   0  0  0  0  0  0  0  0  0  0  0  0
    0.6991  -13.6717    3.1451 C   0  0  0  0  0  0  0  0  0  0  0  0
    0.4281  -13.6449    1.8407 C   0  0  0  0  0  0  0  0  0  0  0  0
    0.6918  -12.5891    1.0577 C   0  0  0  0  0  0  0  0  0  0  0  0
    1.1654  -11.4578    1.6134 C   0  0  0  0  0  0  0  0  0  0  0  0
    1.3811  -10.4061    0.7517 C   0  0  0  0  0  0  0  0  0  0  0  0
    2.5789   -9.9963    0.2796 O   0  0  0  0  0  0  0  0  0  0  0  0
    0.2553   -9.7859    0.2576 N   0  0  0  0  0  0  0  0  0  0  0  0
    0.2997   -8.7233   -0.7513 C   0  0  0  0  0  0  0  0  0  0  0  0
    1.4854   -4.5640    2.6718 C   0  0  0  0  0  0  0  0  0  0  0  0
   -0.9483   -8.7279   -1.3867 C   0  0  0  0  0  0  0  0  0  0  0  0
  1  2  1  0
  1  3  1  0
  3  4  1  0
  4  5  1  0
  2  7  1  0
 11 12  1  0
 12 13  2  0
 12 14  1  0
 14 15  1  0
  7 16  1  0
 15 17  1  0
  5  6  2  0
  6  8  1  0
  8  9  2  0
  9 10  1  0
 10 11  2  0
  5 11  1  0
M  END

$$$$
No_1185-/export/home/yangzhenyu/potential_scad_32_flow//YTHDC2/2024-12-06-03-22-00/
     RDKit          3D

 20 22  0  0  1  0  0  0  0  0999 V2000
    1.1787   -8.0297    3.5154 C   0  0  0  0  0  0  0  0  0  0  0  0
    1.0491   -6.8434    2.9820 C   0  0  0  0  0  0  0  0  0  0  0  0
    0.0950   -8.8404    3.2292 C   0  0  0  0  0  0  0  0  0  0  0  0
   -0.9173   -8.4596    2.5152 C   0  0  0  0  0  0  0  0  0  0  0  0
   -1.0331   -7.2162    2.0653 C   0  0  0  0  0  0  0  0  0  0  0  0
    0.1897   -6.3124    2.3579 C   0  0  0  0  0  0  0  0  0  0  0  0
    0.1723   -4.9828    1.8746 C   0  0  0  0  0  0  0  0  0  0  0  0
   -0.5495   -4.1730    2.0628 N   0  0  0  0  0  0  0  0  0  0  0  0
    0.1766  -10.4623    3.7913 C   0  0  2  0  0  0  0  0  0  0  0  0
   -0.9910  -11.1361    3.5402 C   0  0  0  0  0  0  0  0  0  0  0  0
    1.2293  -10.8052    4.5928 C   0  0  0  0  0  0  0  0  0  0  0  0
    1.3762  -12.1775    4.6254 C   0  0  0  0  0  0  0  0  0  0  0  0
   -0.8440  -12.4801    3.7417 C   0  0  0  0  0  0  0  0  0  0  0  0
    0.4503  -12.9969    4.2100 C   0  0  0  0  0  0  0  0  0  0  0  0
    0.4857  -14.3739    4.4233 O   0  0  0  0  0  0  0  0  0  0  0  0
   -0.4595   -2.9827    2.5897 C   0  0  0  0  0  0  0  0  0  0  0  0
    0.7423   -2.5315    2.4012 C   0  0  0  0  0  0  0  0  0  0  0  0
    1.7744   -3.2342    1.9696 C   0  0  0  0  0  0  0  0  0  0  0  0
    1.5634   -4.5424    1.6842 C   0  0  0  0  0  0  0  0  0  0  0  0
   -1.7662  -13.3883    3.3497 O   0  0  0  0  0  0  0  0  0  0  0  0
  6  7  1  0
  9  3  1  1
  9 11  1  0
 10 13  1  0
 12 14  1  0
 13 14  1  0
 14 15  2  0
 13 20  2  0
  9 10  1  0
 11 12  1  0
  7  8  2  0
  8 16  1  0
 16 17  2  0
 17 18  1  0
 18 19  2  0
  7 19  1  0
  1  2  2  0
  2  6  1  0
  5  6  2  0
  4  5  1  0
  3  4  2  0
  1  3  1  0
M  END

$$$$
No_1186-/export/home/yangzhenyu/potential_scad_32_flow//YTHDC2/2024-12-06-03-22-00/
     RDKit          3D

 19 19  0  0  0  0  0  0  0  0999 V2000
    1.1787   -8.0297    3.5154 C   0  0  0  0  0  0  0  0  0  0  0  0
    1.1048   -9.2215    3.2892 C   0  0  0  0  0  0  0  0  0  0  0  0
    1.0239   -9.7790    2.0239 C   0  0  0  0  0  0  0  0  0  0  0  0
    1.1393   -9.0211    0.9686 C   0  0  0  0  0  0  0  0  0  0  0  0
    1.3160   -9.6264   -0.3268 C   0  0  0  0  0  0  0  0  0  0  0  0
    1.3620   -7.1064    2.3319 C   0  0  0  0  0  0  0  0  0  0  0  0
    1.2578   -7.6370    1.0089 C   0  0  0  0  0  0  0  0  0  0  0  0
    2.1461   -9.4998   -1.0819 Cl  0  0  0  0  0  0  0  0  0  0  0  0
    1.3055   -5.6494    2.5035 C   0  0  0  0  0  0  0  0  0  0  0  0
    0.1416  -10.4140   -0.6274 O   0  0  0  0  0  0  0  0  0  0  0  0
    1.0634   -4.9170    1.5214 O   0  0  0  0  0  0  0  0  0  0  0  0
    1.7452   -5.1145    3.6660 O   0  0  0  0  0  0  0  0  0  0  0  0
    1.0864  -10.2838    4.6122 Cl  0  0  0  0  0  0  0  0  0  0  0  0
    0.9745  -11.3831    1.9145 C   0  0  0  0  0  0  0  0  0  0  0  0
    1.9748  -12.1772    2.0995 C   0  0  0  0  0  0  0  0  0  0  0  0
    1.9983  -13.4646    1.8405 C   0  0  0  0  0  0  0  0  0  0  0  0
    1.9905  -14.3003    2.8689 C   0  0  0  0  0  0  0  0  0  0  0  0
    1.2273  -15.5038    2.7601 C   0  0  0  0  0  0  0  0  0  0  0  0
    1.8135  -16.6880    2.6345 C   0  0  0  0  0  0  0  0  0  0  0  0
  4  5  1  0
  5  8  1  0
  6  9  1  0
  5 10  2  0
  9 11  2  0
  9 12  1  0
  2 13  1  0
  3 14  1  0
 14 15  2  3
 15 16  1  0
 16 17  1  0
 17 18  1  0
 18 19  1  0
  1  2  2  0
  2  3  1  0
  3  4  2  0
  4  7  1  0
  6  7  2  0
  1  6  1  0
M  END

$$$$
No_1187-/export/home/yangzhenyu/potential_scad_32_flow//YTHDC2/2024-12-06-03-22-00/
     RDKit          3D

 18 18  0  0  0  0  0  0  0  0999 V2000
    1.1787   -8.0297    3.5154 C   0  0  0  0  0  0  0  0  0  0  0  0
    1.0491   -6.8434    2.9820 C   0  0  0  0  0  0  0  0  0  0  0  0
    0.0950   -8.8404    3.2292 C   0  0  0  0  0  0  0  0  0  0  0  0
   -0.9173   -8.4596    2.5152 C   0  0  0  0  0  0  0  0  0  0  0  0
   -1.0331   -7.2162    2.0653 C   0  0  0  0  0  0  0  0  0  0  0  0
   -0.0105   -6.3168    2.3081 C   0  0  0  0  0  0  0  0  0  0  0  0
    0.1150   -4.9910    1.8495 C   0  0  0  0  0  0  0  0  0  0  0  0
    0.9121   -4.1017    2.4010 Cl  0  0  0  0  0  0  0  0  0  0  0  0
    0.1653  -10.4537    3.7443 S   0  0  0  0  0  0  0  0  0  0  0  0
    1.3496  -10.8903    4.3960 N   0  0  0  0  0  0  0  0  0  0  0  0
   -0.8973  -11.0645    3.8698 O   0  0  0  0  0  0  0  0  0  0  0  0
    0.5712  -11.1546    2.3109 O   0  0  0  0  0  0  0  0  0  0  0  0
    2.5545  -11.5638    3.9837 C   0  0  0  0  0  0  0  0  0  0  0  0
   -0.6067   -4.5548    0.8138 O   0  0  0  0  0  0  0  0  0  0  0  0
    3.7199  -10.8026    4.4588 C   0  0  0  0  0  0  0  0  0  0  0  0
    3.8976  -10.9931    5.9467 O   0  0  0  0  0  0  0  0  0  0  0  0
   -2.2152   -6.8046    1.3802 C   0  0  0  0  0  0  0  0  0  0  0  0
   -2.4281   -7.1172   -0.0069 C   0  0  0  0  0  0  0  0  0  0  0  0
  6  7  1  0
  7  8  1  0
  3  9  1  0
  9 10  1  0
  9 11  2  0
  9 12  2  0
 10 13  1  0
  7 14  2  0
 13 15  1  0
 15 16  1  0
  5 17  1  0
 17 18  1  0
  1  2  2  0
  2  6  1  0
  5  6  2  0
  4  5  1  0
  3  4  2  0
  1  3  1  0
M  END

$$$$
No_1188-/export/home/yangzhenyu/potential_scad_32_flow//YTHDC2/2024-12-06-03-22-00/
     RDKit          3D

 18 19  0  0  0  0  0  0  0  0999 V2000
    1.1787   -8.0297    3.5154 C   0  0  0  0  0  0  0  0  0  0  0  0
    1.1048   -9.2215    3.2892 C   0  0  0  0  0  0  0  0  0  0  0  0
    1.2339   -9.7611    2.0189 C   0  0  0  0  0  0  0  0  0  0  0  0
    1.3583   -9.0036    0.9764 C   0  0  0  0  0  0  0  0  0  0  0  0
    1.5996   -7.6362    1.1311 C   0  0  0  0  0  0  0  0  0  0  0  0
    1.4830   -7.0928    2.3626 C   0  0  0  0  0  0  0  0  0  0  0  0
    1.4898   -5.7274    2.6199 C   0  0  0  0  0  0  0  0  0  0  0  0
    1.1681  -11.2222    1.8390 C   0  0  0  0  0  0  0  0  0  0  0  0
    0.7145  -11.5870    0.5424 C   0  0  0  0  0  0  0  0  0  0  0  0
   -0.5241  -12.2512    0.6171 C   0  0  0  0  0  0  0  0  0  0  0  0
   -0.5383  -13.4429    1.3130 C   0  0  0  0  0  0  0  0  0  0  0  0
   -1.7960  -13.9426    1.6631 C   0  0  0  0  0  0  0  0  0  0  0  0
   -2.9320  -13.3829    1.2011 C   0  0  0  0  0  0  0  0  0  0  0  0
   -2.8783  -12.2269    0.4078 C   0  0  0  0  0  0  0  0  0  0  0  0
   -1.6229  -11.6766    0.0589 C   0  0  0  0  0  0  0  0  0  0  0  0
   -1.4988  -10.6020   -0.8269 C   0  0  0  0  0  0  0  0  0  0  0  0
   -1.3569  -10.7730   -2.1676 C   0  0  0  0  0  0  0  0  0  0  0  0
   -1.3905   -9.6324   -3.0446 C   0  0  0  0  0  0  0  0  0  0  0  0
  6  7  1  0
  3  8  1  0
  8  9  1  0
  9 10  1  0
 15 16  1  0
 16 17  2  3
 17 18  1  0
  1  2  2  0
  2  3  1  0
  3  4  2  0
  4  5  1  0
  5  6  2  0
  1  6  1  0
 10 11  2  0
 11 12  1  0
 12 13  2  0
 13 14  1  0
 14 15  2  0
 10 15  1  0
M  END

$$$$
No_1189-/export/home/yangzhenyu/potential_scad_32_flow//YTHDC2/2024-12-06-03-22-00/
     RDKit          3D

 18 19  0  0  0  0  0  0  0  0999 V2000
    1.1787   -8.0297    3.5154 C   0  0  0  0  0  0  0  0  0  0  0  0
    1.1048   -9.2215    3.2892 C   0  0  0  0  0  0  0  0  0  0  0  0
    1.2339   -9.7611    2.0189 C   0  0  0  0  0  0  0  0  0  0  0  0
    1.3583   -9.0036    0.9764 C   0  0  0  0  0  0  0  0  0  0  0  0
    1.5996   -7.6362    1.1311 C   0  0  0  0  0  0  0  0  0  0  0  0
    1.4830   -7.0928    2.3626 C   0  0  0  0  0  0  0  0  0  0  0  0
    1.4898   -5.7274    2.6199 C   0  0  0  0  0  0  0  0  0  0  0  0
    1.1681  -11.2222    1.8390 C   0  0  0  0  0  0  0  0  0  0  0  0
    0.7145  -11.5870    0.5424 C   0  0  0  0  0  0  0  0  0  0  0  0
    0.5927  -13.0110    0.4509 C   0  0  0  0  0  0  0  0  0  0  0  0
    0.9525  -13.8879    1.4418 C   0  0  0  0  0  0  0  0  0  0  0  0
    1.4790  -13.3992    2.6566 C   0  0  0  0  0  0  0  0  0  0  0  0
    1.5748  -12.0402    2.8872 C   0  0  0  0  0  0  0  0  0  0  0  0
    0.6675   -4.9867    2.7319 C   0  0  0  0  0  0  0  0  0  0  0  0
    0.7305   -3.5060    3.0377 C   0  0  0  0  0  0  0  0  0  0  0  0
    2.1187  -11.5484    3.9807 O   0  0  0  0  0  0  0  0  0  0  0  0
   -0.7887   -5.3589    2.3451 C   0  0  0  0  0  0  0  0  0  0  0  0
   -1.2558   -5.5171    1.1992 O   0  0  0  0  0  0  0  0  0  0  0  0
  6  7  1  0
  3  8  1  0
  8  9  1  0
 10 11  1  0
  8 13  1  0
 12 13  1  0
  7 14  2  3
 14 15  1  0
 13 16  2  0
 14 17  1  0
 17 18  2  0
  9 10  1  0
 11 12  1  0
  1  2  2  0
  2  3  1  0
  3  4  2  0
  4  5  1  0
  5  6  2  0
  1  6  1  0
M  END

$$$$
No_1190-/export/home/yangzhenyu/potential_scad_32_flow//YTHDC2/2024-12-06-03-22-00/
     RDKit          3D

 20 20  0  0  1  0  0  0  0  0999 V2000
    1.1787   -8.0297    3.5154 C   0  0  0  0  0  0  0  0  0  0  0  0
    1.0491   -6.8434    2.9820 C   0  0  1  0  0  0  0  0  0  0  0  0
    0.9905   -9.0774    2.6527 C   0  0  0  0  0  0  0  0  0  0  0  0
    0.7897   -8.9519    1.3691 C   0  0  1  0  0  0  0  0  0  0  0  0
    0.7018   -7.7198    0.7892 C   0  0  0  0  0  0  0  0  0  0  0  0
    1.4312   -5.5794    3.7443 O   0  0  0  0  0  0  0  0  0  0  0  0
    0.9501   -6.6506    1.5469 C   0  0  0  0  0  0  0  0  0  0  0  0
    1.0481  -10.6582    3.3647 C   0  0  0  0  0  0  0  0  0  0  0  0
   -0.1073  -11.2222    3.4503 O   0  0  0  0  0  0  0  0  0  0  0  0
    2.1884  -11.0908    3.7190 N   0  0  0  0  0  0  0  0  0  0  0  0
    0.8804   -5.3409    1.1155 O   0  0  0  0  0  0  0  0  0  0  0  0
    0.7041  -10.2356    0.3170 C   0  0  0  0  0  0  0  0  0  0  0  0
    1.7767  -10.8079    0.1024 O   0  0  0  0  0  0  0  0  0  0  0  0
   -0.4927  -10.6610    0.0554 N   0  0  0  0  0  0  0  0  0  0  0  0
   -0.7625  -11.7615   -0.6210 C   0  0  0  0  0  0  0  0  0  0  0  0
   -2.0741  -12.2215   -0.4981 C   0  0  0  0  0  0  0  0  0  0  0  0
   -2.3945  -12.9689   -1.2689 C   0  0  0  0  0  0  0  0  0  0  0  0
   -3.7524  -13.4638   -1.2066 C   0  0  0  0  0  0  0  0  0  0  0  0
   -4.4103  -12.9495   -0.1157 C   0  0  0  0  0  0  0  0  0  0  0  0
   -4.0586  -12.1847    0.8234 C   0  0  0  0  0  0  0  0  0  0  0  0
  1  2  1  0
  3  4  1  0
  2  6  1  6
  2  7  1  0
  5  7  1  0
  3  8  1  0
  8  9  2  0
  8 10  1  0
  7 11  2  0
  4 12  1  6
 12 13  2  0
 12 14  1  0
 14 15  1  0
 15 16  1  0
 16 17  2  3
 17 18  1  0
 18 19  2  3
 19 20  1  0
  1  3  1  0
  4  5  1  0
M  END

$$$$
No_1191-/export/home/yangzhenyu/potential_scad_32_flow//YTHDC2/2024-12-06-03-22-00/
     RDKit          3D

 16 17  0  0  0  0  0  0  0  0999 V2000
    1.1787   -8.0297    3.5154 C   0  0  0  0  0  0  0  0  0  0  0  0
    1.1048   -9.2215    3.2892 C   0  0  0  0  0  0  0  0  0  0  0  0
    1.3627  -10.1721    4.3044 C   0  0  0  0  0  0  0  0  0  0  0  0
    1.0682  -11.5187    4.0618 C   0  0  0  0  0  0  0  0  0  0  0  0
    0.6332  -11.9655    2.9682 C   0  0  0  0  0  0  0  0  0  0  0  0
    0.4776  -11.1308    1.9203 C   0  0  0  0  0  0  0  0  0  0  0  0
    0.7470   -9.8274    2.0368 C   0  0  0  0  0  0  0  0  0  0  0  0
    1.0387   -7.0301    2.5175 N   0  0  0  0  0  0  0  0  0  0  0  0
    1.1978   -5.6481    2.8506 C   0  0  0  0  0  0  0  0  0  0  0  0
    0.4216  -13.5544    2.7964 C   0  0  0  0  0  0  0  0  0  0  0  0
   -0.6628  -13.9843    2.3577 C   0  0  0  0  0  0  0  0  0  0  0  0
    1.5327  -14.3656    3.2161 C   0  0  0  0  0  0  0  0  0  0  0  0
   -0.8088  -15.2970    2.1955 C   0  0  0  0  0  0  0  0  0  0  0  0
    0.2855  -16.0017    2.6951 C   0  0  0  0  0  0  0  0  0  0  0  0
    0.0302  -17.5378    2.6294 C   0  0  0  0  0  0  0  0  0  0  0  0
    1.4444  -15.5678    3.2091 C   0  0  0  0  0  0  0  0  0  0  0  0
  1  2  1  0
  1  8  2  3
  8  9  1  0
  5 10  1  0
 14 15  1  0
  2  3  2  0
  3  4  1  0
  4  5  2  0
  5  6  1  0
  6  7  2  0
  2  7  1  0
 10 11  2  0
 11 13  1  0
 13 14  2  0
 14 16  1  0
 12 16  2  0
 10 12  1  0
M  END

$$$$
No_1192-/export/home/yangzhenyu/potential_scad_32_flow//YTHDC2/2024-12-06-03-22-00/
     RDKit          3D

 19 19  0  0  1  0  0  0  0  0999 V2000
    1.1787   -8.0297    3.5154 C   0  0  0  0  0  0  0  0  0  0  0  0
    1.1048   -9.2215    3.2892 C   0  0  0  0  0  0  0  0  0  0  0  0
    1.3627  -10.1721    4.3044 C   0  0  0  0  0  0  0  0  0  0  0  0
    2.3720  -10.8948    4.2468 C   0  0  0  0  0  0  0  0  0  0  0  0
    0.8234   -7.0464    2.5717 C   0  0  0  0  0  0  0  0  0  0  0  0
    0.4328   -7.4736    1.3042 C   0  0  0  0  0  0  0  0  0  0  0  0
    0.3532   -8.7488    0.9919 C   0  0  0  0  0  0  0  0  0  0  0  0
    0.7039   -9.7094    1.9672 C   0  0  0  0  0  0  0  0  0  0  0  0
    0.6986  -10.9809    1.7122 C   0  0  0  0  0  0  0  0  0  0  0  0
    1.7333  -11.5997    0.9727 O   0  0  0  0  0  0  0  0  0  0  0  0
   -0.4564  -11.6922    1.3972 N   0  0  0  0  0  0  0  0  0  0  0  0
   -1.7019  -11.2112    1.6381 C   0  0  0  0  0  0  0  0  0  0  0  0
   -2.1137  -11.6641    3.0074 C   0  0  1  0  0  0  0  0  0  0  0  0
   -1.9604  -12.7222    3.4392 C   0  0  0  0  0  0  0  0  0  0  0  0
    1.0127   -5.5876    2.8208 Cl  0  0  0  0  0  0  0  0  0  0  0  0
   -2.6484  -10.5189    3.8392 C   0  0  0  0  0  0  0  0  0  0  0  0
   -1.8407   -9.6508    4.4681 C   0  0  0  0  0  0  0  0  0  0  0  0
   -2.1187   -8.3525    4.5991 C   0  0  0  0  0  0  0  0  0  0  0  0
   -3.3078   -7.9234    4.4006 C   0  0  0  0  0  0  0  0  0  0  0  0
  2  3  1  0
  3  4  1  0
  8  9  1  0
  9 10  2  0
  9 11  1  0
 11 12  1  0
 12 13  1  0
 13 14  1  1
  5 15  1  0
 13 16  1  0
 16 17  1  0
 17 18  2  3
 18 19  1  0
  1  2  2  0
  2  8  1  0
  7  8  2  0
  6  7  1  0
  5  6  2  0
  1  5  1  0
M  END

$$$$
No_1193-/export/home/yangzhenyu/potential_scad_32_flow//YTHDC2/2024-12-06-03-22-00/
     RDKit          3D

 19 19  0  0  1  0  0  0  0  0999 V2000
    1.1787   -8.0297    3.5154 C   0  0  0  0  0  0  0  0  0  0  0  0
    1.1048   -9.2215    3.2892 C   0  0  0  0  0  0  0  0  0  0  0  0
    1.3627  -10.1721    4.3044 C   0  0  0  0  0  0  0  0  0  0  0  0
    1.0682  -11.5187    4.0618 C   0  0  0  0  0  0  0  0  0  0  0  0
    0.6332  -11.9655    2.9682 C   0  0  0  0  0  0  0  0  0  0  0  0
    0.4776  -11.1308    1.9203 C   0  0  0  0  0  0  0  0  0  0  0  0
    0.7470   -9.8274    2.0368 C   0  0  0  0  0  0  0  0  0  0  0  0
    1.8805   -7.1616    3.5539 C   0  0  0  0  0  0  0  0  0  0  0  0
    0.3661  -13.4265    2.7867 C   0  0  0  0  0  0  0  0  0  0  0  0
    0.9243  -14.0434    1.7809 C   0  0  1  0  0  0  0  0  0  0  0  0
    2.2972  -13.7700    1.3961 C   0  0  0  0  0  0  0  0  0  0  0  0
    0.9292   -9.0365    0.9199 C   0  0  0  0  0  0  0  0  0  0  0  0
    1.0236   -9.3880   -0.2306 O   0  0  0  0  0  0  0  0  0  0  0  0
    0.3593   -7.8153    0.7743 O   0  0  0  0  0  0  0  0  0  0  0  0
    0.9984  -15.5662    2.0012 C   0  0  0  0  0  0  0  0  0  0  0  0
    1.3826  -16.2081    2.7122 O   0  0  0  0  0  0  0  0  0  0  0  0
    0.0728  -16.1936    1.0908 O   0  0  0  0  0  0  0  0  0  0  0  0
    1.4434   -5.6845    3.6915 N   0  0  0  0  0  0  0  0  0  0  0  0
    0.7314   -5.0304    2.9416 O   0  0  0  0  0  0  0  0  0  0  0  0
  1  2  1  0
  1  8  2  3
  5  9  1  0
  9 10  1  0
 10 11  1  1
  7 12  1  0
 12 13  2  0
 12 14  1  0
 10 15  1  0
 15 16  2  0
 15 17  1  0
  8 18  1  0
 18 19  2  0
  2  3  2  0
  3  4  1  0
  4  5  2  0
  5  6  1  0
  6  7  2  0
  2  7  1  0
M  END

$$$$
No_1194-/export/home/yangzhenyu/potential_scad_32_flow//YTHDC2/2024-12-06-03-22-00/
     RDKit          3D

 19 21  0  0  0  0  0  0  0  0999 V2000
    1.1787   -8.0297    3.5154 C   0  0  0  0  0  0  0  0  0  0  0  0
    1.0491   -6.8434    2.9820 C   0  0  0  0  0  0  0  0  0  0  0  0
    0.0950   -8.8404    3.2292 C   0  0  0  0  0  0  0  0  0  0  0  0
   -0.9173   -8.4596    2.5152 C   0  0  0  0  0  0  0  0  0  0  0  0
   -1.0331   -7.2162    2.0653 C   0  0  0  0  0  0  0  0  0  0  0  0
   -0.0105   -6.3168    2.3081 C   0  0  0  0  0  0  0  0  0  0  0  0
    0.1465  -10.2446    3.6981 C   0  0  0  0  0  0  0  0  0  0  0  0
    1.2433  -10.8239    4.0166 C   0  0  0  0  0  0  0  0  0  0  0  0
    1.0790  -12.2885    4.3779 N   0  0  0  0  0  0  0  0  0  0  0  0
    0.0124  -12.7573    3.8993 C   0  0  0  0  0  0  0  0  0  0  0  0
   -0.6559  -11.3969    3.4669 C   0  0  0  0  0  0  0  0  0  0  0  0
   -0.0729   -5.0188    1.8413 C   0  0  0  0  0  0  0  0  0  0  0  0
   -0.5051   -4.7214    0.6975 C   0  0  0  0  0  0  0  0  0  0  0  0
   -0.6045   -3.3148    0.3926 C   0  0  0  0  0  0  0  0  0  0  0  0
    0.1624   -2.3486    1.0571 C   0  0  0  0  0  0  0  0  0  0  0  0
    0.9666   -2.7308    2.0755 C   0  0  0  0  0  0  0  0  0  0  0  0
    0.8702   -4.0726    2.5597 C   0  0  0  0  0  0  0  0  0  0  0  0
   -1.2394   -2.8909   -0.8697 F   0  0  0  0  0  0  0  0  0  0  0  0
   -1.9988  -11.3509    2.9017 C   0  0  0  0  0  0  0  0  0  0  0  0
  3  7  1  0
  7  8  2  0
  8  9  1  0
  9 10  2  0
  7 11  1  0
 10 11  1  0
  6 12  1  0
 14 18  1  0
 11 19  1  0
 12 13  2  0
 13 14  1  0
 14 15  2  0
 15 16  1  0
 16 17  2  0
 12 17  1  0
  1  2  2  0
  2  6  1  0
  5  6  2  0
  4  5  1  0
  3  4  2  0
  1  3  1  0
M  END

$$$$
No_1195-/export/home/yangzhenyu/potential_scad_32_flow//YTHDC2/2024-12-06-03-22-00/
     RDKit          3D

 18 20  0  0  1  0  0  0  0  0999 V2000
    1.1787   -8.0297    3.5154 C   0  0  0  0  0  0  0  0  0  0  0  0
    1.1048   -9.2215    3.2892 C   0  0  0  0  0  0  0  0  0  0  0  0
    1.3627  -10.1721    4.3044 C   0  0  0  0  0  0  0  0  0  0  0  0
    1.0682  -11.5187    4.0618 C   0  0  0  0  0  0  0  0  0  0  0  0
    0.6332  -11.9655    2.9682 C   0  0  2  0  0  0  0  0  0  0  0  0
    0.4719  -13.4293    2.7591 C   0  0  0  0  0  0  0  0  0  0  0  0
    1.3208  -14.3288    3.3604 C   0  0  0  0  0  0  0  0  0  0  0  0
    1.0176   -7.1425    2.3239 C   0  0  0  0  0  0  0  0  0  0  0  0
    0.9624   -7.5765    1.1218 C   0  0  0  0  0  0  0  0  0  0  0  0
    1.1530   -8.8505    0.8360 C   0  0  0  0  0  0  0  0  0  0  0  0
    1.2132   -9.7894    1.9052 C   0  0  0  0  0  0  0  0  0  0  0  0
    1.1582  -15.7691    2.9286 C   0  0  0  0  0  0  0  0  0  0  0  0
    0.3614  -16.1230    2.0527 C   0  0  0  0  0  0  0  0  0  0  0  0
   -0.4033  -15.2416    1.4258 C   0  0  0  0  0  0  0  0  0  0  0  0
   -0.2755  -13.8602    1.6907 C   0  0  0  0  0  0  0  0  0  0  0  0
    1.0653  -11.1046    1.7305 C   0  0  0  0  0  0  0  0  0  0  0  0
    0.9710   -5.5879    2.5033 C   0  0  0  0  0  0  0  0  0  0  0  0
    1.0909  -11.5840    0.6131 O   0  0  0  0  0  0  0  0  0  0  0  0
  2  3  1  0
  4  5  1  0
  5  6  1  6
  5 16  1  0
 11 16  1  0
  8 17  1  0
 16 18  2  0
  3  4  1  0
  1  2  2  0
  2 11  1  0
 10 11  2  0
  9 10  1  0
  8  9  2  0
  1  8  1  0
  6  7  2  0
  7 12  1  0
 12 13  2  0
 13 14  1  0
 14 15  2  0
  6 15  1  0
M  END

$$$$
No_1196-/export/home/yangzhenyu/potential_scad_32_flow//YTHDC2/2024-12-06-03-22-00/
     RDKit          3D

 16 16  0  0  0  0  0  0  0  0999 V2000
    1.1787   -8.0297    3.5154 C   0  0  0  0  0  0  0  0  0  0  0  0
    1.1048   -9.2215    3.2892 C   0  0  0  0  0  0  0  0  0  0  0  0
    1.0239   -9.7790    2.0239 C   0  0  0  0  0  0  0  0  0  0  0  0
    1.1393   -9.0211    0.9686 C   0  0  0  0  0  0  0  0  0  0  0  0
    1.4051   -7.6500    1.1251 C   0  0  0  0  0  0  0  0  0  0  0  0
    1.4868   -7.1041    2.3534 C   0  0  0  0  0  0  0  0  0  0  0  0
    0.9659  -10.1420    4.4543 Cl  0  0  0  0  0  0  0  0  0  0  0  0
    0.8016  -11.1600    1.8522 Cl  0  0  0  0  0  0  0  0  0  0  0  0
    1.0995   -9.4446   -0.3644 C   0  0  0  0  0  0  0  0  0  0  0  0
    2.0209   -9.5223   -1.1312 O   0  0  0  0  0  0  0  0  0  0  0  0
   -0.1095   -9.5659   -0.9935 N   0  0  0  0  0  0  0  0  0  0  0  0
   -0.4128   -9.7855   -2.3377 C   0  0  0  0  0  0  0  0  0  0  0  0
   -1.5673  -10.4010   -2.6362 C   0  0  0  0  0  0  0  0  0  0  0  0
   -1.8989  -10.6075   -3.8951 O   0  0  0  0  0  0  0  0  0  0  0  0
   -2.5876  -10.6421   -1.7592 Cl  0  0  0  0  0  0  0  0  0  0  0  0
    1.5699   -5.6435    2.5944 Cl  0  0  0  0  0  0  0  0  0  0  0  0
  2  7  1  0
  3  8  1  0
  4  9  1  0
  9 10  2  0
  9 11  1  0
 11 12  1  0
 12 13  1  0
 13 14  2  0
 13 15  1  0
  6 16  1  0
  1  2  2  0
  2  3  1  0
  3  4  2  0
  4  5  1  0
  5  6  2  0
  1  6  1  0
M  END

$$$$
No_1197-/export/home/yangzhenyu/potential_scad_32_flow//YTHDC2/2024-12-06-03-22-00/
     RDKit          3D

 16 17  0  0  0  0  0  0  0  0999 V2000
    1.1787   -8.0297    3.5154 C   0  0  0  0  0  0  0  0  0  0  0  0
    1.1048   -9.2215    3.2892 C   0  0  0  0  0  0  0  0  0  0  0  0
    1.3627  -10.1721    4.3044 C   0  0  0  0  0  0  0  0  0  0  0  0
    1.7354  -11.4730    3.9023 C   0  0  0  0  0  0  0  0  0  0  0  0
    1.8080  -11.8127    2.7216 C   0  0  0  0  0  0  0  0  0  0  0  0
    1.5854  -11.0021    1.7249 C   0  0  0  0  0  0  0  0  0  0  0  0
    1.3573   -9.7389    1.9287 C   0  0  0  0  0  0  0  0  0  0  0  0
    1.2865   -8.8078    0.9161 C   0  0  0  0  0  0  0  0  0  0  0  0
    1.6845   -9.1638   -0.2896 C   0  0  0  0  0  0  0  0  0  0  0  0
    2.0771  -13.2284    2.3629 C   0  0  0  0  0  0  0  0  0  0  0  0
    1.8625  -14.2425    3.1385 O   0  0  0  0  0  0  0  0  0  0  0  0
    2.5731  -13.5010    1.1379 O   0  0  0  0  0  0  0  0  0  0  0  0
    1.6301   -8.1292   -1.3737 S   0  0  0  0  0  0  0  0  0  0  0  0
    1.0913   -7.0651    2.9385 C   0  0  0  0  0  0  0  0  0  0  0  0
    1.2872   -7.3804    1.3324 C   0  0  0  0  0  0  0  0  0  0  0  0
    1.1198   -5.6569    3.0442 O   0  0  0  0  0  0  0  0  0  0  0  0
  5 10  1  0
 10 11  1  0
 10 12  2  0
  9 13  1  0
 14 16  1  0
  8  9  1  0
  1  2  2  0
  7  8  2  0
  8 15  1  0
 14 15  2  0
  1 14  1  0
  2  3  1  0
  3  4  2  0
  4  5  1  0
  5  6  2  0
  6  7  1  0
  2  7  1  0
M  END

$$$$
No_1198-/export/home/yangzhenyu/potential_scad_32_flow//YTHDC2/2024-12-06-03-22-00/
     RDKit          3D

 18 19  0  0  1  0  0  0  0  0999 V2000
    1.1787   -8.0297    3.5154 C   0  0  0  0  0  0  0  0  0  0  0  0
    1.1048   -9.2215    3.2892 C   0  0  0  0  0  0  0  0  0  0  0  0
    1.2339   -9.7611    2.0189 C   0  0  0  0  0  0  0  0  0  0  0  0
    1.3583   -9.0036    0.9764 C   0  0  0  0  0  0  0  0  0  0  0  0
    1.5996   -7.6362    1.1311 C   0  0  0  0  0  0  0  0  0  0  0  0
    1.4830   -7.0928    2.3626 C   0  0  0  0  0  0  0  0  0  0  0  0
    1.1008  -11.2372    1.8542 C   0  0  2  0  0  0  0  0  0  0  0  0
    1.9749  -12.0938    2.2342 C   0  0  0  0  0  0  0  0  0  0  0  0
    1.5180  -13.3509    2.5910 C   0  0  0  0  0  0  0  0  0  0  0  0
    2.0215  -14.5416    2.0368 C   0  0  0  0  0  0  0  0  0  0  0  0
    1.7043  -15.8352    2.6045 C   0  0  0  0  0  0  0  0  0  0  0  0
    0.6985  -15.8171    3.6553 C   0  0  0  0  0  0  0  0  0  0  0  0
    0.0813  -14.7495    3.9582 C   0  0  0  0  0  0  0  0  0  0  0  0
    0.5049  -13.5197    3.5553 C   0  0  0  0  0  0  0  0  0  0  0  0
    1.5542   -5.4531    2.7076 Cl  0  0  0  0  0  0  0  0  0  0  0  0
    0.4426  -11.5767    0.5434 C   0  0  0  0  0  0  0  0  0  0  0  0
    0.3983  -17.1720    4.0266 Cl  0  0  0  0  0  0  0  0  0  0  0  0
    0.6098  -12.3316   -0.1338 O   0  0  0  0  0  0  0  0  0  0  0  0
  3  7  1  0
  7  8  1  6
  8  9  1  0
  6 15  1  0
  7 16  1  0
 12 17  1  0
 16 18  2  0
  1  2  2  0
  2  3  1  0
  3  4  2  0
  4  5  1  0
  5  6  2  0
  1  6  1  0
  9 10  2  0
 10 11  1  0
 11 12  2  0
 12 13  1  0
 13 14  2  0
  9 14  1  0
M  END

$$$$
No_1199-/export/home/yangzhenyu/potential_scad_32_flow//YTHDC2/2024-12-06-03-22-00/
     RDKit          3D

 16 16  0  0  0  0  0  0  0  0999 V2000
    1.1787   -8.0297    3.5154 C   0  0  0  0  0  0  0  0  0  0  0  0
    1.0491   -6.8434    2.9820 C   0  0  0  0  0  0  0  0  0  0  0  0
    1.0690   -9.1150    2.7206 C   0  0  0  0  0  0  0  0  0  0  0  0
    0.9689   -6.6391    1.6260 C   0  0  0  0  0  0  0  0  0  0  0  0
    0.9670   -9.0334    1.3824 C   0  0  0  0  0  0  0  0  0  0  0  0
    0.8189   -7.7113    0.8022 C   0  0  0  0  0  0  0  0  0  0  0  0
    1.2356  -10.6383    3.3202 C   0  0  0  0  0  0  0  0  0  0  0  0
    1.4460  -11.6602    2.5945 C   0  0  0  0  0  0  0  0  0  0  0  0
    1.5954  -12.9122    3.1047 C   0  0  0  0  0  0  0  0  0  0  0  0
    1.6330  -14.1317    2.3478 C   0  0  0  0  0  0  0  0  0  0  0  0
    2.2164  -14.0160    1.1231 O   0  0  0  0  0  0  0  0  0  0  0  0
    1.4314  -15.2918    2.8386 O   0  0  0  0  0  0  0  0  0  0  0  0
    0.8439   -5.3137    1.1261 N   0  0  0  0  0  0  0  0  0  0  0  0
    0.3217   -4.2548    1.7419 C   0  0  0  0  0  0  0  0  0  0  0  0
    0.9960   -3.3596    2.3224 C   0  0  0  0  0  0  0  0  0  0  0  0
    0.4773   -2.3978    3.1740 C   0  0  0  0  0  0  0  0  0  0  0  0
  3  7  1  0
  7  8  2  3
  8  9  1  0
  9 10  1  0
 10 11  1  0
 10 12  2  0
  4 13  1  0
 13 14  1  0
 14 15  1  0
 15 16  2  0
  1  2  2  0
  2  4  1  0
  4  6  2  0
  5  6  1  0
  3  5  2  0
  1  3  1  0
M  END

$$$$
No_1200-/export/home/yangzhenyu/potential_scad_32_flow//YTHDC2/2024-12-06-03-22-00/
     RDKit          3D

 18 18  0  0  0  0  0  0  0  0999 V2000
    1.1787   -8.0297    3.5154 N   0  0  0  0  0  0  0  0  0  0  0  0
    0.8669   -7.0905    2.8589 C   0  0  0  0  0  0  0  0  0  0  0  0
    1.0447   -7.3244    1.4123 C   0  0  0  0  0  0  0  0  0  0  0  0
    1.3746   -8.4389    1.0864 C   0  0  0  0  0  0  0  0  0  0  0  0
    1.8493   -9.4093    1.8124 C   0  0  0  0  0  0  0  0  0  0  0  0
    1.7421   -9.2119    3.1541 C   0  0  0  0  0  0  0  0  0  0  0  0
    2.0608  -10.3132    4.0586 C   0  0  0  0  0  0  0  0  0  0  0  0
    1.3103  -11.3806    4.2606 N   0  0  0  0  0  0  0  0  0  0  0  0
    1.7373   -8.6751   -0.3939 C   0  0  0  0  0  0  0  0  0  0  0  0
    2.8471   -9.0736   -0.8931 O   0  0  0  0  0  0  0  0  0  0  0  0
    0.7898   -8.6491   -1.3199 O   0  0  0  0  0  0  0  0  0  0  0  0
    3.2928  -10.3876    4.7575 O   0  0  0  0  0  0  0  0  0  0  0  0
    0.0810  -11.4493    3.6001 C   0  0  0  0  0  0  0  0  0  0  0  0
   -0.1301  -12.5086    2.7012 C   0  0  0  0  0  0  0  0  0  0  0  0
    0.8566  -13.4600    2.5092 C   0  0  0  0  0  0  0  0  0  0  0  0
    0.5478  -14.3979    1.5669 C   0  0  0  0  0  0  0  0  0  0  0  0
   -0.4700  -14.3866    0.7812 C   0  0  0  0  0  0  0  0  0  0  0  0
   -1.3733  -13.3680    0.8980 C   0  0  0  0  0  0  0  0  0  0  0  0
  6  7  1  0
  7  8  1  0
  4  9  1  0
  9 10  2  0
  9 11  1  0
  7 12  2  0
  8 13  1  0
 13 14  1  0
 14 15  1  0
 15 16  2  3
 16 17  1  0
 17 18  2  0
  1  2  2  0
  2  3  1  0
  3  4  2  0
  4  5  1  0
  5  6  2  0
  1  6  1  0
M  END

$$$$
No_1201-/export/home/yangzhenyu/potential_scad_32_flow//YTHDC2/2024-12-06-03-22-00/
     RDKit          3D

 19 20  0  0  1  0  0  0  0  0999 V2000
    1.1787   -8.0297    3.5154 C   0  0  0  0  0  0  0  0  0  0  0  0
    1.1048   -9.2215    3.2892 C   0  0  0  0  0  0  0  0  0  0  0  0
    1.2339   -9.7611    2.0189 C   0  0  0  0  0  0  0  0  0  0  0  0
    1.3583   -9.0036    0.9764 C   0  0  0  0  0  0  0  0  0  0  0  0
    1.5996   -7.6362    1.1311 C   0  0  0  0  0  0  0  0  0  0  0  0
    1.4830   -7.0928    2.3626 C   0  0  0  0  0  0  0  0  0  0  0  0
    1.1008  -11.2372    1.8542 C   0  0  0  0  0  0  0  0  0  0  0  0
    1.9749  -12.0938    2.2342 C   0  0  0  0  0  0  0  0  0  0  0  0
    1.5180  -13.3509    2.5910 C   0  0  0  0  0  0  0  0  0  0  0  0
    0.4053  -13.4434    3.4089 C   0  0  0  0  0  0  0  0  0  0  0  0
    0.1718  -14.9668    3.4297 N   0  0  0  0  0  0  0  0  0  0  0  0
    2.1187  -14.6048    2.1206 C   0  0  0  0  0  0  0  0  0  0  0  0
    1.3771  -15.6451    2.8484 C   0  0  2  0  0  0  0  0  0  0  0  0
    1.5171  -16.9086    2.8500 C   0  0  0  0  0  0  0  0  0  0  0  0
    1.5482   -5.6730    2.6915 C   0  0  0  0  0  0  0  0  0  0  0  0
    0.7630  -17.7611    3.5238 C   0  0  0  0  0  0  0  0  0  0  0  0
    0.7922  -19.1648    3.4779 C   0  0  0  0  0  0  0  0  0  0  0  0
    1.9483  -19.7216    2.8541 C   0  0  0  0  0  0  0  0  0  0  0  0
    2.8220  -18.9013    2.1871 C   0  0  0  0  0  0  0  0  0  0  0  0
  3  7  1  0
  7  8  1  0
  8  9  1  0
  9 10  1  0
 10 11  2  0
  9 12  1  0
 11 13  1  0
 13 12  1  6
 13 14  1  0
  6 15  1  0
 14 16  2  3
 16 17  1  0
 17 18  2  3
 18 19  1  0
  1  2  2  0
  2  3  1  0
  3  4  2  0
  4  5  1  0
  5  6  2  0
  1  6  1  0
M  END

$$$$
No_1202-/export/home/yangzhenyu/potential_scad_32_flow//YTHDC2/2024-12-06-03-22-00/
     RDKit          3D

 21 23  0  0  0  0  0  0  0  0999 V2000
    1.1787   -8.0297    3.5154 C   0  0  0  0  0  0  0  0  0  0  0  0
    1.1048   -9.2215    3.2892 C   0  0  0  0  0  0  0  0  0  0  0  0
    1.3627  -10.1721    4.3044 C   0  0  0  0  0  0  0  0  0  0  0  0
    1.7354  -11.4730    3.9023 C   0  0  0  0  0  0  0  0  0  0  0  0
    1.8080  -11.8127    2.7216 C   0  0  0  0  0  0  0  0  0  0  0  0
    1.5854  -11.0021    1.7249 C   0  0  0  0  0  0  0  0  0  0  0  0
    1.3573   -9.7389    1.9287 C   0  0  0  0  0  0  0  0  0  0  0  0
    1.1102   -8.8712    0.9017 C   0  0  0  0  0  0  0  0  0  0  0  0
    0.5299   -7.6926    1.0325 C   0  0  0  0  0  0  0  0  0  0  0  0
    0.7526   -7.0802    2.3301 C   0  0  0  0  0  0  0  0  0  0  0  0
    2.0528  -13.2563    2.4302 O   0  0  0  0  0  0  0  0  0  0  0  0
    0.5638   -5.7065    2.5407 C   0  0  0  0  0  0  0  0  0  0  0  0
    1.0232   -4.8366    1.6427 C   0  0  0  0  0  0  0  0  0  0  0  0
    0.2456   -4.5266    0.6183 C   0  0  0  0  0  0  0  0  0  0  0  0
    0.2810   -3.1185    0.2927 C   0  0  0  0  0  0  0  0  0  0  0  0
    1.2575   -2.2538    0.7836 C   0  0  0  0  0  0  0  0  0  0  0  0
    2.0776   -2.6178    1.7467 C   0  0  0  0  0  0  0  0  0  0  0  0
    1.9936   -3.8596    2.2807 C   0  0  0  0  0  0  0  0  0  0  0  0
    1.3273  -14.0699    1.7537 C   0  0  0  0  0  0  0  0  0  0  0  0
    0.3248  -13.5222    1.3105 C   0  0  0  0  0  0  0  0  0  0  0  0
   -0.8376  -13.5644    1.9401 C   0  0  0  0  0  0  0  0  0  0  0  0
  5 11  1  0
 10 12  1  0
 12 13  1  0
 11 19  1  0
 19 20  1  0
 20 21  1  0
  1  2  2  0
  7  8  2  0
  8  9  1  0
  9 10  2  0
  1 10  1  0
  2  3  1  0
  3  4  2  0
  4  5  1  0
  5  6  2  0
  6  7  1  0
  2  7  1  0
 13 14  2  0
 14 15  1  0
 15 16  2  0
 16 17  1  0
 17 18  2  0
 13 18  1  0
M  END

$$$$
No_1203-/export/home/yangzhenyu/potential_scad_32_flow//YTHDC2/2024-12-06-03-22-00/
     RDKit          3D

 16 18  0  0  0  0  0  0  0  0999 V2000
    1.1787   -8.0297    3.5154 C   0  0  0  0  0  0  0  0  0  0  0  0
    1.1048   -9.2215    3.2892 C   0  0  0  0  0  0  0  0  0  0  0  0
    1.3627  -10.1721    4.3044 C   0  0  0  0  0  0  0  0  0  0  0  0
    1.0682  -11.5187    4.0618 C   0  0  0  0  0  0  0  0  0  0  0  0
    1.3170  -12.4034    4.6175 C   0  0  0  0  0  0  0  0  0  0  0  0
    0.8380   -7.0609    2.5904 C   0  0  0  0  0  0  0  0  0  0  0  0
    0.3507   -7.4578    1.3875 C   0  0  0  0  0  0  0  0  0  0  0  0
    0.1987   -8.7105    1.0791 C   0  0  0  0  0  0  0  0  0  0  0  0
    0.5984   -9.6925    2.0197 C   0  0  0  0  0  0  0  0  0  0  0  0
    0.0045   -6.3852    0.4270 C   0  0  0  0  0  0  0  0  0  0  0  0
   -0.0185   -5.0854    0.9095 O   0  0  0  0  0  0  0  0  0  0  0  0
   -0.9175   -6.7040   -0.4582 O   0  0  0  0  0  0  0  0  0  0  0  0
    1.1697  -13.7404    3.9118 C   0  0  0  0  0  0  0  0  0  0  0  0
    0.6601  -13.6269    2.6271 C   0  0  0  0  0  0  0  0  0  0  0  0
    0.3631  -12.6143    2.0374 C   0  0  0  0  0  0  0  0  0  0  0  0
    0.6040  -11.4116    2.5833 C   0  0  0  0  0  0  0  0  0  0  0  0
  2  3  1  0
  7 10  1  0
 10 11  1  0
 10 12  2  0
  9 16  1  0
  3  4  1  0
  1  2  2  0
  2  9  1  0
  8  9  2  0
  7  8  1  0
  6  7  2  0
  1  6  1  0
  4  5  2  0
  5 13  1  0
 13 14  2  0
 14 15  1  0
 15 16  2  0
  4 16  1  0
M  END

$$$$
No_1204-/export/home/yangzhenyu/potential_scad_32_flow//YTHDC2/2024-12-06-03-22-00/
     RDKit          3D

 19 20  0  0  1  0  0  0  0  0999 V2000
    1.1787   -8.0297    3.5154 C   0  0  0  0  0  0  0  0  0  0  0  0
    1.0491   -6.8434    2.9820 C   0  0  0  0  0  0  0  0  0  0  0  0
    0.2462   -8.9560    3.0873 C   0  0  2  0  0  0  0  0  0  0  0  0
    0.3295   -6.5187    1.9069 C   0  0  0  0  0  0  0  0  0  0  0  0
    0.3283  -10.2724    3.7058 C   0  0  0  0  0  0  0  0  0  0  0  0
   -0.4404   -7.4628    1.4400 C   0  0  0  0  0  0  0  0  0  0  0  0
   -0.4655   -8.7076    1.9376 C   0  0  0  0  0  0  0  0  0  0  0  0
    0.2262  -11.4685    3.0231 C   0  0  0  0  0  0  0  0  0  0  0  0
    1.2924  -12.3870    3.2173 C   0  0  1  0  0  0  0  0  0  0  0  0
    2.1769  -12.0760    4.1031 C   0  0  0  0  0  0  0  0  0  0  0  0
    1.2375  -13.6283    2.6213 C   0  0  0  0  0  0  0  0  0  0  0  0
    0.4419   -5.1291    1.2993 Cl  0  0  0  0  0  0  0  0  0  0  0  0
    0.2205  -14.3534    2.4032 C   0  0  0  0  0  0  0  0  0  0  0  0
    0.1999  -15.5173    3.3160 C   0  0  0  0  0  0  0  0  0  0  0  0
   -0.9091  -16.3223    3.3826 C   0  0  0  0  0  0  0  0  0  0  0  0
   -2.0041  -15.9441    2.7672 C   0  0  0  0  0  0  0  0  0  0  0  0
   -2.0331  -14.9607    1.8905 C   0  0  0  0  0  0  0  0  0  0  0  0
   -0.9142  -14.1406    1.7546 C   0  0  0  0  0  0  0  0  0  0  0  0
   -1.3744   -9.5401    1.5324 O   0  0  0  0  0  0  0  0  0  0  0  0
  1  3  1  0
  2  4  1  0
  3  5  1  6
  3  7  1  0
  6  7  1  0
  5  8  1  0
  8  9  1  0
  9 10  1  1
  9 11  1  0
  4 12  1  0
 11 13  1  0
  7 19  2  0
  1  2  1  0
  4  6  1  0
 13 14  2  0
 14 15  1  0
 15 16  2  0
 16 17  1  0
 17 18  2  0
 13 18  1  0
M  END

$$$$
No_1205-/export/home/yangzhenyu/potential_scad_32_flow//YTHDC2/2024-12-06-03-22-00/
     RDKit          3D

 20 21  0  0  0  0  0  0  0  0999 V2000
    1.1787   -8.0297    3.5154 O   0  0  0  0  0  0  0  0  0  0  0  0
    0.9969   -8.9689    3.0048 C   0  0  0  0  0  0  0  0  0  0  0  0
    1.3055  -10.1056    3.6616 C   0  0  0  0  0  0  0  0  0  0  0  0
    1.5709  -11.1115    3.2016 C   0  0  0  0  0  0  0  0  0  0  0  0
    1.6332  -11.2629    1.7349 C   0  0  0  0  0  0  0  0  0  0  0  0
    1.4617  -10.1742    0.9691 C   0  0  0  0  0  0  0  0  0  0  0  0
    1.1252   -9.0006    1.6051 C   0  0  0  0  0  0  0  0  0  0  0  0
    0.8275   -7.7749    1.0285 C   0  0  0  0  0  0  0  0  0  0  0  0
    0.2093   -7.9203   -0.1052 O   0  0  0  0  0  0  0  0  0  0  0  0
    1.1971   -6.5674    1.2987 O   0  0  0  0  0  0  0  0  0  0  0  0
    1.8892  -12.4128    3.8240 C   0  0  0  0  0  0  0  0  0  0  0  0
    1.4724  -13.6668    3.0489 N   0  0  0  0  0  0  0  0  0  0  0  0
    2.1450  -14.6243    2.6738 C   0  0  0  0  0  0  0  0  0  0  0  0
    3.4725  -14.5264    2.4748 O   0  0  0  0  0  0  0  0  0  0  0  0
    1.6209  -15.9380    2.4453 C   0  0  0  0  0  0  0  0  0  0  0  0
    0.2759  -16.0210    2.3784 C   0  0  0  0  0  0  0  0  0  0  0  0
   -0.1982  -17.0330    2.1490 C   0  0  0  0  0  0  0  0  0  0  0  0
    0.5188  -18.2741    2.1240 C   0  0  0  0  0  0  0  0  0  0  0  0
    1.9120  -18.2082    2.2271 C   0  0  0  0  0  0  0  0  0  0  0  0
    2.4618  -16.9707    2.4235 C   0  0  0  0  0  0  0  0  0  0  0  0
  1  2  1  0
  7  8  1  0
  8  9  2  0
  8 10  1  0
  4 11  1  0
 11 12  1  0
 12 13  1  0
 13 14  2  0
 13 15  1  0
 15 16  2  0
 16 17  1  0
 17 18  2  0
 18 19  1  0
 19 20  2  0
 15 20  1  0
  2  3  2  0
  3  4  1  0
  4  5  2  0
  5  6  1  0
  6  7  2  0
  2  7  1  0
M  END

$$$$
No_1206-/export/home/yangzhenyu/potential_scad_32_flow//YTHDC2/2024-12-06-03-22-00/
     RDKit          3D

 18 19  0  0  0  0  0  0  0  0999 V2000
    1.1787   -8.0297    3.5154 C   0  0  0  0  0  0  0  0  0  0  0  0
    1.1048   -9.2215    3.2892 C   0  0  0  0  0  0  0  0  0  0  0  0
    1.2339   -9.7611    2.0189 C   0  0  0  0  0  0  0  0  0  0  0  0
    1.3583   -9.0036    0.9764 C   0  0  0  0  0  0  0  0  0  0  0  0
    1.5996   -7.6362    1.1311 C   0  0  0  0  0  0  0  0  0  0  0  0
    1.4830   -7.0928    2.3626 C   0  0  0  0  0  0  0  0  0  0  0  0
    1.5395   -5.7300    2.6182 C   0  0  0  0  0  0  0  0  0  0  0  0
    1.1775  -11.2233    1.8407 C   0  0  0  0  0  0  0  0  0  0  0  0
    0.5085  -11.9762    2.1989 C   0  0  0  0  0  0  0  0  0  0  0  0
    0.4247  -13.3704    2.0465 C   0  0  0  0  0  0  0  0  0  0  0  0
   -0.6059  -14.0773    1.8608 C   0  0  0  0  0  0  0  0  0  0  0  0
   -1.8886  -13.5775    2.1663 C   0  0  0  0  0  0  0  0  0  0  0  0
   -1.9574  -12.2085    2.5151 C   0  0  0  0  0  0  0  0  0  0  0  0
   -0.8596  -11.3966    2.5033 C   0  0  0  0  0  0  0  0  0  0  0  0
    0.6294   -4.8926    2.7647 O   0  0  0  0  0  0  0  0  0  0  0  0
    1.8760  -14.0362    1.6041 Br  0  0  0  0  0  0  0  0  0  0  0  0
   -3.4784  -11.6436    2.9452 I   0  0  0  0  0  0  0  0  0  0  0  0
   -0.3029   -4.7957    1.9744 C   0  0  0  0  0  0  0  0  0  0  0  0
  6  7  1  0
  3  8  1  0
  7 15  1  0
 10 16  1  0
 13 17  1  0
 15 18  1  0
  8  9  1  0
  1  2  2  0
  2  3  1  0
  3  4  2  0
  4  5  1  0
  5  6  2  0
  1  6  1  0
  9 10  2  0
 10 11  1  0
 11 12  2  0
 12 13  1  0
 13 14  2  0
  9 14  1  0
M  END

$$$$
No_1207-/export/home/yangzhenyu/potential_scad_32_flow//YTHDC2/2024-12-06-03-22-00/
     RDKit          3D

 17 18  0  0  0  0  0  0  0  0999 V2000
    1.1787   -8.0297    3.5154 C   0  0  0  0  0  0  0  0  0  0  0  0
    1.0491   -6.8434    2.9820 C   0  0  0  0  0  0  0  0  0  0  0  0
    0.2462   -8.9560    3.0873 C   0  0  0  0  0  0  0  0  0  0  0  0
    0.3295   -6.5187    1.9069 C   0  0  0  0  0  0  0  0  0  0  0  0
    0.3283  -10.2724    3.7058 C   0  0  0  0  0  0  0  0  0  0  0  0
   -0.4404   -7.4628    1.4400 C   0  0  0  0  0  0  0  0  0  0  0  0
   -0.4655   -8.7076    1.9376 C   0  0  0  0  0  0  0  0  0  0  0  0
   -0.9581  -10.8075    3.9421 C   0  0  0  0  0  0  0  0  0  0  0  0
   -1.1478  -12.0427    3.3677 C   0  0  0  0  0  0  0  0  0  0  0  0
   -0.0596  -12.8035    2.9114 C   0  0  0  0  0  0  0  0  0  0  0  0
    1.2293  -12.1670    2.8224 C   0  0  0  0  0  0  0  0  0  0  0  0
    1.3802  -10.8546    3.2491 C   0  0  0  0  0  0  0  0  0  0  0  0
    0.4117   -5.2808    1.2599 O   0  0  0  0  0  0  0  0  0  0  0  0
   -0.0870  -14.2900    2.4860 C   0  0  0  0  0  0  0  0  0  0  0  0
   -1.1323  -14.6767    1.9959 C   0  0  0  0  0  0  0  0  0  0  0  0
    1.1354  -15.0466    2.7036 C   0  0  0  0  0  0  0  0  0  0  0  0
    1.1848  -16.3037    2.3414 C   0  0  0  0  0  0  0  0  0  0  0  0
  3  5  1  0
  4 13  1  0
 10 14  1  0
 14 15  2  0
 14 16  1  0
 16 17  2  0
  5  8  2  0
  8  9  1  0
  9 10  2  0
 10 11  1  0
 11 12  2  0
  5 12  1  0
  1  2  2  0
  2  4  1  0
  4  6  2  0
  6  7  1  0
  3  7  2  0
  1  3  1  0
M  END

$$$$
No_1208-/export/home/yangzhenyu/potential_scad_32_flow//YTHDC2/2024-12-06-03-22-00/
     RDKit          3D

 19 20  0  0  0  0  0  0  0  0999 V2000
    1.1787   -8.0297    3.5154 N   0  0  0  0  0  0  0  0  0  0  0  0
    1.0818   -9.0751    3.2053 C   0  0  0  0  0  0  0  0  0  0  0  0
    0.7576   -9.3725    1.9159 C   0  0  0  0  0  0  0  0  0  0  0  0
    0.7445  -10.8746    1.6491 C   0  0  0  0  0  0  0  0  0  0  0  0
    0.9910  -11.7526    2.6067 C   0  0  0  0  0  0  0  0  0  0  0  0
    1.4405  -11.4331    3.8064 C   0  0  0  0  0  0  0  0  0  0  0  0
    1.4304  -10.0463    4.1669 C   0  0  0  0  0  0  0  0  0  0  0  0
    1.1410   -6.8244    2.7961 C   0  0  0  0  0  0  0  0  0  0  0  0
    1.2073   -5.5154    3.2332 O   0  0  0  0  0  0  0  0  0  0  0  0
    1.2572   -6.8432    1.3345 O   0  0  0  0  0  0  0  0  0  0  0  0
    0.9659  -13.1976    2.3346 C   0  0  0  0  0  0  0  0  0  0  0  0
   -0.2419  -13.6668    1.9605 C   0  0  0  0  0  0  0  0  0  0  0  0
   -0.2327  -15.1635    1.8209 C   0  0  0  0  0  0  0  0  0  0  0  0
    0.9087  -15.9213    2.1075 C   0  0  0  0  0  0  0  0  0  0  0  0
    2.1340  -15.3476    2.4161 C   0  0  0  0  0  0  0  0  0  0  0  0
    2.1296  -13.9073    2.6093 C   0  0  0  0  0  0  0  0  0  0  0  0
    0.9012  -17.2983    2.0186 O   0  0  0  0  0  0  0  0  0  0  0  0
    1.9537  -18.0045    2.5863 C   0  0  0  0  0  0  0  0  0  0  0  0
    0.2155  -11.2757    0.3401 C   0  0  0  0  0  0  0  0  0  0  0  0
  1  2  1  0
  1  8  2  3
  8  9  1  0
  8 10  1  0
  5 11  1  0
 14 17  1  0
 17 18  1  0
  4 19  1  0
 11 12  2  0
 12 13  1  0
 13 14  2  0
 14 15  1  0
 15 16  2  0
 11 16  1  0
  2  3  2  0
  3  4  1  0
  4  5  2  0
  5  6  1  0
  6  7  2  0
  2  7  1  0
M  END

$$$$
No_1209-/export/home/yangzhenyu/potential_scad_32_flow//YTHDC2/2024-12-06-03-22-00/
     RDKit          3D

 19 19  0  0  1  0  0  0  0  0999 V2000
    1.1787   -8.0297    3.5154 C   0  0  0  0  0  0  0  0  0  0  0  0
    1.1048   -9.2215    3.2892 C   0  0  0  0  0  0  0  0  0  0  0  0
    1.0240   -9.7790    2.0239 C   0  0  0  0  0  0  0  0  0  0  0  0
    1.1393   -9.0211    0.9686 C   0  0  0  0  0  0  0  0  0  0  0  0
    1.3160   -9.6264   -0.3268 C   0  0  0  0  0  0  0  0  0  0  0  0
    1.3620   -7.1064    2.3319 C   0  0  0  0  0  0  0  0  0  0  0  0
    1.2578   -7.6370    1.0089 C   0  0  0  0  0  0  0  0  0  0  0  0
    0.5358  -10.7169   -0.4123 O   0  0  0  0  0  0  0  0  0  0  0  0
    1.8808   -9.1903   -1.2851 O   0  0  0  0  0  0  0  0  0  0  0  0
    1.0939  -10.3035    4.5949 Cl  0  0  0  0  0  0  0  0  0  0  0  0
    1.3877   -5.6320    2.5713 Cl  0  0  0  0  0  0  0  0  0  0  0  0
    1.0518  -11.1800    1.9271 C   0  0  0  0  0  0  0  0  0  0  0  0
    0.1194  -12.0532    2.0484 C   0  0  0  0  0  0  0  0  0  0  0  0
   -1.1734  -11.7333    2.0994 C   0  0  0  0  0  0  0  0  0  0  0  0
    0.3637  -13.5105    1.9205 C   0  0  1  0  0  0  0  0  0  0  0  0
    1.6221  -14.0040    1.9843 C   0  0  0  0  0  0  0  0  0  0  0  0
    1.9459  -14.8211    3.0764 C   0  0  0  0  0  0  0  0  0  0  0  0
    2.5480  -16.0812    2.5153 C   0  0  0  0  0  0  0  0  0  0  0  0
   -0.6106  -14.3779    1.9595 C   0  0  0  0  0  0  0  0  0  0  0  0
  4  5  1  0
  5  8  2  0
  5  9  1  0
  2 10  1  0
  6 11  1  0
  3 12  1  0
 12 13  1  0
 13 14  2  0
 13 15  1  0
 15 16  1  0
 16 17  1  0
 17 18  1  0
 15 19  1  1
  1  2  2  0
  2  3  1  0
  3  4  2  0
  4  7  1  0
  6  7  2  0
  1  6  1  0
M  END

$$$$
No_1210-/export/home/yangzhenyu/potential_scad_32_flow//YTHDC2/2024-12-06-03-22-00/
     RDKit          3D

 20 22  0  0  0  0  0  0  0  0999 V2000
    1.1787   -8.0297    3.5154 C   0  0  0  0  0  0  0  0  0  0  0  0
    1.0491   -6.8434    2.9820 C   0  0  0  0  0  0  0  0  0  0  0  0
    0.0950   -8.8404    3.2292 C   0  0  0  0  0  0  0  0  0  0  0  0
   -0.9173   -8.4596    2.5152 C   0  0  0  0  0  0  0  0  0  0  0  0
   -1.0331   -7.2162    2.0653 C   0  0  0  0  0  0  0  0  0  0  0  0
   -0.0105   -6.3168    2.3081 C   0  0  0  0  0  0  0  0  0  0  0  0
    0.1935  -10.3737    3.7416 C   0  0  0  0  0  0  0  0  0  0  0  0
    1.2407  -10.8901    4.0986 C   0  0  0  0  0  0  0  0  0  0  0  0
    1.1186  -12.3145    4.4006 C   0  0  0  0  0  0  0  0  0  0  0  0
    0.8333  -12.9811    3.2728 C   0  0  0  0  0  0  0  0  0  0  0  0
   -0.2759  -12.4547    2.6113 C   0  0  0  0  0  0  0  0  0  0  0  0
   -0.5108  -11.1235    2.7228 C   0  0  0  0  0  0  0  0  0  0  0  0
    0.9318  -14.4633    3.3272 C   0  0  0  0  0  0  0  0  0  0  0  0
    0.1709  -15.4271    3.4278 O   0  0  0  0  0  0  0  0  0  0  0  0
    2.2704  -14.8528    3.2090 O   0  0  0  0  0  0  0  0  0  0  0  0
   -0.1693   -5.0345    1.8301 Cl  0  0  0  0  0  0  0  0  0  0  0  0
   -1.1200  -13.2135    1.8306 C   0  0  0  0  0  0  0  0  0  0  0  0
   -1.8575  -12.5215    0.9956 C   0  0  0  0  0  0  0  0  0  0  0  0
   -2.1068  -11.2033    0.9620 C   0  0  0  0  0  0  0  0  0  0  0  0
   -1.4224  -10.4592    1.8547 C   0  0  0  0  0  0  0  0  0  0  0  0
  3  7  1  0
 10 13  1  0
 13 14  2  0
 13 15  1  0
  6 16  1  0
 12 20  2  0
 19 20  1  0
 18 19  2  0
 17 18  1  0
 11 17  2  0
  1  2  2  0
  2  6  1  0
  5  6  2  0
  4  5  1  0
  3  4  2  0
  1  3  1  0
  7  8  2  0
  8  9  1  0
  9 10  2  0
 10 11  1  0
 11 12  1  0
  7 12  1  0
M  END

$$$$
No_1211-/export/home/yangzhenyu/potential_scad_32_flow//YTHDC2/2024-12-06-03-22-00/
     RDKit          3D

 18 19  0  0  1  0  0  0  0  0999 V2000
    1.1787   -8.0297    3.5154 C   0  0  0  0  0  0  0  0  0  0  0  0
    1.1048   -9.2215    3.2892 C   0  0  0  0  0  0  0  0  0  0  0  0
    1.2339   -9.7611    2.0189 C   0  0  1  0  0  0  0  0  0  0  0  0
    1.1954  -11.2312    1.8661 C   0  0  2  0  0  0  0  0  0  0  0  0
    1.5546  -12.1691    2.7931 C   0  0  0  0  0  0  0  0  0  0  0  0
    0.9527   -7.0669    2.3918 C   0  0  2  0  0  0  0  0  0  0  0  0
    1.0618   -7.6392    1.0692 C   0  0  0  0  0  0  0  0  0  0  0  0
    1.2060   -8.9530    0.8578 C   0  0  0  0  0  0  0  0  0  0  0  0
    0.7976  -13.2804    2.9292 C   0  0  0  0  0  0  0  0  0  0  0  0
    0.6522  -14.0376    1.7512 C   0  0  2  0  0  0  0  0  0  0  0  0
    0.2167  -13.0869    0.6758 C   0  0  0  0  0  0  0  0  0  0  0  0
    0.9507  -11.8372    0.6586 C   0  0  0  0  0  0  0  0  0  0  0  0
    0.9938   -5.5050    2.4776 C   0  0  0  0  0  0  0  0  0  0  0  0
    1.5030   -9.3837   -0.3180 O   0  0  0  0  0  0  0  0  0  0  0  0
    0.4233   -4.9066    1.5669 O   0  0  0  0  0  0  0  0  0  0  0  0
    1.8373   -4.8939    3.3346 O   0  0  0  0  0  0  0  0  0  0  0  0
   -0.2623  -15.1435    1.9147 C   0  0  0  0  0  0  0  0  0  0  0  0
    0.0080  -16.1245    1.5223 C   0  0  0  0  0  0  0  0  0  0  0  0
  1  2  1  0
  3  4  1  0
  4  5  1  6
  6  7  1  0
  3  8  1  0
  7  8  1  0
  5  9  1  0
  9 10  1  0
 10 11  1  0
  4 12  1  0
 11 12  1  0
  6 13  1  6
  8 14  2  0
 13 15  2  0
 13 16  1  0
 10 17  1  1
 17 18  2  0
  3  2  1  1
  1  6  1  0
M  END

$$$$
No_1212-/export/home/yangzhenyu/potential_scad_32_flow//YTHDC2/2024-12-06-03-22-00/
     RDKit          3D

 19 20  0  0  0  0  0  0  0  0999 V2000
    1.1787   -8.0297    3.5154 C   0  0  0  0  0  0  0  0  0  0  0  0
    1.1048   -9.2215    3.2892 C   0  0  0  0  0  0  0  0  0  0  0  0
    1.2339   -9.7611    2.0189 C   0  0  0  0  0  0  0  0  0  0  0  0
    1.3583   -9.0036    0.9764 C   0  0  0  0  0  0  0  0  0  0  0  0
    1.5996   -7.6362    1.1311 C   0  0  0  0  0  0  0  0  0  0  0  0
    1.4830   -7.0928    2.3626 C   0  0  0  0  0  0  0  0  0  0  0  0
    1.1008  -11.2372    1.8542 C   0  0  0  0  0  0  0  0  0  0  0  0
    0.4812  -11.6084    0.6459 C   0  0  0  0  0  0  0  0  0  0  0  0
   -0.6166  -12.2864    0.7859 C   0  0  0  0  0  0  0  0  0  0  0  0
   -0.7300  -13.0625    1.9848 C   0  0  0  0  0  0  0  0  0  0  0  0
    0.1540  -12.9133    3.0511 C   0  0  0  0  0  0  0  0  0  0  0  0
    1.1516  -11.9685    2.9361 C   0  0  0  0  0  0  0  0  0  0  0  0
    1.5663   -5.6461    2.6613 Cl  0  0  0  0  0  0  0  0  0  0  0  0
    2.0815  -11.7417    3.9304 C   0  0  0  0  0  0  0  0  0  0  0  0
   -1.7262  -14.4466    2.1194 C   0  0  0  0  0  0  0  0  0  0  0  0
   -2.9034  -14.0744    2.1823 C   0  0  0  0  0  0  0  0  0  0  0  0
   -1.1958  -15.5512    2.6083 C   0  0  0  0  0  0  0  0  0  0  0  0
    0.2422  -15.9271    2.7011 C   0  0  0  0  0  0  0  0  0  0  0  0
   -2.0390  -16.5923    2.6018 C   0  0  0  0  0  0  0  0  0  0  0  0
  3  7  1  0
  6 13  1  0
 12 14  1  0
 10 15  1  0
 15 16  2  0
 15 17  1  0
 17 18  1  0
 17 19  1  0
  1  2  2  0
  2  3  1  0
  3  4  2  0
  4  5  1  0
  5  6  2  0
  1  6  1  0
  7  8  2  0
  8  9  1  0
  9 10  2  0
 10 11  1  0
 11 12  2  0
  7 12  1  0
M  END

$$$$
No_1213-/export/home/yangzhenyu/potential_scad_32_flow//YTHDC2/2024-12-06-03-22-00/
     RDKit          3D

 11 11  0  0  0  0  0  0  0  0999 V2000
    1.1787   -8.0297    3.5154 C   0  0  0  0  0  0  0  0  0  0  0  0
    1.1048   -9.2215    3.2892 C   0  0  0  0  0  0  0  0  0  0  0  0
    1.0239   -9.7790    2.0239 C   0  0  0  0  0  0  0  0  0  0  0  0
    1.1393   -9.0211    0.9686 C   0  0  0  0  0  0  0  0  0  0  0  0
    1.4051   -7.6500    1.1251 C   0  0  0  0  0  0  0  0  0  0  0  0
    1.4868   -7.1041    2.3534 C   0  0  0  0  0  0  0  0  0  0  0  0
    0.9659  -10.1420    4.4543 N   0  0  0  0  0  0  0  0  0  0  0  0
   -0.1298  -11.0575    4.6567 O   0  0  0  0  0  0  0  0  0  0  0  0
    1.1807   -9.5921   -0.4931 C   0  0  0  0  0  0  0  0  0  0  0  0
    0.3677   -9.2384   -1.1179 O   0  0  0  0  0  0  0  0  0  0  0  0
    1.7634  -10.5866   -0.5467 O   0  0  0  0  0  0  0  0  0  0  0  0
  2  7  1  0
  7  8  2  0
  4  9  1  0
  9 10  1  0
  9 11  2  0
  1  2  2  0
  2  3  1  0
  3  4  2  0
  4  5  1  0
  5  6  2  0
  1  6  1  0
M  END

$$$$
No_1214-/export/home/yangzhenyu/potential_scad_32_flow//YTHDC2/2024-12-06-03-22-00/
     RDKit          3D

 17 17  0  0  0  0  0  0  0  0999 V2000
    1.1787   -8.0297    3.5154 O   0  0  0  0  0  0  0  0  0  0  0  0
    0.6747   -7.4019    2.7838 C   0  0  0  0  0  0  0  0  0  0  0  0
    0.7594   -8.0032    1.4295 C   0  0  0  0  0  0  0  0  0  0  0  0
    0.3459   -9.1500    1.3581 C   0  0  0  0  0  0  0  0  0  0  0  0
   -0.4155   -9.6726    2.0240 C   0  0  0  0  0  0  0  0  0  0  0  0
   -0.0317  -10.8325    2.6657 C   0  0  0  0  0  0  0  0  0  0  0  0
    1.1427  -11.4689    2.2181 C   0  0  0  0  0  0  0  0  0  0  0  0
    1.9817  -10.9207    1.2505 C   0  0  0  0  0  0  0  0  0  0  0  0
    1.5970   -9.7197    0.7186 C   0  0  0  0  0  0  0  0  0  0  0  0
    1.9613   -9.3049   -0.4678 C   0  0  0  0  0  0  0  0  0  0  0  0
    1.2405   -9.0842   -1.5957 O   0  0  0  0  0  0  0  0  0  0  0  0
    3.2766   -9.0423   -0.7189 O   0  0  0  0  0  0  0  0  0  0  0  0
    0.4077   -6.2000    3.1161 O   0  0  0  0  0  0  0  0  0  0  0  0
   -0.8919  -11.6927    3.7777 C   0  0  0  0  0  0  0  0  0  0  0  0
   -0.9174  -13.0132    3.3891 C   0  0  0  0  0  0  0  0  0  0  0  0
   -2.0238  -13.5638    2.9703 C   0  0  0  0  0  0  0  0  0  0  0  0
   -3.2141  -12.7562    2.7686 C   0  0  0  0  0  0  0  0  0  0  0  0
  1  2  1  0
  2  3  1  0
  3  4  1  0
  9 10  1  0
 10 11  2  0
 10 12  1  0
  2 13  2  0
  6 14  1  0
 14 15  2  3
 15 16  1  0
 16 17  2  0
  4  5  2  0
  5  6  1  0
  6  7  2  0
  7  8  1  0
  8  9  2  0
  4  9  1  0
M  END

$$$$
No_1215-/export/home/yangzhenyu/potential_scad_32_flow//YTHDC2/2024-12-06-03-22-00/
     RDKit          3D

 17 18  0  0  1  0  0  0  0  0999 V2000
    1.1787   -8.0297    3.5154 F   0  0  0  0  0  0  0  0  0  0  0  0
    0.9085   -8.9213    2.9287 C   0  0  0  0  0  0  0  0  0  0  0  0
    0.9042   -8.7651    1.6474 C   0  0  0  0  0  0  0  0  0  0  0  0
    1.1632   -9.8140    0.8407 C   0  0  0  0  0  0  0  0  0  0  0  0
    1.5423  -10.9666    1.5748 C   0  0  0  0  0  0  0  0  0  0  0  0
    1.6223  -11.1756    2.7885 C   0  0  0  0  0  0  0  0  0  0  0  0
    1.4182   -9.9921    3.5362 C   0  0  0  0  0  0  0  0  0  0  0  0
    0.4147   -7.5999    1.0296 C   0  0  0  0  0  0  0  0  0  0  0  0
   -0.5237   -7.1615    0.9097 C   0  0  0  0  0  0  0  0  0  0  0  0
   -1.0261   -5.8889    0.4181 C   0  0  0  0  0  0  0  0  0  0  0  0
   -2.0505   -5.5797   -0.2496 N   0  0  0  0  0  0  0  0  0  0  0  0
   -0.1922   -4.8015    0.8060 O   0  0  0  0  0  0  0  0  0  0  0  0
    2.0721  -12.3182    3.4769 C   0  0  0  0  0  0  0  0  0  0  0  0
    1.6501  -13.4843    2.7579 O   0  0  0  0  0  0  0  0  0  0  0  0
   -0.5889   -3.6285    0.4074 C   0  0  1  0  0  0  0  0  0  0  0  0
   -1.8390   -4.1319   -0.2322 C   0  0  0  0  0  0  0  0  0  0  0  0
   -0.2961   -2.4265    0.7152 C   0  0  0  0  0  0  0  0  0  0  0  0
  1  2  1  0
  3  8  1  0
  8  9  2  3
  9 10  1  0
 10 11  2  0
 10 12  1  0
  6 13  1  0
 13 14  2  0
 12 15  1  0
 11 16  1  0
 15 16  1  0
 15 17  1  1
  2  3  2  0
  3  4  1  0
  4  5  2  0
  5  6  1  0
  6  7  2  0
  2  7  1  0
M  END

$$$$
No_1216-/export/home/yangzhenyu/potential_scad_32_flow//YTHDC2/2024-12-06-03-22-00/
     RDKit          3D

 17 18  0  0  1  0  0  0  0  0999 V2000
    1.1787   -8.0297    3.5154 C   0  0  0  0  0  0  0  0  0  0  0  0
    1.0491   -6.8434    2.9820 C   0  0  0  0  0  0  0  0  0  0  0  0
    0.9905   -9.0774    2.6527 C   0  0  0  0  0  0  0  0  0  0  0  0
    0.7897   -8.9519    1.3691 C   0  0  0  0  0  0  0  0  0  0  0  0
    0.7018   -7.7198    0.7892 C   0  0  0  0  0  0  0  0  0  0  0  0
    0.8918   -6.5957    1.6117 C   0  0  0  0  0  0  0  0  0  0  0  0
    1.0711  -10.4814    3.2282 C   0  0  2  0  0  0  0  0  0  0  0  0
    2.1432  -11.0138    3.5962 C   0  0  0  0  0  0  0  0  0  0  0  0
   -0.0553  -11.2345    3.2841 C   0  0  0  0  0  0  0  0  0  0  0  0
   -0.1131  -12.4857    3.1636 C   0  0  0  0  0  0  0  0  0  0  0  0
   -1.2897  -13.2411    2.9747 C   0  0  0  0  0  0  0  0  0  0  0  0
   -2.4924  -12.5760    3.0229 C   0  0  0  0  0  0  0  0  0  0  0  0
   -3.6665  -13.3821    2.9148 C   0  0  0  0  0  0  0  0  0  0  0  0
   -3.6369  -14.7218    2.7773 C   0  0  0  0  0  0  0  0  0  0  0  0
   -2.3923  -15.3257    2.6851 C   0  0  0  0  0  0  0  0  0  0  0  0
   -1.2016  -14.6092    2.8039 C   0  0  0  0  0  0  0  0  0  0  0  0
    0.8344   -5.2761    1.0963 C   0  0  0  0  0  0  0  0  0  0  0  0
  3  7  1  0
  7  8  1  6
  7  9  1  0
  9 10  2  3
 10 11  1  0
  6 17  1  0
 11 12  2  0
 12 13  1  0
 13 14  2  0
 14 15  1  0
 15 16  2  0
 11 16  1  0
  1  2  2  0
  2  6  1  0
  5  6  2  0
  4  5  1  0
  3  4  2  0
  1  3  1  0
M  END

$$$$
No_1217-/export/home/yangzhenyu/potential_scad_32_flow//YTHDC2/2024-12-06-03-22-00/
     RDKit          3D

 19 20  0  0  1  0  0  0  0  0999 V2000
    1.1787   -8.0297    3.5154 C   0  0  0  0  0  0  0  0  0  0  0  0
    1.1048   -9.2215    3.2892 C   0  0  0  0  0  0  0  0  0  0  0  0
    1.3627  -10.1721    4.3044 C   0  0  0  0  0  0  0  0  0  0  0  0
    1.0682  -11.5187    4.0618 C   0  0  0  0  0  0  0  0  0  0  0  0
    0.6332  -11.9655    2.9682 C   0  0  0  0  0  0  0  0  0  0  0  0
    0.4776  -11.1308    1.9203 C   0  0  0  0  0  0  0  0  0  0  0  0
    0.7470   -9.8274    2.0368 C   0  0  0  0  0  0  0  0  0  0  0  0
    1.0387   -7.0301    2.5175 N   0  0  0  0  0  0  0  0  0  0  0  0
    0.9298   -7.5514    1.2672 C   0  0  0  0  0  0  0  0  0  0  0  0
    0.7824   -8.7713    0.9713 C   0  0  2  0  0  0  0  0  0  0  0  0
    0.3633   -9.2077   -0.2511 F   0  0  0  0  0  0  0  0  0  0  0  0
    0.4534  -13.3775    2.6803 C   0  0  0  0  0  0  0  0  0  0  0  0
   -0.7073  -13.9298    2.3532 O   0  0  0  0  0  0  0  0  0  0  0  0
    1.3283  -14.3231    3.3007 O   0  0  0  0  0  0  0  0  0  0  0  0
    0.8263   -6.6756    0.2308 O   0  0  0  0  0  0  0  0  0  0  0  0
    1.7107  -15.4930    2.6059 C   0  0  1  0  0  0  0  0  0  0  0  0
    2.8047  -15.6805    2.0083 C   0  0  0  0  0  0  0  0  0  0  0  0
    0.7665  -16.5057    2.7554 C   0  0  0  0  0  0  0  0  0  0  0  0
    3.6798  -14.6220    1.7371 O   0  0  0  0  0  0  0  0  0  0  0  0
  1  2  1  0
  8  9  1  0
  7 10  1  0
  9 10  1  0
 10 11  1  1
  5 12  1  0
 12 13  2  0
 12 14  1  0
  9 15  2  0
 14 16  1  0
 16 17  1  0
 16 18  1  1
 17 19  2  0
  1  8  1  0
  2  3  2  0
  3  4  1  0
  4  5  2  0
  5  6  1  0
  6  7  2  0
  2  7  1  0
M  END

$$$$
No_1218-/export/home/yangzhenyu/potential_scad_32_flow//YTHDC2/2024-12-06-03-22-00/
     RDKit          3D

 19 20  0  0  0  0  0  0  0  0999 V2000
    1.1787   -8.0297    3.5154 C   0  0  0  0  0  0  0  0  0  0  0  0
    1.0491   -6.8434    2.9820 C   0  0  0  0  0  0  0  0  0  0  0  0
    0.9905   -9.0774    2.6527 C   0  0  0  0  0  0  0  0  0  0  0  0
    0.7897   -8.9519    1.3691 C   0  0  0  0  0  0  0  0  0  0  0  0
    0.7018   -7.7198    0.7892 C   0  0  0  0  0  0  0  0  0  0  0  0
    0.8918   -6.5957    1.6117 C   0  0  0  0  0  0  0  0  0  0  0  0
    1.0711  -10.4814    3.2282 C   0  0  0  0  0  0  0  0  0  0  0  0
    2.1432  -11.0138    3.5962 C   0  0  0  0  0  0  0  0  0  0  0  0
   -0.0553  -11.2345    3.2841 C   0  0  0  0  0  0  0  0  0  0  0  0
   -0.1131  -12.4857    3.1636 C   0  0  0  0  0  0  0  0  0  0  0  0
    1.1361  -13.1925    3.4825 C   0  0  0  0  0  0  0  0  0  0  0  0
    2.2643  -12.4364    3.7039 C   0  0  0  0  0  0  0  0  0  0  0  0
    0.8285   -5.2828    1.0964 O   0  0  0  0  0  0  0  0  0  0  0  0
    1.2118  -14.5654    3.5957 Cl  0  0  0  0  0  0  0  0  0  0  0  0
   -0.2586   -4.4672    1.2449 C   0  0  0  0  0  0  0  0  0  0  0  0
    0.6188  -10.0425    0.3781 C   0  0  0  0  0  0  0  0  0  0  0  0
   -0.4892  -10.2359   -0.1021 C   0  0  0  0  0  0  0  0  0  0  0  0
   -1.1131   -9.2393   -0.8908 C   0  0  0  0  0  0  0  0  0  0  0  0
   -2.2610   -8.7144   -0.6249 C   0  0  0  0  0  0  0  0  0  0  0  0
  3  7  1  0
  6 13  1  0
 11 14  1  0
 13 15  1  0
  4 16  1  0
 16 17  1  0
 17 18  1  0
 18 19  2  0
  1  2  2  0
  2  6  1  0
  5  6  2  0
  4  5  1  0
  3  4  2  0
  1  3  1  0
  7  8  2  0
  8 12  1  0
 11 12  2  0
 10 11  1  0
  9 10  2  0
  7  9  1  0
M  END

$$$$
No_1219-/export/home/yangzhenyu/potential_scad_32_flow//YTHDC2/2024-12-06-03-22-00/
     RDKit          3D

 18 20  0  0  0  0  0  0  0  0999 V2000
    1.1787   -8.0297    3.5154 C   0  0  0  0  0  0  0  0  0  0  0  0
    1.0491   -6.8434    2.9820 C   0  0  0  0  0  0  0  0  0  0  0  0
    0.0950   -8.8404    3.2292 C   0  0  0  0  0  0  0  0  0  0  0  0
   -0.9173   -8.4596    2.5152 C   0  0  0  0  0  0  0  0  0  0  0  0
   -1.0331   -7.2162    2.0653 C   0  0  0  0  0  0  0  0  0  0  0  0
   -0.0105   -6.3168    2.3081 C   0  0  0  0  0  0  0  0  0  0  0  0
    0.1465  -10.2446    3.6981 C   0  0  0  0  0  0  0  0  0  0  0  0
   -1.0337  -10.8619    3.9439 C   0  0  0  0  0  0  0  0  0  0  0  0
   -2.1702  -10.4673    3.2991 C   0  0  0  0  0  0  0  0  0  0  0  0
   -2.1358   -9.2084    2.5791 C   0  0  0  0  0  0  0  0  0  0  0  0
   -0.0407   -4.9560    1.8452 C   0  0  0  0  0  0  0  0  0  0  0  0
   -0.7987   -4.0992    2.2489 C   0  0  0  0  0  0  0  0  0  0  0  0
   -0.3173   -2.8760    2.6657 C   0  0  0  0  0  0  0  0  0  0  0  0
   -0.8238   -1.9750    3.4397 C   0  0  0  0  0  0  0  0  0  0  0  0
   -2.1543   -2.4443    3.9009 C   0  0  0  0  0  0  0  0  0  0  0  0
   -2.7829   -3.5004    3.5595 C   0  0  0  0  0  0  0  0  0  0  0  0
   -2.0786   -4.4301    2.7761 C   0  0  0  0  0  0  0  0  0  0  0  0
    1.2998  -10.7238    4.5505 O   0  0  0  0  0  0  0  0  0  0  0  0
  6 11  1  0
 11 12  1  0
  7 18  1  0
 12 13  2  0
 13 14  1  0
 14 15  2  0
 15 16  1  0
 16 17  2  0
 12 17  1  0
  4 10  2  0
  9 10  1  0
  8  9  2  0
  7  8  1  0
  3  7  2  0
  1  2  2  0
  2  6  1  0
  5  6  2  0
  4  5  1  0
  3  4  1  0
  1  3  1  0
M  END

$$$$
No_1220-/export/home/yangzhenyu/potential_scad_32_flow//YTHDC2/2024-12-06-03-22-00/
     RDKit          3D

 19 20  0  0  1  0  0  0  0  0999 V2000
    1.1787   -8.0297    3.5154 C   0  0  0  0  0  0  0  0  0  0  0  0
    1.0491   -6.8434    2.9820 C   0  0  0  0  0  0  0  0  0  0  0  0
    0.9905   -9.0774    2.6527 C   0  0  0  0  0  0  0  0  0  0  0  0
    0.7897   -8.9519    1.3691 C   0  0  0  0  0  0  0  0  0  0  0  0
    0.7018   -7.7198    0.7892 C   0  0  0  0  0  0  0  0  0  0  0  0
    0.8918   -6.5957    1.6117 C   0  0  0  0  0  0  0  0  0  0  0  0
    1.0774  -10.6059    3.3145 C   0  0  0  0  0  0  0  0  0  0  0  0
   -0.1032  -11.1934    3.4585 C   0  0  2  0  0  0  0  0  0  0  0  0
   -1.2292  -10.4461    3.8202 C   0  0  0  0  0  0  0  0  0  0  0  0
   -1.2824   -9.6328    4.9527 C   0  0  0  0  0  0  0  0  0  0  0  0
   -2.3466   -8.8188    5.2878 C   0  0  0  0  0  0  0  0  0  0  0  0
   -3.4133   -8.9099    4.5761 C   0  0  0  0  0  0  0  0  0  0  0  0
   -3.5080   -9.6451    3.4883 C   0  0  0  0  0  0  0  0  0  0  0  0
   -2.4510  -10.4626    3.0878 C   0  0  0  0  0  0  0  0  0  0  0  0
   -0.1171  -12.5009    3.4480 C   0  0  0  0  0  0  0  0  0  0  0  0
    1.0304  -13.2844    3.4791 C   0  0  0  0  0  0  0  0  0  0  0  0
    1.0319  -14.6627    3.0839 C   0  0  0  0  0  0  0  0  0  0  0  0
   -0.0077  -15.2806    2.6926 C   0  0  0  0  0  0  0  0  0  0  0  0
   -1.1214  -14.5801    2.4385 C   0  0  0  0  0  0  0  0  0  0  0  0
  3  7  1  0
  8  7  1  1
  8  9  1  0
  8 15  1  0
 15 16  1  0
 16 17  2  3
 17 18  1  0
 18 19  2  0
  1  2  2  0
  2  6  1  0
  5  6  2  0
  4  5  1  0
  3  4  2  0
  1  3  1  0
  9 10  2  0
 10 11  1  0
 11 12  2  0
 12 13  1  0
 13 14  2  0
  9 14  1  0
M  END

$$$$
No_1221-/export/home/yangzhenyu/potential_scad_32_flow//YTHDC2/2024-12-06-03-22-00/
     RDKit          3D

 20 20  0  0  1  0  0  0  0  0999 V2000
    1.1787   -8.0297    3.5154 Br  0  0  0  0  0  0  0  0  0  0  0  0
    0.6076   -7.9037    2.4936 C   0  0  1  0  0  0  0  0  0  0  0  0
    0.4933   -9.1121    1.6812 C   0  0  2  0  0  0  0  0  0  0  0  0
    0.6797  -10.2223    2.1055 O   0  0  0  0  0  0  0  0  0  0  0  0
   -0.3700   -6.8252    2.2545 C   0  0  0  0  0  0  0  0  0  0  0  0
   -1.6306   -7.0518    2.3296 C   0  0  0  0  0  0  0  0  0  0  0  0
   -2.1413   -7.6562    3.2937 O   0  0  0  0  0  0  0  0  0  0  0  0
   -0.3253  -10.9525    2.4445 C   0  0  0  0  0  0  0  0  0  0  0  0
   -0.2239  -12.1585    2.0970 C   0  0  0  0  0  0  0  0  0  0  0  0
   -1.2229  -13.0588    2.1854 C   0  0  0  0  0  0  0  0  0  0  0  0
   -2.4024  -12.5980    2.8711 C   0  0  0  0  0  0  0  0  0  0  0  0
   -2.4005  -11.2832    3.3911 C   0  0  0  0  0  0  0  0  0  0  0  0
   -1.2607  -10.4509    3.1021 C   0  0  0  0  0  0  0  0  0  0  0  0
   -2.3808   -7.0675    1.2452 O   0  0  0  0  0  0  0  0  0  0  0  0
    1.4936   -8.9697    0.3716 C   0  0  0  0  0  0  0  0  0  0  0  0
    2.5521   -9.2914    0.1529 C   0  0  0  0  0  0  0  0  0  0  0  0
    0.9410   -7.8765   -0.4714 O   0  0  0  0  0  0  0  0  0  0  0  0
    0.8915  -12.8499    1.4602 O   0  0  0  0  0  0  0  0  0  0  0  0
    1.2877  -14.0172    1.3946 C   0  0  0  0  0  0  0  0  0  0  0  0
    2.4521  -14.3749    2.1754 C   0  0  0  0  0  0  0  0  0  0  0  0
  2  1  1  1
  2  3  1  0
  3  4  1  1
  2  5  1  0
  5  6  1  0
  6  7  1  0
  4  8  1  0
  6 14  2  0
  3 15  1  0
 15 16  1  0
 15 17  2  0
  9 18  1  0
 18 19  1  0
 19 20  1  0
  8  9  2  0
  9 10  1  0
 10 11  2  0
 11 12  1  0
 12 13  2  0
  8 13  1  0
M  END

$$$$
No_1222-/export/home/yangzhenyu/potential_scad_32_flow//YTHDC2/2024-12-06-03-22-00/
     RDKit          3D

 19 21  0  0  0  0  0  0  0  0999 V2000
    1.1787   -8.0297    3.5154 C   0  0  0  0  0  0  0  0  0  0  0  0
    1.1048   -9.2215    3.2892 C   0  0  0  0  0  0  0  0  0  0  0  0
    1.3627  -10.1721    4.3044 C   0  0  0  0  0  0  0  0  0  0  0  0
    1.0682  -11.5187    4.0618 C   0  0  0  0  0  0  0  0  0  0  0  0
    0.6332  -11.9655    2.9682 C   0  0  0  0  0  0  0  0  0  0  0  0
    0.4776  -11.1308    1.9203 C   0  0  0  0  0  0  0  0  0  0  0  0
    0.7470   -9.8274    2.0368 C   0  0  0  0  0  0  0  0  0  0  0  0
    1.0387   -7.0301    2.5175 C   0  0  0  0  0  0  0  0  0  0  0  0
    0.9130   -7.5288    1.2013 C   0  0  0  0  0  0  0  0  0  0  0  0
    0.7893   -8.7979    0.9542 C   0  0  0  0  0  0  0  0  0  0  0  0
    0.5241   -9.2578   -0.2817 C   0  0  0  0  0  0  0  0  0  0  0  0
    1.2450   -9.2169   -1.2769 N   0  0  0  0  0  0  0  0  0  0  0  0
   -0.8363   -9.2928   -0.6404 O   0  0  0  0  0  0  0  0  0  0  0  0
    0.5023  -13.6320    2.6949 C   0  0  0  0  0  0  0  0  0  0  0  0
    1.5553  -14.3771    3.1455 C   0  0  0  0  0  0  0  0  0  0  0  0
    1.2868  -15.7519    2.8452 C   0  0  0  0  0  0  0  0  0  0  0  0
    0.3243  -16.2062    2.3088 C   0  0  0  0  0  0  0  0  0  0  0  0
   -0.6432  -15.3705    1.7992 C   0  0  0  0  0  0  0  0  0  0  0  0
   -0.5038  -14.0500    2.0631 C   0  0  0  0  0  0  0  0  0  0  0  0
 10 11  1  0
 11 12  1  0
 11 13  2  0
  5 14  1  0
  2  3  1  0
  3  4  2  0
  4  5  1  0
  5  6  2  0
  6  7  1  0
  1  2  2  0
  2  7  1  0
  7 10  2  0
  9 10  1  0
  8  9  2  0
  1  8  1  0
 14 15  2  0
 15 16  1  0
 16 17  2  0
 17 18  1  0
 18 19  2  0
 14 19  1  0
M  END

$$$$
No_1223-/export/home/yangzhenyu/potential_scad_32_flow//YTHDC2/2024-12-06-03-22-00/
     RDKit          3D

 19 20  0  0  1  0  0  0  0  0999 V2000
    1.1787   -8.0297    3.5154 N   0  0  0  0  0  0  0  0  0  0  0  0
    0.8669   -7.0905    2.8589 C   0  0  0  0  0  0  0  0  0  0  0  0
    1.0447   -7.3244    1.4123 C   0  0  0  0  0  0  0  0  0  0  0  0
    1.3746   -8.4389    1.0864 C   0  0  2  0  0  0  0  0  0  0  0  0
    1.6686   -9.1952    2.5608 C   0  0  0  0  0  0  0  0  0  0  0  0
    1.6471   -9.1228   -0.0034 C   0  0  0  0  0  0  0  0  0  0  0  0
    1.9678  -10.2893   -0.0536 O   0  0  0  0  0  0  0  0  0  0  0  0
    1.3642   -8.5662   -1.1139 O   0  0  0  0  0  0  0  0  0  0  0  0
    1.9355  -10.4596    2.8765 C   0  0  1  0  0  0  0  0  0  0  0  0
    2.1622  -10.7074    4.1579 C   0  0  0  0  0  0  0  0  0  0  0  0
    2.2174  -11.9419    4.4205 C   0  0  0  0  0  0  0  0  0  0  0  0
    1.8779  -12.8001    3.4172 O   0  0  0  0  0  0  0  0  0  0  0  0
    1.5302  -12.7253    2.3125 C   0  0  1  0  0  0  0  0  0  0  0  0
    1.5467  -11.3400    1.8970 C   0  0  0  0  0  0  0  0  0  0  0  0
    1.3283  -13.7080    1.5711 C   0  0  0  0  0  0  0  0  0  0  0  0
    0.5452  -13.6267    0.4798 C   0  0  0  0  0  0  0  0  0  0  0  0
    0.3226  -14.7071   -0.3656 C   0  0  0  0  0  0  0  0  0  0  0  0
    0.8231  -15.9001   -0.0460 C   0  0  0  0  0  0  0  0  0  0  0  0
    1.5849  -16.0773    1.0471 C   0  0  0  0  0  0  0  0  0  0  0  0
  1  2  1  0
  2  3  2  0
  3  4  1  0
  1  5  2  0
  4  5  1  0
  4  6  1  6
  6  7  2  0
  6  8  1  0
  9  5  1  1
  9 10  1  0
 10 11  2  0
 11 12  1  0
 12 13  1  0
  9 14  1  0
 13 14  1  0
 13 15  1  6
 15 16  1  0
 16 17  2  3
 17 18  1  0
 18 19  2  0
M  END

$$$$
No_1224-/export/home/yangzhenyu/potential_scad_32_flow//YTHDC2/2024-12-06-03-22-00/
     RDKit          3D

 19 20  0  0  0  0  0  0  0  0999 V2000
    1.1787   -8.0297    3.5154 N   0  0  0  0  0  0  0  0  0  0  0  0
    1.0818   -9.0751    3.2053 C   0  0  0  0  0  0  0  0  0  0  0  0
    1.5216  -10.1164    3.9747 C   0  0  0  0  0  0  0  0  0  0  0  0
    1.7081  -11.2538    3.6231 C   0  0  0  0  0  0  0  0  0  0  0  0
    1.1562  -11.7484    2.4887 C   0  0  0  0  0  0  0  0  0  0  0  0
    0.7100  -10.8403    1.6041 C   0  0  0  0  0  0  0  0  0  0  0  0
    0.7789   -9.5265    1.8874 C   0  0  0  0  0  0  0  0  0  0  0  0
    0.1186   -8.5802    1.0745 C   0  0  0  0  0  0  0  0  0  0  0  0
    0.5396   -8.4417   -0.1493 Cl  0  0  0  0  0  0  0  0  0  0  0  0
    1.2541  -13.1695    2.1125 C   0  0  0  0  0  0  0  0  0  0  0  0
    1.8900  -14.0618    2.8938 C   0  0  0  0  0  0  0  0  0  0  0  0
    1.7472  -15.4171    2.5133 C   0  0  0  0  0  0  0  0  0  0  0  0
    1.2118  -15.8784    1.5133 C   0  0  0  0  0  0  0  0  0  0  0  0
    0.6101  -14.9722    0.6765 C   0  0  0  0  0  0  0  0  0  0  0  0
    0.6204  -13.5712    0.9932 C   0  0  0  0  0  0  0  0  0  0  0  0
   -0.9253   -7.8475    1.5627 C   0  0  0  0  0  0  0  0  0  0  0  0
   -0.8253   -6.4361    1.4638 N   0  0  0  0  0  0  0  0  0  0  0  0
    0.3734   -5.7433    1.8091 C   0  0  0  0  0  0  0  0  0  0  0  0
    0.4533   -4.3614    1.6120 C   0  0  0  0  0  0  0  0  0  0  0  0
  1  2  1  0
  7  8  1  0
  8  9  1  0
  5 10  1  0
  8 16  1  0
 16 17  1  0
 17 18  1  0
 18 19  1  0
  2  3  2  0
  3  4  1  0
  4  5  2  0
  5  6  1  0
  6  7  2  0
  2  7  1  0
 10 11  2  0
 11 12  1  0
 12 13  2  0
 13 14  1  0
 14 15  2  0
 10 15  1  0
M  END

$$$$
No_1225-/export/home/yangzhenyu/potential_scad_32_flow//YTHDC2/2024-12-06-03-22-00/
     RDKit          3D

 18 20  0  0  1  0  0  0  0  0999 V2000
    1.1787   -8.0297    3.5154 C   0  0  0  0  0  0  0  0  0  0  0  0
    1.1048   -9.2215    3.2892 C   0  0  0  0  0  0  0  0  0  0  0  0
    1.3627  -10.1721    4.3044 C   0  0  0  0  0  0  0  0  0  0  0  0
    1.0682  -11.5187    4.0618 C   0  0  0  0  0  0  0  0  0  0  0  0
    0.6332  -11.9655    2.9682 C   0  0  2  0  0  0  0  0  0  0  0  0
    0.4719  -13.4293    2.7591 C   0  0  0  0  0  0  0  0  0  0  0  0
    1.3208  -14.3288    3.3604 C   0  0  0  0  0  0  0  0  0  0  0  0
    0.7459   -7.1093    2.4923 C   0  0  0  0  0  0  0  0  0  0  0  0
    0.2742   -7.5013    1.3750 C   0  0  0  0  0  0  0  0  0  0  0  0
    0.2016   -8.8240    1.0888 C   0  0  0  0  0  0  0  0  0  0  0  0
    0.6516   -9.8000    2.0275 C   0  0  0  0  0  0  0  0  0  0  0  0
    0.3988  -11.0989    1.8796 C   0  0  0  0  0  0  0  0  0  0  0  0
    1.1091  -15.7175    3.1109 C   0  0  0  0  0  0  0  0  0  0  0  0
    0.1074  -16.1452    2.4447 C   0  0  0  0  0  0  0  0  0  0  0  0
   -0.6414  -14.8186    1.9707 C   0  0  0  0  0  0  0  0  0  0  0  0
   -0.5084  -13.7733    2.0494 C   0  0  0  0  0  0  0  0  0  0  0  0
    0.9849   -5.3340    2.7153 N   0  0  0  0  0  0  0  0  0  0  0  0
    0.0051  -11.5091    0.7076 O   0  0  0  0  0  0  0  0  0  0  0  0
  2  3  1  0
  4  5  1  0
  5  6  1  6
  5 12  1  0
 11 12  1  0
  8 17  1  0
 12 18  2  0
  3  4  1  0
  1  2  2  0
  2 11  1  0
 10 11  2  0
  9 10  1  0
  8  9  2  0
  1  8  1  0
  6  7  2  0
  7 13  1  0
 13 14  2  0
 14 15  1  0
 15 16  2  0
  6 16  1  0
M  END

$$$$
No_1226-/export/home/yangzhenyu/potential_scad_32_flow//YTHDC2/2024-12-06-03-22-00/
     RDKit          3D

 16 17  0  0  1  0  0  0  0  0999 V2000
    1.1787   -8.0297    3.5154 C   0  0  0  0  0  0  0  0  0  0  0  0
    1.1048   -9.2215    3.2892 C   0  0  0  0  0  0  0  0  0  0  0  0
    1.3627  -10.1721    4.3044 C   0  0  0  0  0  0  0  0  0  0  0  0
    1.7354  -11.4730    3.9023 C   0  0  0  0  0  0  0  0  0  0  0  0
    1.6166  -11.5515    2.5159 C   0  0  0  0  0  0  0  0  0  0  0  0
    1.4172  -10.6242    1.6178 C   0  0  0  0  0  0  0  0  0  0  0  0
    1.2598   -9.4423    1.9811 C   0  0  0  0  0  0  0  0  0  0  0  0
    0.9744   -6.9065    2.9175 C   0  0  2  0  0  0  0  0  0  0  0  0
    1.1914   -7.2052    1.4248 C   0  0  0  0  0  0  0  0  0  0  0  0
    1.3358   -8.3886    1.0074 C   0  0  0  0  0  0  0  0  0  0  0  0
    1.4073   -8.6300   -0.3442 O   0  0  0  0  0  0  0  0  0  0  0  0
    1.8607  -13.0563    2.0674 O   0  0  0  0  0  0  0  0  0  0  0  0
    1.0665   -5.5529    3.2579 C   0  0  0  0  0  0  0  0  0  0  0  0
    1.7883  -14.1069    2.8706 C   0  0  0  0  0  0  0  0  0  0  0  0
    0.2903   -4.5721    2.7543 C   0  0  0  0  0  0  0  0  0  0  0  0
    0.7746   -3.3369    2.5779 C   0  0  0  0  0  0  0  0  0  0  0  0
  1  2  1  0
  8  9  1  0
  7 10  1  0
  9 10  1  0
 10 11  2  0
  5 12  1  0
  8 13  1  1
 12 14  1  0
 13 15  1  0
 15 16  2  0
  1  8  1  0
  2  3  2  0
  3  4  1  0
  4  5  2  0
  5  6  1  0
  6  7  2  0
  2  7  1  0
M  END

$$$$
No_1227-/export/home/yangzhenyu/potential_scad_32_flow//YTHDC2/2024-12-06-03-22-00/
     RDKit          3D

 17 17  0  0  0  0  0  0  0  0999 V2000
    1.1787   -8.0297    3.5154 N   0  0  0  0  0  0  0  0  0  0  0  0
    0.8669   -7.0905    2.8589 C   0  0  0  0  0  0  0  0  0  0  0  0
    1.0447   -7.3244    1.4123 C   0  0  0  0  0  0  0  0  0  0  0  0
    1.3746   -8.4389    1.0864 C   0  0  0  0  0  0  0  0  0  0  0  0
    1.8493   -9.4093    1.8124 C   0  0  0  0  0  0  0  0  0  0  0  0
    1.7421   -9.2119    3.1541 C   0  0  0  0  0  0  0  0  0  0  0  0
    2.0083  -10.3048    4.0591 C   0  0  0  0  0  0  0  0  0  0  0  0
    1.2724  -11.3673    4.2581 O   0  0  0  0  0  0  0  0  0  0  0  0
    3.1606  -10.3082    4.8116 O   0  0  0  0  0  0  0  0  0  0  0  0
    1.6853   -8.6495   -0.4213 C   0  0  0  0  0  0  0  0  0  0  0  0
    2.8431   -8.9384   -0.9452 O   0  0  0  0  0  0  0  0  0  0  0  0
    0.7196   -8.7375   -1.2659 O   0  0  0  0  0  0  0  0  0  0  0  0
    0.4779   -5.8613    3.3294 C   0  0  0  0  0  0  0  0  0  0  0  0
    0.5751   -4.6778    2.5600 C   0  0  0  0  0  0  0  0  0  0  0  0
   -0.2919   -4.3790    1.7465 C   0  0  0  0  0  0  0  0  0  0  0  0
   -1.6247   -4.6384    1.9967 C   0  0  0  0  0  0  0  0  0  0  0  0
   -2.5344   -4.0890    1.2361 C   0  0  0  0  0  0  0  0  0  0  0  0
  6  7  1  0
  7  8  1  0
  7  9  2  0
  4 10  1  0
 10 11  2  0
 10 12  1  0
  2 13  1  0
 13 14  1  0
 14 15  1  0
 15 16  1  0
 16 17  2  0
  1  2  2  0
  2  3  1  0
  3  4  2  0
  4  5  1  0
  5  6  2  0
  1  6  1  0
M  END

$$$$
No_1228-/export/home/yangzhenyu/potential_scad_32_flow//YTHDC2/2024-12-06-03-22-00/
     RDKit          3D

 20 22  0  0  0  0  0  0  0  0999 V2000
    1.1787   -8.0297    3.5154 C   0  0  0  0  0  0  0  0  0  0  0  0
    1.1048   -9.2215    3.2892 C   0  0  0  0  0  0  0  0  0  0  0  0
    1.3627  -10.1721    4.3044 C   0  0  0  0  0  0  0  0  0  0  0  0
    1.7354  -11.4730    3.9023 C   0  0  0  0  0  0  0  0  0  0  0  0
    1.8080  -11.8127    2.7216 C   0  0  0  0  0  0  0  0  0  0  0  0
    1.5854  -11.0021    1.7249 C   0  0  0  0  0  0  0  0  0  0  0  0
    1.3573   -9.7389    1.9287 C   0  0  0  0  0  0  0  0  0  0  0  0
    1.1102   -8.8712    0.9017 C   0  0  0  0  0  0  0  0  0  0  0  0
    1.5724   -9.1697   -0.3048 N   0  0  0  0  0  0  0  0  0  0  0  0
    0.7795   -7.5431    1.0155 N   0  0  0  0  0  0  0  0  0  0  0  0
    0.8141   -7.0679    2.3654 C   0  0  0  0  0  0  0  0  0  0  0  0
    0.6071   -5.6250    2.5006 C   0  0  0  0  0  0  0  0  0  0  0  0
    2.0791  -13.2174    2.3744 C   0  0  0  0  0  0  0  0  0  0  0  0
    1.9012  -14.2420    3.1182 C   0  0  0  0  0  0  0  0  0  0  0  0
    1.3875  -15.4291    2.3990 C   0  0  0  0  0  0  0  0  0  0  0  0
    2.0682  -16.4867    2.5769 C   0  0  0  0  0  0  0  0  0  0  0  0
    2.0315  -17.4331    2.2099 N   0  0  0  0  0  0  0  0  0  0  0  0
    0.2156  -15.1491    1.8888 C   0  0  0  0  0  0  0  0  0  0  0  0
   -0.1010  -16.0184    0.8032 C   0  0  0  0  0  0  0  0  0  0  0  0
    0.7647  -17.3273    0.9267 C   0  0  0  0  0  0  0  0  0  0  0  0
 11 12  1  0
  5 13  1  0
 13 14  1  0
 14 15  1  0
  8  9  1  0
 15 16  2  0
 16 17  1  0
 17 20  2  0
 19 20  1  0
 18 19  2  0
 15 18  1  0
  2  3  1  0
  3  4  2  0
  4  5  1  0
  5  6  2  0
  6  7  1  0
  1  2  2  0
  2  7  1  0
  7  8  2  0
  8 10  1  0
 10 11  2  0
  1 11  1  0
M  END

$$$$
No_1229-/export/home/yangzhenyu/potential_scad_32_flow//YTHDC2/2024-12-06-03-22-00/
     RDKit          3D

 19 20  0  0  1  0  0  0  0  0999 V2000
    1.1787   -8.0297    3.5154 C   0  0  0  0  0  0  0  0  0  0  0  0
    1.0491   -6.8434    2.9820 C   0  0  0  0  0  0  0  0  0  0  0  0
    0.0950   -8.8404    3.2292 C   0  0  0  0  0  0  0  0  0  0  0  0
   -0.9173   -8.4596    2.5152 C   0  0  0  0  0  0  0  0  0  0  0  0
   -1.0331   -7.2162    2.0653 C   0  0  0  0  0  0  0  0  0  0  0  0
   -0.0105   -6.3168    2.3081 C   0  0  0  0  0  0  0  0  0  0  0  0
    0.1150   -4.9910    1.8495 C   0  0  0  0  0  0  0  0  0  0  0  0
    0.9121   -4.1017    2.4010 C   0  0  0  0  0  0  0  0  0  0  0  0
    0.1664  -10.4347    3.7466 C   0  0  0  0  0  0  0  0  0  0  0  0
    0.3735  -11.4589    2.8396 C   0  0  1  0  0  0  0  0  0  0  0  0
    1.2964  -12.4104    3.1846 C   0  0  0  0  0  0  0  0  0  0  0  0
    1.4026  -13.4264    2.6943 C   0  0  0  0  0  0  0  0  0  0  0  0
    0.7845  -13.8680    1.6244 C   0  0  0  0  0  0  0  0  0  0  0  0
   -0.0687  -12.9668    1.0426 C   0  0  0  0  0  0  0  0  0  0  0  0
   -0.2567  -11.7325    1.6736 C   0  0  0  0  0  0  0  0  0  0  0  0
   -0.5407   -4.5555    0.6907 O   0  0  0  0  0  0  0  0  0  0  0  0
   -1.1514  -10.8132    1.1539 O   0  0  0  0  0  0  0  0  0  0  0  0
    2.3860  -14.5105    3.1939 C   0  0  0  0  0  0  0  0  0  0  0  0
    2.9794  -15.3599    2.2862 O   0  0  0  0  0  0  0  0  0  0  0  0
  6  7  1  0
  7  8  2  0
  3  9  1  0
 10  9  1  1
 10 11  1  0
 12 13  1  0
 10 15  1  0
 14 15  1  0
  7 16  1  0
 15 17  2  0
 12 18  1  0
 18 19  2  0
 11 12  1  0
 13 14  1  0
  1  2  2  0
  2  6  1  0
  5  6  2  0
  4  5  1  0
  3  4  2  0
  1  3  1  0
M  END

$$$$
No_1230-/export/home/yangzhenyu/potential_scad_32_flow//YTHDC2/2024-12-06-03-22-00/
     RDKit          3D

 17 18  0  0  0  0  0  0  0  0999 V2000
    1.1787   -8.0297    3.5154 C   0  0  0  0  0  0  0  0  0  0  0  0
    1.0491   -6.8434    2.9820 C   0  0  0  0  0  0  0  0  0  0  0  0
    0.2462   -8.9560    3.0873 C   0  0  0  0  0  0  0  0  0  0  0  0
    0.3295   -6.5187    1.9069 C   0  0  0  0  0  0  0  0  0  0  0  0
   -0.5260   -8.7862    2.1368 C   0  0  0  0  0  0  0  0  0  0  0  0
   -0.5458   -7.5614    1.5054 C   0  0  0  0  0  0  0  0  0  0  0  0
    0.3636   -5.3203    1.2895 C   0  0  0  0  0  0  0  0  0  0  0  0
    1.2843   -4.3993    1.8232 Cl  0  0  0  0  0  0  0  0  0  0  0  0
    0.2969  -10.3274    3.6646 O   0  0  0  0  0  0  0  0  0  0  0  0
   -0.5494  -11.2942    3.4600 C   0  0  0  0  0  0  0  0  0  0  0  0
    0.1633  -12.4366    3.1666 C   0  0  0  0  0  0  0  0  0  0  0  0
   -0.4068  -13.5844    2.7088 C   0  0  0  0  0  0  0  0  0  0  0  0
   -1.7279  -13.6060    2.5754 C   0  0  0  0  0  0  0  0  0  0  0  0
   -2.4566  -12.5094    2.8490 C   0  0  0  0  0  0  0  0  0  0  0  0
   -1.8491  -11.3671    3.3897 C   0  0  0  0  0  0  0  0  0  0  0  0
   -0.4342   -4.8934    0.4024 O   0  0  0  0  0  0  0  0  0  0  0  0
    1.6639  -12.4338    3.1991 N   0  0  0  0  0  0  0  0  0  0  0  0
  4  7  1  0
  7  8  1  0
  3  9  1  0
  9 10  1  0
  7 16  2  0
 11 17  1  0
  1  2  2  0
  2  4  1  0
  4  6  2  0
  5  6  1  0
  3  5  2  0
  1  3  1  0
 10 11  2  0
 11 12  1  0
 12 13  2  0
 13 14  1  0
 14 15  2  0
 10 15  1  0
M  END

$$$$
No_1231-/export/home/yangzhenyu/potential_scad_32_flow//YTHDC2/2024-12-06-03-22-00/
     RDKit          3D

 18 18  0  0  1  0  0  0  0  0999 V2000
    1.1787   -8.0297    3.5154 N   0  0  0  0  0  0  0  0  0  0  0  0
    0.8669   -7.0905    2.8589 C   0  0  1  0  0  0  0  0  0  0  0  0
    0.8842   -5.8387    3.2677 N   0  0  0  0  0  0  0  0  0  0  0  0
    0.7046   -7.3396    1.4853 C   0  0  0  0  0  0  0  0  0  0  0  0
    1.3141   -9.3038    3.0097 C   0  0  0  0  0  0  0  0  0  0  0  0
    1.1146   -9.5822    1.7111 C   0  0  0  0  0  0  0  0  0  0  0  0
    0.7727   -8.5907    0.9223 C   0  0  0  0  0  0  0  0  0  0  0  0
    1.7128  -10.4117    4.0165 C   0  0  0  0  0  0  0  0  0  0  0  0
    0.4047   -6.2744    0.6475 O   0  0  0  0  0  0  0  0  0  0  0  0
    1.0047  -11.6364    4.0213 C   0  0  0  0  0  0  0  0  0  0  0  0
    1.5999  -12.8074    3.6849 F   0  0  0  0  0  0  0  0  0  0  0  0
   -0.1415  -11.7265    4.2362 F   0  0  0  0  0  0  0  0  0  0  0  0
    0.5468   -8.8837   -0.4575 C   0  0  1  0  0  0  0  0  0  0  0  0
    1.2071   -8.9414   -1.3124 C   0  0  0  0  0  0  0  0  0  0  0  0
    2.7047   -9.0733   -0.9027 O   0  0  0  0  0  0  0  0  0  0  0  0
    1.2021   -8.6332   -2.4210 O   0  0  0  0  0  0  0  0  0  0  0  0
   -0.8511   -9.2547   -0.7278 C   0  0  0  0  0  0  0  0  0  0  0  0
   -1.3903  -10.5683   -0.6265 C   0  0  0  0  0  0  0  0  0  0  0  0
  1  2  1  0
  2  3  1  6
  2  4  1  0
  5  6  1  0
  4  7  1  0
  5  8  1  0
  4  9  2  0
  8 10  1  0
 10 11  1  0
 10 12  1  0
  7 13  1  0
 13 14  1  0
 14 15  1  0
 14 16  2  0
 13 17  1  1
 17 18  1  0
  1  5  1  0
  6  7  1  0
M  END

$$$$
No_1232-/export/home/yangzhenyu/potential_scad_32_flow//YTHDC2/2024-12-06-03-22-00/
     RDKit          3D

 17 18  0  0  0  0  0  0  0  0999 V2000
    1.1787   -8.0297    3.5154 C   0  0  0  0  0  0  0  0  0  0  0  0
    1.0491   -6.8434    2.9820 C   0  0  0  0  0  0  0  0  0  0  0  0
    0.0950   -8.8404    3.2292 C   0  0  0  0  0  0  0  0  0  0  0  0
   -0.7663   -8.2602    2.4375 C   0  0  0  0  0  0  0  0  0  0  0  0
   -0.3589   -6.8665    2.1913 C   0  0  0  0  0  0  0  0  0  0  0  0
    0.1214  -10.2270    3.6107 C   0  0  0  0  0  0  0  0  0  0  0  0
   -1.1913  -10.7825    3.7861 C   0  0  0  0  0  0  0  0  0  0  0  0
   -2.2062  -10.1833    3.0044 C   0  0  0  0  0  0  0  0  0  0  0  0
   -2.0042   -8.8611    2.5169 C   0  0  0  0  0  0  0  0  0  0  0  0
   -0.8393   -5.8979    1.6008 C   0  0  0  0  0  0  0  0  0  0  0  0
   -0.4482   -4.5869    1.6825 C   0  0  0  0  0  0  0  0  0  0  0  0
   -1.0134   -3.4448    1.0914 C   0  0  0  0  0  0  0  0  0  0  0  0
   -0.4289   -2.2432    1.1545 C   0  0  0  0  0  0  0  0  0  0  0  0
   -0.9460   -1.3343    0.4141 C   0  0  0  0  0  0  0  0  0  0  0  0
   -0.3187   -0.0820    0.2779 C   0  0  0  0  0  0  0  0  0  0  0  0
    1.1251  -10.7686    4.5138 C   0  0  0  0  0  0  0  0  0  0  0  0
    2.0575  -11.5194    3.6655 C   0  0  0  0  0  0  0  0  0  0  0  0
  1  2  1  0
  2  5  1  0
  4  5  1  0
  5 10  1  0
 10 11  2  3
 11 12  1  0
 12 13  2  3
 13 14  1  0
 14 15  1  0
  6 16  1  0
 16 17  1  0
  1  3  1  0
  3  4  2  0
  4  9  1  0
  8  9  2  0
  7  8  1  0
  6  7  2  0
  3  6  1  0
M  END

$$$$
No_1233-/export/home/yangzhenyu/potential_scad_32_flow//YTHDC2/2024-12-06-03-22-00/
     RDKit          3D

 18 18  0  0  0  0  0  0  0  0999 V2000
    1.1787   -8.0297    3.5154 C   0  0  0  0  0  0  0  0  0  0  0  0
    1.1048   -9.2215    3.2892 C   0  0  0  0  0  0  0  0  0  0  0  0
    1.2339   -9.7611    2.0189 C   0  0  0  0  0  0  0  0  0  0  0  0
    1.3583   -9.0036    0.9764 C   0  0  0  0  0  0  0  0  0  0  0  0
    1.5996   -7.6362    1.1311 C   0  0  0  0  0  0  0  0  0  0  0  0
    1.4830   -7.0928    2.3626 C   0  0  0  0  0  0  0  0  0  0  0  0
    1.4898   -5.7274    2.6199 C   0  0  0  0  0  0  0  0  0  0  0  0
    1.1681  -11.2222    1.8390 C   0  0  0  0  0  0  0  0  0  0  0  0
    0.5014  -11.9760    2.2068 C   0  0  0  0  0  0  0  0  0  0  0  0
    0.4167  -13.3685    2.0527 C   0  0  0  0  0  0  0  0  0  0  0  0
    1.5984  -14.1574    2.4634 C   0  0  0  0  0  0  0  0  0  0  0  0
    1.8090  -15.4261    2.0928 C   0  0  0  0  0  0  0  0  0  0  0  0
    3.0163  -15.8353    1.7346 O   0  0  0  0  0  0  0  0  0  0  0  0
    0.9378  -16.3356    1.9395 O   0  0  0  0  0  0  0  0  0  0  0  0
    1.2511   -4.8471    1.6239 O   0  0  0  0  0  0  0  0  0  0  0  0
    1.7554   -5.1416    3.7743 O   0  0  0  0  0  0  0  0  0  0  0  0
   -0.6532  -14.0704    1.5893 C   0  0  0  0  0  0  0  0  0  0  0  0
   -1.6444  -13.4889    1.2142 C   0  0  0  0  0  0  0  0  0  0  0  0
  6  7  1  0
  3  8  1  0
  8  9  2  3
  9 10  1  0
 10 11  1  0
 11 12  1  0
 12 13  2  0
 12 14  1  0
  7 15  1  0
  7 16  2  0
 10 17  1  0
 17 18  2  0
  1  2  2  0
  2  3  1  0
  3  4  2  0
  4  5  1  0
  5  6  2  0
  1  6  1  0
M  END

$$$$
No_1234-/export/home/yangzhenyu/potential_scad_32_flow//YTHDC2/2024-12-06-03-22-00/
     RDKit          3D

 20 21  0  0  1  0  0  0  0  0999 V2000
    1.1787   -8.0297    3.5154 C   0  0  0  0  0  0  0  0  0  0  0  0
    1.1048   -9.2215    3.2892 C   0  0  0  0  0  0  0  0  0  0  0  0
    1.2339   -9.7611    2.0189 C   0  0  0  0  0  0  0  0  0  0  0  0
    1.3583   -9.0036    0.9764 C   0  0  0  0  0  0  0  0  0  0  0  0
    1.5996   -7.6362    1.1311 C   0  0  0  0  0  0  0  0  0  0  0  0
    1.4830   -7.0928    2.3626 C   0  0  0  0  0  0  0  0  0  0  0  0
    1.4898   -5.7274    2.6199 C   0  0  0  0  0  0  0  0  0  0  0  0
    1.1681  -11.2222    1.8390 C   0  0  1  0  0  0  0  0  0  0  0  0
    0.7145  -11.5870    0.5424 C   0  0  0  0  0  0  0  0  0  0  0  0
   -0.5241  -12.2512    0.6171 C   0  0  0  0  0  0  0  0  0  0  0  0
   -1.4902  -11.7454   -0.0207 C   0  0  0  0  0  0  0  0  0  0  0  0
   -2.6958  -12.2701   -0.0953 N   0  0  0  0  0  0  0  0  0  0  0  0
   -2.5605  -13.3692    0.6669 C   0  0  0  0  0  0  0  0  0  0  0  0
   -1.1234  -13.3232    1.0989 C   0  0  0  0  0  0  0  0  0  0  0  0
    1.2459   -4.8583    1.6292 O   0  0  0  0  0  0  0  0  0  0  0  0
    1.7671   -5.1422    3.8002 O   0  0  0  0  0  0  0  0  0  0  0  0
    1.8876  -11.9331    2.7089 C   0  0  0  0  0  0  0  0  0  0  0  0
    1.9520  -13.3498    2.5111 C   0  0  0  0  0  0  0  0  0  0  0  0
    1.1588  -14.0393    3.5828 C   0  0  0  0  0  0  0  0  0  0  0  0
    1.1336  -15.4885    3.3851 C   0  0  0  0  0  0  0  0  0  0  0  0
  6  7  1  0
  3  8  1  0
  8  9  1  6
  9 10  1  0
 10 11  1  0
 11 12  2  0
 12 13  1  0
 10 14  1  0
 13 14  2  0
  7 15  2  0
  7 16  1  0
  8 17  1  0
 17 18  1  0
 18 19  1  0
 19 20  2  0
  1  2  2  0
  2  3  1  0
  3  4  2  0
  4  5  1  0
  5  6  2  0
  1  6  1  0
M  END

$$$$
No_1235-/export/home/yangzhenyu/potential_scad_32_flow//YTHDC2/2024-12-06-03-22-00/
     RDKit          3D

 18 19  0  0  0  0  0  0  0  0999 V2000
    1.1787   -8.0297    3.5154 N   0  0  0  0  0  0  0  0  0  0  0  0
    0.8669   -7.0905    2.8589 C   0  0  0  0  0  0  0  0  0  0  0  0
    0.8842   -5.8387    3.2677 C   0  0  0  0  0  0  0  0  0  0  0  0
    1.2819   -9.4050    3.1259 C   0  0  0  0  0  0  0  0  0  0  0  0
    0.9577   -9.7285    2.0210 C   0  0  0  0  0  0  0  0  0  0  0  0
    1.0265  -11.1674    1.6491 C   0  0  0  0  0  0  0  0  0  0  0  0
    2.1770  -11.9041    1.9567 C   0  0  0  0  0  0  0  0  0  0  0  0
    1.9323  -13.3662    1.6448 C   0  0  0  0  0  0  0  0  0  0  0  0
    1.0587  -13.7652    0.8241 C   0  0  0  0  0  0  0  0  0  0  0  0
    0.0440  -12.9450    0.3595 C   0  0  0  0  0  0  0  0  0  0  0  0
    0.0293  -11.5725    0.7653 C   0  0  0  0  0  0  0  0  0  0  0  0
    0.7167   -8.6498    1.0239 C   0  0  0  0  0  0  0  0  0  0  0  0
    0.6756   -7.3414    1.4498 C   0  0  0  0  0  0  0  0  0  0  0  0
   -0.1466   -4.9759    2.8666 C   0  0  0  0  0  0  0  0  0  0  0  0
   -0.0842   -3.5901    3.2668 C   0  0  0  0  0  0  0  0  0  0  0  0
   -0.9657  -10.7958    0.3993 C   0  0  0  0  0  0  0  0  0  0  0  0
   -2.0531  -10.6393    1.1801 N   0  0  0  0  0  0  0  0  0  0  0  0
   -3.1785  -10.5433    0.8368 C   0  0  0  0  0  0  0  0  0  0  0  0
  2  3  1  0
  5  6  1  0
  3 14  2  3
 14 15  1  0
 11 16  1  0
 16 17  1  0
 17 18  2  0
  1  2  2  0
  2 13  1  0
 12 13  2  0
  5 12  1  0
  4  5  2  0
  1  4  1  0
  6  7  2  0
  7  8  1  0
  8  9  2  0
  9 10  1  0
 10 11  2  0
  6 11  1  0
M  END

$$$$
No_1236-/export/home/yangzhenyu/potential_scad_32_flow//YTHDC2/2024-12-06-03-22-00/
     RDKit          3D

 17 19  0  0  0  0  0  0  0  0999 V2000
    1.1787   -8.0297    3.5154 C   0  0  0  0  0  0  0  0  0  0  0  0
    1.1048   -9.2215    3.2892 C   0  0  0  0  0  0  0  0  0  0  0  0
    1.0240   -9.7790    2.0239 C   0  0  0  0  0  0  0  0  0  0  0  0
    1.1393   -9.0211    0.9686 C   0  0  0  0  0  0  0  0  0  0  0  0
    1.4051   -7.6500    1.1251 C   0  0  0  0  0  0  0  0  0  0  0  0
    1.4868   -7.1041    2.3534 C   0  0  0  0  0  0  0  0  0  0  0  0
    0.9659  -10.1420    4.4543 N   0  0  0  0  0  0  0  0  0  0  0  0
    0.8191  -11.6048    4.1298 C   0  0  0  0  0  0  0  0  0  0  0  0
    0.8393  -12.0499    2.9535 C   0  0  0  0  0  0  0  0  0  0  0  0
    0.9846  -11.1972    1.8690 C   0  0  0  0  0  0  0  0  0  0  0  0
    0.7972  -13.6755    2.7891 C   0  0  0  0  0  0  0  0  0  0  0  0
    1.1591  -14.1814    1.6842 C   0  0  0  0  0  0  0  0  0  0  0  0
    0.6976  -15.0467    1.1083 C   0  0  0  0  0  0  0  0  0  0  0  0
   -0.0667  -16.0110    1.8245 C   0  0  0  0  0  0  0  0  0  0  0  0
   -0.5192  -15.4523    3.1563 C   0  0  0  0  0  0  0  0  0  0  0  0
   -0.0104  -14.3282    3.6206 C   0  0  0  0  0  0  0  0  0  0  0  0
    1.1642   -9.4694   -0.3425 C   0  0  0  0  0  0  0  0  0  0  0  0
  9 11  1  0
  4 17  1  0
 11 12  2  0
 12 13  1  0
 13 14  2  0
 14 15  1  0
 15 16  2  0
 11 16  1  0
  1  2  2  0
  3  4  2  0
  4  5  1  0
  5  6  2  0
  1  6  1  0
  2  3  1  0
  3 10  1  0
  9 10  2  0
  8  9  1  0
  7  8  2  0
  2  7  1  0
M  END

$$$$
No_1237-/export/home/yangzhenyu/potential_scad_32_flow//YTHDC2/2024-12-06-03-22-00/
     RDKit          3D

 16 16  0  0  0  0  0  0  0  0999 V2000
    1.1787   -8.0297    3.5154 C   0  0  0  0  0  0  0  0  0  0  0  0
    1.1048   -9.2215    3.2892 C   0  0  0  0  0  0  0  0  0  0  0  0
    1.2339   -9.7611    2.0189 C   0  0  0  0  0  0  0  0  0  0  0  0
    1.3583   -9.0036    0.9764 C   0  0  0  0  0  0  0  0  0  0  0  0
    1.5996   -7.6362    1.1311 C   0  0  0  0  0  0  0  0  0  0  0  0
    1.4830   -7.0928    2.3626 C   0  0  0  0  0  0  0  0  0  0  0  0
    1.1008  -11.2372    1.8542 C   0  0  0  0  0  0  0  0  0  0  0  0
    0.5178  -11.9759    2.3445 C   0  0  0  0  0  0  0  0  0  0  0  0
    0.4575  -13.3705    2.1281 C   0  0  0  0  0  0  0  0  0  0  0  0
    1.3993  -14.2795    2.9783 C   0  0  0  0  0  0  0  0  0  0  0  0
    1.3982  -15.5837    2.7718 N   0  0  0  0  0  0  0  0  0  0  0  0
    0.8967  -16.0828    1.8234 O   0  0  0  0  0  0  0  0  0  0  0  0
    1.5676   -5.6497    2.6400 O   0  0  0  0  0  0  0  0  0  0  0  0
    1.5302   -9.4151   -0.5313 C   0  0  0  0  0  0  0  0  0  0  0  0
    2.5434   -9.5440   -1.0212 O   0  0  0  0  0  0  0  0  0  0  0  0
    0.3849   -9.3672   -1.1346 O   0  0  0  0  0  0  0  0  0  0  0  0
  3  7  1  0
  7  8  2  3
  8  9  1  0
  9 10  1  0
 10 11  1  0
 11 12  2  0
  6 13  1  0
  4 14  1  0
 14 15  2  0
 14 16  1  0
  1  2  2  0
  2  3  1  0
  3  4  2  0
  4  5  1  0
  5  6  2  0
  1  6  1  0
M  END

$$$$
No_1238-/export/home/yangzhenyu/potential_scad_32_flow//YTHDC2/2024-12-06-03-22-00/
     RDKit          3D

 19 20  0  0  1  0  0  0  0  0999 V2000
    1.1787   -8.0297    3.5154 C   0  0  0  0  0  0  0  0  0  0  0  0
    1.1048   -9.2215    3.2892 C   0  0  0  0  0  0  0  0  0  0  0  0
    1.2339   -9.7611    2.0189 C   0  0  0  0  0  0  0  0  0  0  0  0
    1.3583   -9.0036    0.9764 C   0  0  0  0  0  0  0  0  0  0  0  0
    1.5996   -7.6362    1.1311 C   0  0  0  0  0  0  0  0  0  0  0  0
    1.4830   -7.0928    2.3626 C   0  0  0  0  0  0  0  0  0  0  0  0
    1.4898   -5.7274    2.6199 C   0  0  0  0  0  0  0  0  0  0  0  0
    1.1681  -11.2222    1.8390 C   0  0  2  0  0  0  0  0  0  0  0  0
    1.9047  -12.1147    2.3357 C   0  0  0  0  0  0  0  0  0  0  0  0
    1.6844  -13.4555    2.0602 C   0  0  2  0  0  0  0  0  0  0  0  0
    0.6977  -13.8514    1.3046 C   0  0  0  0  0  0  0  0  0  0  0  0
   -0.1168  -12.9151    0.6554 C   0  0  1  0  0  0  0  0  0  0  0  0
    0.1481  -11.5441    0.9254 C   0  0  0  0  0  0  0  0  0  0  0  0
    1.2485   -4.8600    1.6197 O   0  0  0  0  0  0  0  0  0  0  0  0
    1.7677   -5.1383    3.7959 N   0  0  0  0  0  0  0  0  0  0  0  0
    2.5130  -14.4234    2.7631 I   0  0  0  0  0  0  0  0  0  0  0  0
   -0.2618  -10.7456    0.0810 O   0  0  0  0  0  0  0  0  0  0  0  0
   -1.0248  -13.3264   -0.3609 O   0  0  0  0  0  0  0  0  0  0  0  0
   -2.2426  -13.2713   -0.0317 C   0  0  0  0  0  0  0  0  0  0  0  0
  6  7  1  0
  8  3  1  6
  8  9  1  0
 10 11  1  0
  8 13  1  0
 12 13  1  0
  7 14  2  0
  7 15  1  0
 10 16  1  1
 13 17  2  0
 12 18  1  6
 18 19  1  0
  9 10  1  0
 11 12  1  0
  1  2  2  0
  2  3  1  0
  3  4  2  0
  4  5  1  0
  5  6  2  0
  1  6  1  0
M  END

$$$$
No_1239-/export/home/yangzhenyu/potential_scad_32_flow//YTHDC2/2024-12-06-03-22-00/
     RDKit          3D

 18 19  0  0  0  0  0  0  0  0999 V2000
    1.1787   -8.0297    3.5154 N   0  0  0  0  0  0  0  0  0  0  0  0
    1.0818   -9.0751    3.2053 C   0  0  0  0  0  0  0  0  0  0  0  0
    1.4070  -10.1649    3.8779 C   0  0  0  0  0  0  0  0  0  0  0  0
    1.3369  -11.4318    3.5082 C   0  0  0  0  0  0  0  0  0  0  0  0
    0.8023  -11.7102    2.3466 C   0  0  0  0  0  0  0  0  0  0  0  0
    0.4850  -10.7264    1.4891 C   0  0  0  0  0  0  0  0  0  0  0  0
    0.7226   -9.4207    1.8401 C   0  0  0  0  0  0  0  0  0  0  0  0
    0.4240   -8.3037    1.0131 C   0  0  0  0  0  0  0  0  0  0  0  0
    0.8058   -6.9978    1.4650 C   0  0  0  0  0  0  0  0  0  0  0  0
    1.1520   -6.8407    2.7151 C   0  0  0  0  0  0  0  0  0  0  0  0
    1.3467   -5.5665    3.2792 C   0  0  0  0  0  0  0  0  0  0  0  0
    0.6854  -13.3418    1.7992 P   0  0  0  0  0  0  0  0  0  0  0  0
    1.4575  -14.0716    2.7283 O   0  0  0  0  0  0  0  0  0  0  0  0
   -0.7379  -13.7160    1.8698 O   0  0  0  0  0  0  0  0  0  0  0  0
    1.2860  -13.5104    0.4459 O   0  0  0  0  0  0  0  0  0  0  0  0
    0.1010   -8.4141   -0.3545 C   0  0  0  0  0  0  0  0  0  0  0  0
   -1.2726   -8.2069   -0.5933 O   0  0  0  0  0  0  0  0  0  0  0  0
    0.6858   -9.0421   -1.2687 O   0  0  0  0  0  0  0  0  0  0  0  0
 10 11  1  0
  5 12  1  0
 12 13  1  0
 12 14  2  0
 12 15  1  0
  8 16  1  0
 16 17  2  0
 16 18  1  0
  1  2  2  0
  7  8  2  0
  8  9  1  0
  9 10  2  0
  1 10  1  0
  2  3  1  0
  3  4  2  0
  4  5  1  0
  5  6  2  0
  6  7  1  0
  2  7  1  0
M  END

$$$$
No_1240-/export/home/yangzhenyu/potential_scad_32_flow//YTHDC2/2024-12-06-03-22-00/
     RDKit          3D

 17 18  0  0  1  0  0  0  0  0999 V2000
    1.1787   -8.0297    3.5154 C   0  0  0  0  0  0  0  0  0  0  0  0
    1.1048   -9.2215    3.2892 C   0  0  0  0  0  0  0  0  0  0  0  0
    1.2339   -9.7611    2.0189 C   0  0  0  0  0  0  0  0  0  0  0  0
    1.1954  -11.2312    1.8661 C   0  0  0  0  0  0  0  0  0  0  0  0
    1.5546  -12.1691    2.7931 C   0  0  0  0  0  0  0  0  0  0  0  0
    1.4918  -11.6215    4.1439 C   0  0  0  0  0  0  0  0  0  0  0  0
    1.2451  -10.2569    4.3641 C   0  0  0  0  0  0  0  0  0  0  0  0
    1.6305  -13.4515    2.4740 C   0  0  0  0  0  0  0  0  0  0  0  0
    1.4316   -7.1437    2.4593 C   0  0  0  0  0  0  0  0  0  0  0  0
    1.2060   -5.6879    2.7585 C   0  0  0  0  0  0  0  0  0  0  0  0
    0.9616  -14.0845    1.6536 S   0  0  0  0  0  0  0  0  0  0  0  0
    1.6967  -15.5444    1.4464 C   0  0  1  0  0  0  0  0  0  0  0  0
    2.7470  -15.7810    2.4342 C   0  0  0  0  0  0  0  0  0  0  0  0
    0.9247  -16.6368    1.4686 C   0  0  0  0  0  0  0  0  0  0  0  0
    1.2143  -17.5568    1.8738 C   0  0  0  0  0  0  0  0  0  0  0  0
    2.4307  -17.4605    2.7960 C   0  0  0  0  0  0  0  0  0  0  0  0
   -0.0129  -13.6662    1.4468 O   0  0  0  0  0  0  0  0  0  0  0  0
  1  2  1  0
  5  8  1  0
  1  9  2  3
  9 10  1  0
 11  8  1  1
 11 12  1  0
 12 13  1  1
 12 14  1  0
 14 15  2  0
 13 16  1  0
 15 16  1  0
 11 17  2  0
  2  3  2  0
  3  4  1  0
  4  5  2  0
  5  6  1  0
  6  7  2  0
  2  7  1  0
M  END

$$$$
No_1241-/export/home/yangzhenyu/potential_scad_32_flow//YTHDC2/2024-12-06-03-22-00/
     RDKit          3D

 18 19  0  0  0  0  0  0  0  0999 V2000
    1.1787   -8.0297    3.5154 C   0  0  0  0  0  0  0  0  0  0  0  0
    1.1048   -9.2215    3.2892 C   0  0  0  0  0  0  0  0  0  0  0  0
    1.0239   -9.7790    2.0239 C   0  0  0  0  0  0  0  0  0  0  0  0
    1.1393   -9.0211    0.9686 C   0  0  0  0  0  0  0  0  0  0  0  0
    1.4051   -7.6500    1.1251 C   0  0  0  0  0  0  0  0  0  0  0  0
    1.4868   -7.1041    2.3534 C   0  0  0  0  0  0  0  0  0  0  0  0
    1.5562   -5.7208    2.5782 C   0  0  0  0  0  0  0  0  0  0  0  0
    0.8782  -11.3633    1.9235 C   0  0  0  0  0  0  0  0  0  0  0  0
    1.9186  -12.0693    2.0412 C   0  0  0  0  0  0  0  0  0  0  0  0
    1.7020  -13.4700    1.8844 C   0  0  0  0  0  0  0  0  0  0  0  0
    0.5712  -13.9781    1.6662 C   0  0  0  0  0  0  0  0  0  0  0  0
   -0.5551  -13.2597    1.6468 C   0  0  0  0  0  0  0  0  0  0  0  0
   -0.3723  -11.8326    1.7102 C   0  0  0  0  0  0  0  0  0  0  0  0
   -1.5024  -11.0180    1.5042 C   0  0  0  0  0  0  0  0  0  0  0  0
   -1.8588  -10.1996    1.9680 C   0  0  0  0  0  0  0  0  0  0  0  0
   -3.0632   -9.3159    1.8685 P   0  0  0  0  0  0  0  0  0  0  0  0
   -3.6700   -9.5377    0.6822 O   0  0  0  0  0  0  0  0  0  0  0  0
   -4.1695   -9.6444    2.8920 O   0  0  0  0  0  0  0  0  0  0  0  0
  6  7  1  0
  3  8  1  0
 13 14  1  0
 14 15  2  3
 15 16  1  0
 16 17  2  0
 16 18  2  0
  1  2  2  0
  2  3  1  0
  3  4  2  0
  4  5  1  0
  5  6  2  0
  1  6  1  0
  8  9  2  0
  9 10  1  0
 10 11  2  0
 11 12  1  0
 12 13  2  0
  8 13  1  0
M  END

$$$$
No_1242-/export/home/yangzhenyu/potential_scad_32_flow//YTHDC2/2024-12-06-03-22-00/
     RDKit          3D

 18 19  0  0  1  0  0  0  0  0999 V2000
    1.1787   -8.0297    3.5154 O   0  0  0  0  0  0  0  0  0  0  0  0
    0.9969   -8.9689    3.0048 C   0  0  1  0  0  0  0  0  0  0  0  0
    0.9976   -8.9567    1.6341 C   0  0  2  0  0  0  0  0  0  0  0  0
    1.6062   -9.9071    0.9292 C   0  0  0  0  0  0  0  0  0  0  0  0
    2.1191  -10.9757    1.6503 C   0  0  0  0  0  0  0  0  0  0  0  0
    2.1177  -10.9891    3.0403 C   0  0  0  0  0  0  0  0  0  0  0  0
    1.5441   -9.8905    3.6897 C   0  0  0  0  0  0  0  0  0  0  0  0
    0.4333   -7.7031    1.0153 C   0  0  2  0  0  0  0  0  0  0  0  0
    0.8525   -6.5693    1.1822 C   0  0  0  0  0  0  0  0  0  0  0  0
    0.1407   -5.4740    1.3365 C   0  0  2  0  0  0  0  0  0  0  0  0
   -1.0944   -5.5615    0.9032 C   0  0  0  0  0  0  0  0  0  0  0  0
   -1.6367   -6.7584    0.4692 C   0  0  0  0  0  0  0  0  0  0  0  0
   -0.9005   -7.8699    0.5809 C   0  0  0  0  0  0  0  0  0  0  0  0
    1.6571  -10.1328    5.0206 O   0  0  0  0  0  0  0  0  0  0  0  0
   -1.4650   -9.0454    0.2135 O   0  0  0  0  0  0  0  0  0  0  0  0
    0.6575   -4.1184    1.7415 C   0  0  0  0  0  0  0  0  0  0  0  0
    0.5475   -3.0643    0.9811 C   0  0  0  0  0  0  0  0  0  0  0  0
    1.3635   -1.8985    1.2883 C   0  0  0  0  0  0  0  0  0  0  0  0
  2  1  1  1
  2  3  1  0
  4  5  1  0
  2  7  1  0
  6  7  1  0
  3  8  1  0
  8  9  1  1
 10 11  1  0
  8 13  1  0
 12 13  1  0
  7 14  2  0
 13 15  2  0
 10 16  1  6
 16 17  1  0
 17 18  2  0
  9 10  1  0
 11 12  1  0
  3  4  1  1
  5  6  1  0
M  END

$$$$
No_1243-/export/home/yangzhenyu/potential_scad_32_flow//YTHDC2/2024-12-06-03-22-00/
     RDKit          3D

 20 22  0  0  0  0  0  0  0  0999 V2000
    1.1787   -8.0297    3.5154 C   0  0  0  0  0  0  0  0  0  0  0  0
    1.0491   -6.8434    2.9820 C   0  0  0  0  0  0  0  0  0  0  0  0
    0.0950   -8.8404    3.2292 C   0  0  0  0  0  0  0  0  0  0  0  0
   -0.9173   -8.4596    2.5152 C   0  0  0  0  0  0  0  0  0  0  0  0
   -1.0331   -7.2162    2.0653 C   0  0  0  0  0  0  0  0  0  0  0  0
   -0.0105   -6.3168    2.3081 C   0  0  0  0  0  0  0  0  0  0  0  0
    0.1465  -10.2446    3.6981 C   0  0  0  0  0  0  0  0  0  0  0  0
    1.2433  -10.8239    4.0166 C   0  0  0  0  0  0  0  0  0  0  0  0
    1.0790  -12.2885    4.3779 C   0  0  0  0  0  0  0  0  0  0  0  0
    0.8834  -12.9822    3.2583 C   0  0  0  0  0  0  0  0  0  0  0  0
    0.0265  -12.5445    2.3035 C   0  0  0  0  0  0  0  0  0  0  0  0
   -0.3056  -11.1111    2.4912 C   0  0  0  0  0  0  0  0  0  0  0  0
    1.1104  -14.4324    3.2943 C   0  0  0  0  0  0  0  0  0  0  0  0
    0.8881  -15.2045    2.1918 C   0  0  0  0  0  0  0  0  0  0  0  0
    0.2045  -14.6316    1.2096 C   0  0  0  0  0  0  0  0  0  0  0  0
   -0.2356  -13.3125    1.2683 C   0  0  0  0  0  0  0  0  0  0  0  0
   -0.1163   -4.9966    1.8802 O   0  0  0  0  0  0  0  0  0  0  0  0
   -0.1757   -3.9849    2.3849 C   0  0  0  0  0  0  0  0  0  0  0  0
    1.2980  -16.5442    2.1427 Cl  0  0  0  0  0  0  0  0  0  0  0  0
    1.0368   -3.4216    2.8974 C   0  0  0  0  0  0  0  0  0  0  0  0
  3  7  1  0
  6 17  1  0
 17 18  1  0
 14 19  1  0
 18 20  1  0
  1  2  2  0
  2  6  1  0
  5  6  2  0
  4  5  1  0
  3  4  2  0
  1  3  1  0
  7  8  2  0
  8  9  1  0
  9 10  2  0
 11 12  2  0
  7 12  1  0
 10 11  1  0
 11 16  1  0
 15 16  2  0
 14 15  1  0
 13 14  2  0
 10 13  1  0
M  END

$$$$
No_1244-/export/home/yangzhenyu/potential_scad_32_flow//YTHDC2/2024-12-06-03-22-00/
     RDKit          3D

 18 18  0  0  0  0  0  0  0  0999 V2000
    1.1787   -8.0297    3.5154 C   0  0  0  0  0  0  0  0  0  0  0  0
    1.1048   -9.2215    3.2892 C   0  0  0  0  0  0  0  0  0  0  0  0
    1.2339   -9.7611    2.0189 C   0  0  0  0  0  0  0  0  0  0  0  0
    1.3583   -9.0036    0.9764 C   0  0  0  0  0  0  0  0  0  0  0  0
    1.7077   -9.6100   -0.3010 C   0  0  0  0  0  0  0  0  0  0  0  0
    1.3637   -7.1087    2.3226 C   0  0  0  0  0  0  0  0  0  0  0  0
    1.4257   -7.6645    1.0231 C   0  0  0  0  0  0  0  0  0  0  0  0
    1.9364   -8.8976   -1.3212 O   0  0  0  0  0  0  0  0  0  0  0  0
    1.2982  -10.7764   -0.4341 O   0  0  0  0  0  0  0  0  0  0  0  0
    1.1232  -10.1782    4.3891 Br  0  0  0  0  0  0  0  0  0  0  0  0
    1.3242   -5.3600    2.5805 C   0  0  0  0  0  0  0  0  0  0  0  0
    1.1311   -4.7411    1.5504 O   0  0  0  0  0  0  0  0  0  0  0  0
    2.0172   -5.0105    3.5392 O   0  0  0  0  0  0  0  0  0  0  0  0
    1.2536  -11.1371    1.9228 C   0  0  0  0  0  0  0  0  0  0  0  0
    2.5886  -11.9122    1.9824 C   0  0  0  0  0  0  0  0  0  0  0  0
    2.4541  -13.3450    1.7449 C   0  0  0  0  0  0  0  0  0  0  0  0
    1.2810  -13.9082    2.0266 C   0  0  0  0  0  0  0  0  0  0  0  0
    0.0786  -13.2010    1.8949 C   0  0  0  0  0  0  0  0  0  0  0  0
  4  5  1  0
  5  8  1  0
  5  9  2  0
  2 10  1  0
  6 11  1  0
 11 12  2  0
 11 13  1  0
  3 14  1  0
 14 15  1  0
 15 16  1  0
 16 17  1  0
 17 18  1  0
  1  2  2  0
  2  3  1  0
  3  4  2  0
  4  7  1  0
  6  7  2  0
  1  6  1  0
M  END

$$$$
No_1245-/export/home/yangzhenyu/potential_scad_32_flow//YTHDC2/2024-12-06-03-22-00/
     RDKit          3D

 20 20  0  0  1  0  0  0  0  0999 V2000
    1.1787   -8.0297    3.5154 C   0  0  0  0  0  0  0  0  0  0  0  0
    1.0491   -6.8434    2.9820 C   0  0  0  0  0  0  0  0  0  0  0  0
    0.0950   -8.8404    3.2292 C   0  0  0  0  0  0  0  0  0  0  0  0
    0.0602  -10.1764    3.8231 C   0  0  0  0  0  0  0  0  0  0  0  0
    0.3808   -6.2771    2.2009 C   0  0  0  0  0  0  0  0  0  0  0  0
   -0.5785   -7.1471    1.7089 C   0  0  0  0  0  0  0  0  0  0  0  0
   -0.6899   -8.4051    2.1311 C   0  0  0  0  0  0  0  0  0  0  0  0
   -1.2470  -10.6354    3.9985 C   0  0  0  0  0  0  0  0  0  0  0  0
    1.1349  -10.8156    4.3855 C   0  0  0  0  0  0  0  0  0  0  0  0
    1.6433  -11.8139    3.8910 C   0  0  0  0  0  0  0  0  0  0  0  0
    1.2393  -12.5360    2.9142 C   0  0  0  0  0  0  0  0  0  0  0  0
    0.9810  -12.2005    1.7014 C   0  0  0  0  0  0  0  0  0  0  0  0
    1.5211  -11.1101    1.0456 C   0  0  0  0  0  0  0  0  0  0  0  0
    1.1146  -10.4627    0.0651 O   0  0  0  0  0  0  0  0  0  0  0  0
    2.7811  -10.6880    1.4094 O   0  0  0  0  0  0  0  0  0  0  0  0
    0.6072   -4.8317    1.5873 Br  0  0  0  0  0  0  0  0  0  0  0  0
    1.0538  -13.9653    3.1912 C   0  0  0  0  0  0  0  0  0  0  0  0
    1.4891  -14.9456    2.8479 C   0  0  1  0  0  0  0  0  0  0  0  0
    2.6815  -14.8714    2.0403 N   0  0  0  0  0  0  0  0  0  0  0  0
    1.2699  -16.2127    3.1679 C   0  0  0  0  0  0  0  0  0  0  0  0
  3  4  1  0
  4  8  2  0
  4  9  1  0
  9 10  2  3
 10 11  1  0
 11 12  1  0
 12 13  1  0
 13 14  2  0
 13 15  1  0
  5 16  1  0
 11 17  1  0
 17 18  1  0
 18 19  1  0
 18 20  1  1
  1  2  2  0
  2  5  1  0
  5  6  2  0
  6  7  1  0
  3  7  2  0
  1  3  1  0
M  END

$$$$
No_1246-/export/home/yangzhenyu/potential_scad_32_flow//YTHDC2/2024-12-06-03-22-00/
     RDKit          3D

 18 18  0  0  1  0  0  0  0  0999 V2000
    1.1787   -8.0297    3.5154 C   0  0  0  0  0  0  0  0  0  0  0  0
    1.0491   -6.8434    2.9820 C   0  0  1  0  0  0  0  0  0  0  0  0
    1.9985   -8.9840    2.8958 C   0  0  2  0  0  0  0  0  0  0  0  0
    1.7297   -9.2108    1.6335 C   0  0  0  0  0  0  0  0  0  0  0  0
    1.7343   -8.0566    0.8408 C   0  0  0  0  0  0  0  0  0  0  0  0
    1.0269   -6.8892    1.4456 C   0  0  0  0  0  0  0  0  0  0  0  0
    2.0740   -7.9416   -0.3682 O   0  0  0  0  0  0  0  0  0  0  0  0
    2.2757  -10.2253    3.6437 C   0  0  0  0  0  0  0  0  0  0  0  0
    1.8809  -11.2592    3.7161 C   0  0  0  0  0  0  0  0  0  0  0  0
    0.5216  -11.3761    3.2122 C   0  0  0  0  0  0  0  0  0  0  0  0
   -0.4850  -10.6928    3.5608 O   0  0  0  0  0  0  0  0  0  0  0  0
    0.2792  -12.4122    2.3579 O   0  0  0  0  0  0  0  0  0  0  0  0
    0.8662   -5.6210    3.4535 C   0  0  0  0  0  0  0  0  0  0  0  0
    1.2253   -4.4464    2.7855 C   0  0  0  0  0  0  0  0  0  0  0  0
    2.3973  -12.3435    4.3697 C   0  0  0  0  0  0  0  0  0  0  0  0
    0.0942   -3.5701    2.4488 N   0  0  0  0  0  0  0  0  0  0  0  0
    0.3053   -2.5941    1.5409 C   0  0  0  0  0  0  0  0  0  0  0  0
   -0.8087   -3.2005    3.4923 C   0  0  0  0  0  0  0  0  0  0  0  0
  1  2  1  0
  3  1  1  1
  3  4  1  0
  4  5  1  0
  2  6  1  0
  5  6  1  0
  5  7  2  0
  3  8  1  0
  8  9  2  3
  9 10  1  0
 10 11  1  0
 10 12  2  0
  2 13  1  1
 13 14  1  0
  9 15  1  0
 14 16  1  0
 16 17  1  0
 16 18  1  0
M  END

$$$$
No_1247-/export/home/yangzhenyu/potential_scad_32_flow//YTHDC2/2024-12-06-03-22-00/
     RDKit          3D

 19 19  0  0  0  0  0  0  0  0999 V2000
    1.1787   -8.0297    3.5154 C   0  0  0  0  0  0  0  0  0  0  0  0
    1.1048   -9.2215    3.2892 C   0  0  0  0  0  0  0  0  0  0  0  0
    1.2339   -9.7611    2.0189 C   0  0  0  0  0  0  0  0  0  0  0  0
    1.3583   -9.0036    0.9764 C   0  0  0  0  0  0  0  0  0  0  0  0
    1.5996   -7.6362    1.1311 C   0  0  0  0  0  0  0  0  0  0  0  0
    1.4830   -7.0928    2.3626 C   0  0  0  0  0  0  0  0  0  0  0  0
    1.4898   -5.7274    2.6199 C   0  0  0  0  0  0  0  0  0  0  0  0
    1.1882  -11.3736    1.8424 C   0  0  0  0  0  0  0  0  0  0  0  0
    0.2883  -11.9819    2.0702 C   0  0  0  0  0  0  0  0  0  0  0  0
    0.3067  -13.4537    1.9657 C   0  0  0  0  0  0  0  0  0  0  0  0
   -0.5756  -14.2117    1.6587 F   0  0  0  0  0  0  0  0  0  0  0  0
    1.4558  -14.0620    2.3911 F   0  0  0  0  0  0  0  0  0  0  0  0
    1.6912   -5.1789    3.8600 O   0  0  0  0  0  0  0  0  0  0  0  0
    0.9484   -4.8502    1.7231 O   0  0  0  0  0  0  0  0  0  0  0  0
    1.6005   -9.4675   -0.3093 P   0  0  0  0  0  0  0  0  0  0  0  0
    0.3925   -9.8164   -0.9985 O   0  0  0  0  0  0  0  0  0  0  0  0
    2.3754   -8.4955   -1.2992 O   0  0  0  0  0  0  0  0  0  0  0  0
    2.5755  -10.7118   -0.3738 O   0  0  0  0  0  0  0  0  0  0  0  0
   -1.2068  -11.5565    2.1362 C   0  0  0  0  0  0  0  0  0  0  0  0
  6  7  1  0
  3  8  1  0
  8  9  2  3
  9 10  1  0
 10 11  1  0
 10 12  1  0
  7 13  1  0
  7 14  2  0
  4 15  1  0
 15 16  1  0
 15 17  2  0
 15 18  1  0
  9 19  1  0
  1  2  2  0
  2  3  1  0
  3  4  2  0
  4  5  1  0
  5  6  2  0
  1  6  1  0
M  END

$$$$
No_1248-/export/home/yangzhenyu/potential_scad_32_flow//YTHDC2/2024-12-06-03-22-00/
     RDKit          3D

 19 20  0  0  0  0  0  0  0  0999 V2000
    1.1787   -8.0297    3.5154 C   0  0  0  0  0  0  0  0  0  0  0  0
    1.1048   -9.2215    3.2892 C   0  0  0  0  0  0  0  0  0  0  0  0
    1.2339   -9.7611    2.0189 C   0  0  0  0  0  0  0  0  0  0  0  0
    1.3583   -9.0036    0.9764 C   0  0  0  0  0  0  0  0  0  0  0  0
    1.5996   -7.6362    1.1311 C   0  0  0  0  0  0  0  0  0  0  0  0
    1.4830   -7.0928    2.3626 C   0  0  0  0  0  0  0  0  0  0  0  0
    1.1008  -11.2372    1.8542 C   0  0  0  0  0  0  0  0  0  0  0  0
    1.9749  -12.0938    2.2342 C   0  0  0  0  0  0  0  0  0  0  0  0
    1.7533  -13.4231    1.8956 C   0  0  0  0  0  0  0  0  0  0  0  0
    0.8624  -13.8318    1.1071 C   0  0  0  0  0  0  0  0  0  0  0  0
   -0.0624  -12.9093    0.5581 C   0  0  0  0  0  0  0  0  0  0  0  0
    0.1157  -11.5285    0.9404 C   0  0  0  0  0  0  0  0  0  0  0  0
    1.5746   -5.4311    2.6997 O   0  0  0  0  0  0  0  0  0  0  0  0
   -0.8308  -10.6308    0.4932 C   0  0  0  0  0  0  0  0  0  0  0  0
   -1.9362  -10.3358    1.3357 C   0  0  0  0  0  0  0  0  0  0  0  0
   -2.7490   -9.2310    1.0626 O   0  0  0  0  0  0  0  0  0  0  0  0
   -2.2930  -10.9837    2.4558 O   0  0  0  0  0  0  0  0  0  0  0  0
   -0.8478  -10.0183   -0.6210 C   0  0  0  0  0  0  0  0  0  0  0  0
   -0.0891   -8.9318   -1.0402 N   0  0  0  0  0  0  0  0  0  0  0  0
  3  7  1  0
  6 13  1  0
 12 14  1  0
 14 15  1  0
 15 16  1  0
 15 17  2  0
 14 18  1  0
 18 19  1  0
  1  2  2  0
  2  3  1  0
  3  4  2  0
  4  5  1  0
  5  6  2  0
  1  6  1  0
  7  8  2  0
  8  9  1  0
  9 10  2  0
 10 11  1  0
 11 12  2  0
  7 12  1  0
M  END

$$$$
No_1249-/export/home/yangzhenyu/potential_scad_32_flow//YTHDC2/2024-12-06-03-22-00/
     RDKit          3D

 18 19  0  0  0  0  0  0  0  0999 V2000
    1.1787   -8.0297    3.5154 C   0  0  0  0  0  0  0  0  0  0  0  0
    1.0491   -6.8434    2.9820 C   0  0  0  0  0  0  0  0  0  0  0  0
    0.0950   -8.8404    3.2292 C   0  0  0  0  0  0  0  0  0  0  0  0
    0.0602  -10.1764    3.8231 C   0  0  0  0  0  0  0  0  0  0  0  0
    0.2248   -6.3830    2.0648 C   0  0  0  0  0  0  0  0  0  0  0  0
   -0.6745   -7.2322    1.6857 C   0  0  0  0  0  0  0  0  0  0  0  0
   -0.7374   -8.4992    2.1292 C   0  0  0  0  0  0  0  0  0  0  0  0
    1.0517  -10.8728    4.0967 C   0  0  0  0  0  0  0  0  0  0  0  0
    0.9328  -12.2927    3.9311 C   0  0  0  0  0  0  0  0  0  0  0  0
   -0.2793  -12.8243    3.8110 C   0  0  0  0  0  0  0  0  0  0  0  0
   -1.1630  -11.3013    3.4421 C   0  0  0  0  0  0  0  0  0  0  0  0
    0.4002   -5.0632    1.4726 O   0  0  0  0  0  0  0  0  0  0  0  0
    1.1694   -4.1392    2.0857 C   0  0  0  0  0  0  0  0  0  0  0  0
   -1.6892   -6.8572    0.7200 C   0  0  0  0  0  0  0  0  0  0  0  0
   -2.7002   -6.0391    1.0850 C   0  0  0  0  0  0  0  0  0  0  0  0
   -3.0384   -5.0839    0.3679 C   0  0  0  0  0  0  0  0  0  0  0  0
   -2.7147   -5.0384   -0.9581 C   0  0  0  0  0  0  0  0  0  0  0  0
   -1.8638   -6.0378   -1.4401 C   0  0  0  0  0  0  0  0  0  0  0  0
  3  4  1  0
  4  8  1  0
  8  9  2  0
  9 10  1  0
  4 11  1  0
 10 11  2  0
  5 12  1  0
 12 13  1  0
  6 14  1  0
 14 15  1  0
 15 16  2  3
 16 17  1  0
 17 18  2  0
  1  2  2  0
  2  5  1  0
  5  6  2  0
  6  7  1  0
  3  7  2  0
  1  3  1  0
M  END

$$$$
No_1250-/export/home/yangzhenyu/potential_scad_32_flow//YTHDC2/2024-12-06-03-22-00/
     RDKit          3D

 19 20  0  0  0  0  0  0  0  0999 V2000
    1.1787   -8.0297    3.5154 C   0  0  0  0  0  0  0  0  0  0  0  0
    1.1048   -9.2215    3.2892 C   0  0  0  0  0  0  0  0  0  0  0  0
    1.3627  -10.1721    4.3044 C   0  0  0  0  0  0  0  0  0  0  0  0
    1.0682  -11.5187    4.0618 C   0  0  0  0  0  0  0  0  0  0  0  0
    0.6332  -11.9655    2.9682 C   0  0  0  0  0  0  0  0  0  0  0  0
    0.4776  -11.1308    1.9203 C   0  0  0  0  0  0  0  0  0  0  0  0
    0.7470   -9.8274    2.0368 C   0  0  0  0  0  0  0  0  0  0  0  0
    0.5535   -7.1314    2.6861 C   0  0  0  0  0  0  0  0  0  0  0  0
    0.2950   -7.6000    1.3276 C   0  0  0  0  0  0  0  0  0  0  0  0
   -0.2011   -6.5905    0.4760 C   0  0  0  0  0  0  0  0  0  0  0  0
    0.3227   -8.8734    1.1193 C   0  0  0  0  0  0  0  0  0  0  0  0
   -0.8441   -7.0624   -0.5863 O   0  0  0  0  0  0  0  0  0  0  0  0
   -0.3812   -5.2741    0.7088 O   0  0  0  0  0  0  0  0  0  0  0  0
    0.4836  -13.3870    2.7201 Cl  0  0  0  0  0  0  0  0  0  0  0  0
    0.0639  -11.6948    0.5299 N   0  0  0  0  0  0  0  0  0  0  0  0
   -0.8135  -11.5236   -0.0995 C   0  0  0  0  0  0  0  0  0  0  0  0
   -1.9208  -10.9788    0.5858 O   0  0  0  0  0  0  0  0  0  0  0  0
   -1.1616  -12.0190   -1.3146 C   0  0  0  0  0  0  0  0  0  0  0  0
   -1.6926  -11.2960   -2.3170 O   0  0  0  0  0  0  0  0  0  0  0  0
  9 10  1  0
 10 12  2  0
 10 13  1  0
  5 14  1  0
  6 15  1  0
 15 16  1  0
 16 17  2  0
 16 18  1  0
 18 19  2  0
  2  3  1  0
  3  4  2  0
  4  5  1  0
  5  6  2  0
  6  7  1  0
  1  2  2  0
  2  7  1  0
  7 11  2  0
  9 11  1  0
  8  9  2  0
  1  8  1  0
M  END

$$$$
No_1251-/export/home/yangzhenyu/potential_scad_32_flow//YTHDC2/2024-12-06-03-22-00/
     RDKit          3D

 19 20  0  0  1  0  0  0  0  0999 V2000
    1.1787   -8.0297    3.5154 C   0  0  0  0  0  0  0  0  0  0  0  0
    1.1048   -9.2215    3.2892 C   0  0  0  0  0  0  0  0  0  0  0  0
    1.3627  -10.1721    4.3044 C   0  0  0  0  0  0  0  0  0  0  0  0
    1.0682  -11.5187    4.0618 C   0  0  0  0  0  0  0  0  0  0  0  0
    0.6332  -11.9655    2.9682 C   0  0  0  0  0  0  0  0  0  0  0  0
    0.4776  -11.1308    1.9203 C   0  0  0  0  0  0  0  0  0  0  0  0
    0.7470   -9.8274    2.0368 C   0  0  0  0  0  0  0  0  0  0  0  0
    1.8805   -7.1616    3.5538 C   0  0  0  0  0  0  0  0  0  0  0  0
    0.3661  -13.4265    2.7867 C   0  0  2  0  0  0  0  0  0  0  0  0
    1.3569  -14.3327    3.1423 N   0  0  0  0  0  0  0  0  0  0  0  0
    1.1861  -15.6556    3.0395 C   0  0  0  0  0  0  0  0  0  0  0  0
    0.9569  -16.0235    1.9375 C   0  0  0  0  0  0  0  0  0  0  0  0
    0.1245  -15.1950    1.0815 C   0  0  1  0  0  0  0  0  0  0  0  0
    0.0683  -13.8338    1.4964 C   0  0  0  0  0  0  0  0  0  0  0  0
   -0.3692  -15.5869   -0.0874 C   0  0  0  0  0  0  0  0  0  0  0  0
   -0.0643  -16.6863   -0.6496 N   0  0  0  0  0  0  0  0  0  0  0  0
   -0.9907  -14.5352   -1.0007 S   0  0  0  0  0  0  0  0  0  0  0  0
   -1.2519  -15.5124   -2.2795 C   0  0  0  0  0  0  0  0  0  0  0  0
    0.4650  -17.3823   -0.1441 H   0  0  0  0  0  0  0  0  0  0  0  0
  1  2  1  0
  1  8  2  0
  9  5  1  6
  9 10  1  0
 10 11  1  0
 11 12  1  0
 12 13  1  0
  9 14  1  0
 13 14  1  0
 13 15  1  6
 15 16  2  0
 15 17  1  0
 17 18  1  0
  2  3  2  0
  3  4  1  0
  4  5  2  0
  5  6  1  0
  6  7  2  0
  2  7  1  0
 16 19  1  0
M  END

$$$$
No_1252-/export/home/yangzhenyu/potential_scad_32_flow//YTHDC2/2024-12-06-03-22-00/
     RDKit          3D

 19 20  0  0  1  0  0  0  0  0999 V2000
    1.1787   -8.0297    3.5154 N   0  0  0  0  0  0  0  0  0  0  0  0
    1.0818   -9.0751    3.2053 C   0  0  2  0  0  0  0  0  0  0  0  0
    0.7576   -9.3725    1.9159 C   0  0  1  0  0  0  0  0  0  0  0  0
    0.8823   -8.4917    1.0547 C   0  0  1  0  0  0  0  0  0  0  0  0
    1.4631   -7.3107    1.2451 C   0  0  0  0  0  0  0  0  0  0  0  0
    1.6470   -6.9326    2.5669 C   0  0  0  0  0  0  0  0  0  0  0  0
    0.8237  -10.1305    4.2407 C   0  0  0  0  0  0  0  0  0  0  0  0
   -0.4178  -10.6899    4.4426 O   0  0  0  0  0  0  0  0  0  0  0  0
    1.8552  -10.7022    4.8355 N   0  0  0  0  0  0  0  0  0  0  0  0
    0.8338   -8.9230   -0.3979 C   0  0  0  0  0  0  0  0  0  0  0  0
    1.7295   -8.8347   -1.2164 O   0  0  0  0  0  0  0  0  0  0  0  0
   -0.4702   -8.8853   -0.8997 O   0  0  0  0  0  0  0  0  0  0  0  0
    1.8114   -5.6119    3.0293 O   0  0  0  0  0  0  0  0  0  0  0  0
    0.4901  -10.8084    1.5257 C   0  0  0  0  0  0  0  0  0  0  0  0
    1.5912  -11.7686    1.2532 C   0  0  0  0  0  0  0  0  0  0  0  0
    1.3462  -13.0632    1.0520 C   0  0  0  0  0  0  0  0  0  0  0  0
    0.0320  -13.4114    0.8114 C   0  0  0  0  0  0  0  0  0  0  0  0
   -0.7788  -12.0694    0.9245 C   0  0  0  0  0  0  0  0  0  0  0  0
   -0.6198  -11.0490    1.1788 N   0  0  0  0  0  0  0  0  0  0  0  0
  1  2  1  0
  3  4  1  0
  1  6  1  0
  5  6  1  0
  2  7  1  1
  7  8  2  0
  7  9  1  0
  4 10  1  6
 10 11  2  0
 10 12  1  0
  6 13  2  0
  3 14  1  6
  2  3  1  0
  4  5  1  0
 14 15  2  0
 15 16  1  0
 16 17  2  0
 17 18  1  0
 18 19  2  0
 14 19  1  0
M  END

$$$$
No_1253-/export/home/yangzhenyu/potential_scad_32_flow//YTHDC2/2024-12-06-03-22-00/
     RDKit          3D

 18 18  0  0  1  0  0  0  0  0999 V2000
    1.1787   -8.0297    3.5154 O   0  0  0  0  0  0  0  0  0  0  0  0
    0.9969   -8.9689    3.0048 C   0  0  0  0  0  0  0  0  0  0  0  0
    1.3055  -10.1056    3.6616 C   0  0  0  0  0  0  0  0  0  0  0  0
    1.1249  -11.3503    3.0941 C   0  0  0  0  0  0  0  0  0  0  0  0
    0.6932  -11.4484    1.8586 C   0  0  0  0  0  0  0  0  0  0  0  0
    0.5498  -10.3736    1.0579 C   0  0  0  0  0  0  0  0  0  0  0  0
    0.7643   -9.1185    1.6383 C   0  0  0  0  0  0  0  0  0  0  0  0
    0.5937   -7.8467    1.0482 C   0  0  0  0  0  0  0  0  0  0  0  0
   -0.4358   -7.6746    0.4159 O   0  0  0  0  0  0  0  0  0  0  0  0
    1.5404   -6.9777    0.8453 O   0  0  0  0  0  0  0  0  0  0  0  0
    1.1769  -12.6398    3.8403 C   0  0  0  0  0  0  0  0  0  0  0  0
    1.4171  -13.7378    2.9657 C   0  0  2  0  0  0  0  0  0  0  0  0
    2.4962  -14.1015    2.4659 C   0  0  0  0  0  0  0  0  0  0  0  0
    0.2030  -14.2604    2.3191 C   0  0  0  0  0  0  0  0  0  0  0  0
   -0.7720  -14.7128    2.9376 O   0  0  0  0  0  0  0  0  0  0  0  0
    0.3058  -14.4619    1.0185 O   0  0  0  0  0  0  0  0  0  0  0  0
    2.7759  -15.5925    2.8879 C   0  0  0  0  0  0  0  0  0  0  0  0
    2.0745  -16.2840    3.7333 O   0  0  0  0  0  0  0  0  0  0  0  0
  1  2  1  0
  7  8  1  0
  8  9  2  0
  8 10  1  0
  4 11  1  0
 12 11  1  6
 12 13  1  0
 12 14  1  0
 14 15  1  0
 14 16  2  0
 13 17  1  0
 17 18  1  0
  2  3  2  0
  3  4  1  0
  4  5  2  0
  5  6  1  0
  6  7  2  0
  2  7  1  0
M  END

$$$$
No_1254-/export/home/yangzhenyu/potential_scad_32_flow//YTHDC2/2024-12-06-03-22-00/
     RDKit          3D

 19 19  0  0  1  0  0  0  0  0999 V2000
    1.1787   -8.0297    3.5154 C   0  0  0  0  0  0  0  0  0  0  0  0
    1.0491   -6.8434    2.9820 C   0  0  0  0  0  0  0  0  0  0  0  0
    0.9905   -9.0774    2.6527 C   0  0  0  0  0  0  0  0  0  0  0  0
    0.7897   -8.9519    1.3691 C   0  0  0  0  0  0  0  0  0  0  0  0
    0.7018   -7.7198    0.7892 C   0  0  0  0  0  0  0  0  0  0  0  0
    0.8918   -6.5957    1.6117 C   0  0  0  0  0  0  0  0  0  0  0  0
    1.0711  -10.4814    3.2282 C   0  0  0  0  0  0  0  0  0  0  0  0
    1.1227  -11.5770    2.4616 C   0  0  0  0  0  0  0  0  0  0  0  0
    1.1500  -12.9052    3.0782 C   0  0  0  0  0  0  0  0  0  0  0  0
    0.6702  -13.9897    2.4998 C   0  0  2  0  0  0  0  0  0  0  0  0
    1.0009  -15.3315    3.2443 C   0  0  0  0  0  0  0  0  0  0  0  0
    0.9853  -16.4905    2.5086 C   0  0  0  0  0  0  0  0  0  0  0  0
    0.8408   -5.2757    1.1542 Cl  0  0  0  0  0  0  0  0  0  0  0  0
    1.7332  -17.5047    2.9558 C   0  0  0  0  0  0  0  0  0  0  0  0
    1.9914  -18.4787    2.1831 O   0  0  0  0  0  0  0  0  0  0  0  0
    2.5452  -17.5156    3.9732 O   0  0  0  0  0  0  0  0  0  0  0  0
    0.8420  -14.2247    1.0131 C   0  0  0  0  0  0  0  0  0  0  0  0
    2.0753  -14.1554    0.4870 C   0  0  0  0  0  0  0  0  0  0  0  0
   -0.1833  -13.3610    0.3309 C   0  0  0  0  0  0  0  0  0  0  0  0
  3  7  1  0
  7  8  2  3
  8  9  1  0
 10  9  1  1
 10 11  1  0
 11 12  1  0
  6 13  1  0
 12 14  1  0
 14 15  2  0
 14 16  1  0
 10 17  1  0
 17 18  1  0
 17 19  1  0
  1  2  2  0
  2  6  1  0
  5  6  2  0
  4  5  1  0
  3  4  2  0
  1  3  1  0
M  END

$$$$
No_1255-/export/home/yangzhenyu/potential_scad_32_flow//YTHDC2/2024-12-06-03-22-00/
     RDKit          3D

 18 18  0  0  0  0  0  0  0  0999 V2000
    1.1787   -8.0297    3.5154 C   0  0  0  0  0  0  0  0  0  0  0  0
    1.1048   -9.2215    3.2892 C   0  0  0  0  0  0  0  0  0  0  0  0
    1.3627  -10.1721    4.3044 C   0  0  0  0  0  0  0  0  0  0  0  0
    1.0682  -11.5187    4.0618 C   0  0  0  0  0  0  0  0  0  0  0  0
    0.6332  -11.9655    2.9682 C   0  0  0  0  0  0  0  0  0  0  0  0
    0.4776  -11.1308    1.9203 C   0  0  0  0  0  0  0  0  0  0  0  0
    0.7470   -9.8274    2.0368 C   0  0  0  0  0  0  0  0  0  0  0  0
    1.0387   -7.0301    2.5175 C   0  0  0  0  0  0  0  0  0  0  0  0
    1.1486   -5.5562    2.7651 C   0  0  0  0  0  0  0  0  0  0  0  0
    0.4339  -13.5730    2.7982 C   0  0  0  0  0  0  0  0  0  0  0  0
    0.9796  -14.1305    1.8007 N   0  0  0  0  0  0  0  0  0  0  0  0
    2.1984  -13.8797    1.3841 C   0  0  0  0  0  0  0  0  0  0  0  0
    0.4353  -15.1319    1.1501 C   0  0  0  0  0  0  0  0  0  0  0  0
    0.5845  -16.4450    1.7687 C   0  0  0  0  0  0  0  0  0  0  0  0
   -0.2253  -17.2110    2.0827 C   0  0  0  0  0  0  0  0  0  0  0  0
    0.1233  -18.3500    2.8770 C   0  0  0  0  0  0  0  0  0  0  0  0
    0.0204  -15.1500   -0.1617 O   0  0  0  0  0  0  0  0  0  0  0  0
    0.8406   -4.6544    1.9183 C   0  0  0  0  0  0  0  0  0  0  0  0
  1  2  1  0
  1  8  2  3
  8  9  1  0
  5 10  1  0
 10 11  1  0
 11 12  1  0
 11 13  1  0
 13 14  1  0
 14 15  2  3
 15 16  1  0
 13 17  2  0
  9 18  1  0
  2  3  2  0
  3  4  1  0
  4  5  2  0
  5  6  1  0
  6  7  2  0
  2  7  1  0
M  END

$$$$
No_1256-/export/home/yangzhenyu/potential_scad_32_flow//YTHDC2/2024-12-06-03-22-00/
     RDKit          3D

 19 19  0  0  0  0  0  0  0  0999 V2000
    1.1787   -8.0297    3.5154 C   0  0  0  0  0  0  0  0  0  0  0  0
    1.1048   -9.2215    3.2892 C   0  0  0  0  0  0  0  0  0  0  0  0
    1.2339   -9.7611    2.0189 C   0  0  0  0  0  0  0  0  0  0  0  0
    1.4306   -8.9466    1.1170 C   0  0  0  0  0  0  0  0  0  0  0  0
    1.6532   -7.5949    1.1786 C   0  0  0  0  0  0  0  0  0  0  0  0
    1.4973   -7.0739    2.4258 C   0  0  0  0  0  0  0  0  0  0  0  0
    1.4438   -5.6890    2.7316 C   0  0  0  0  0  0  0  0  0  0  0  0
    1.2541  -11.1952    1.8085 C   0  0  0  0  0  0  0  0  0  0  0  0
    0.4188  -11.8936    1.9052 C   0  0  0  0  0  0  0  0  0  0  0  0
    0.3684  -13.3025    1.6006 C   0  0  0  0  0  0  0  0  0  0  0  0
    1.4597  -14.1126    1.9459 C   0  0  0  0  0  0  0  0  0  0  0  0
    1.4815  -14.5664    3.2261 C   0  0  0  0  0  0  0  0  0  0  0  0
    0.7376  -15.9305    3.1217 C   0  0  0  0  0  0  0  0  0  0  0  0
   -0.2869  -16.2420    4.0143 O   0  0  0  0  0  0  0  0  0  0  0  0
    1.6129  -17.0882    3.0075 O   0  0  0  0  0  0  0  0  0  0  0  0
    1.2760   -4.7691    1.7385 N   0  0  0  0  0  0  0  0  0  0  0  0
    1.7361   -5.1918    3.9199 O   0  0  0  0  0  0  0  0  0  0  0  0
    1.1474   -3.4185    1.8375 C   0  0  0  0  0  0  0  0  0  0  0  0
    2.1990   -2.7882    1.6806 C   0  0  0  0  0  0  0  0  0  0  0  0
  6  7  1  0
  3  8  1  0
  8  9  2  3
  9 10  1  0
 10 11  1  0
 11 12  1  0
 12 13  1  0
 13 14  1  0
 13 15  2  0
  7 16  1  0
  7 17  2  0
 16 18  1  0
 18 19  1  0
  1  2  2  0
  2  3  1  0
  3  4  2  0
  4  5  1  0
  5  6  2  0
  1  6  1  0
M  END

$$$$
No_1257-/export/home/yangzhenyu/potential_scad_32_flow//YTHDC2/2024-12-06-03-22-00/
     RDKit          3D

 20 21  0  0  1  0  0  0  0  0999 V2000
    1.1787   -8.0297    3.5154 C   0  0  0  0  0  0  0  0  0  0  0  0
    1.0491   -6.8434    2.9820 C   0  0  0  0  0  0  0  0  0  0  0  0
    0.0950   -8.8404    3.2292 C   0  0  0  0  0  0  0  0  0  0  0  0
   -0.9173   -8.4596    2.5152 C   0  0  0  0  0  0  0  0  0  0  0  0
   -1.0331   -7.2162    2.0653 C   0  0  0  0  0  0  0  0  0  0  0  0
   -0.0105   -6.3168    2.3081 C   0  0  0  0  0  0  0  0  0  0  0  0
    0.0485   -4.9783    1.8782 C   0  0  0  0  0  0  0  0  0  0  0  0
    0.9625   -4.1072    2.3252 N   0  0  0  0  0  0  0  0  0  0  0  0
   -0.3375   -4.6016    0.6171 N   0  0  0  0  0  0  0  0  0  0  0  0
    0.2188  -10.4717    3.7574 C   0  0  0  0  0  0  0  0  0  0  0  0
    1.2724  -10.9947    4.1752 C   0  0  0  0  0  0  0  0  0  0  0  0
    1.8338  -11.7978    3.2470 C   0  0  1  0  0  0  0  0  0  0  0  0
    1.4572  -13.0879    3.0765 C   0  0  0  0  0  0  0  0  0  0  0  0
    1.1334  -13.6341    1.7458 C   0  0  1  0  0  0  0  0  0  0  0  0
    1.4451  -12.7167    0.8260 C   0  0  0  0  0  0  0  0  0  0  0  0
    1.1513  -11.5491    1.2137 C   0  0  0  0  0  0  0  0  0  0  0  0
    1.6933  -10.9062    2.2245 C   0  0  0  0  0  0  0  0  0  0  0  0
    0.9931  -14.9782    1.7907 C   0  0  0  0  0  0  0  0  0  0  0  0
    1.5320  -15.9327    2.5712 C   0  0  0  0  0  0  0  0  0  0  0  0
    1.4937   -4.3157    3.1585 H   0  0  0  0  0  0  0  0  0  0  0  0
  6  7  1  0
  7  8  2  0
  7  9  1  0
  3 10  1  0
 10 11  1  0
 12 11  1  1
 12 13  1  0
 13 14  1  0
 14 15  1  0
 15 16  1  0
 12 17  1  0
 16 17  1  0
 14 18  1  6
 18 19  1  0
  1  2  2  0
  2  6  1  0
  5  6  2  0
  4  5  1  0
  3  4  2  0
  1  3  1  0
  8 20  1  0
M  END

$$$$
No_1258-/export/home/yangzhenyu/potential_scad_32_flow//YTHDC2/2024-12-06-03-22-00/
     RDKit          3D

 20 22  0  0  0  0  0  0  0  0999 V2000
    1.1787   -8.0297    3.5154 C   0  0  0  0  0  0  0  0  0  0  0  0
    1.0491   -6.8434    2.9820 C   0  0  0  0  0  0  0  0  0  0  0  0
    0.9905   -9.0774    2.6527 C   0  0  0  0  0  0  0  0  0  0  0  0
    0.7897   -8.9519    1.3691 C   0  0  0  0  0  0  0  0  0  0  0  0
    0.7018   -7.7198    0.7892 C   0  0  0  0  0  0  0  0  0  0  0  0
    0.8918   -6.5957    1.6117 C   0  0  0  0  0  0  0  0  0  0  0  0
    1.0711  -10.4814    3.2282 C   0  0  0  0  0  0  0  0  0  0  0  0
   -0.1055  -11.1328    3.5223 C   0  0  0  0  0  0  0  0  0  0  0  0
   -0.1824  -12.4513    3.3816 C   0  0  0  0  0  0  0  0  0  0  0  0
    0.9472  -13.2655    3.1726 C   0  0  0  0  0  0  0  0  0  0  0  0
    2.1715  -12.6012    2.9116 C   0  0  0  0  0  0  0  0  0  0  0  0
    2.2064  -11.2741    2.8264 C   0  0  0  0  0  0  0  0  0  0  0  0
    0.8996  -14.6381    3.2447 C   0  0  0  0  0  0  0  0  0  0  0  0
    0.6196  -15.4231    2.2851 C   0  0  0  0  0  0  0  0  0  0  0  0
    0.7342  -16.8495    2.5270 C   0  0  0  0  0  0  0  0  0  0  0  0
    0.9276  -17.3993    3.7344 C   0  0  0  0  0  0  0  0  0  0  0  0
    1.2121  -16.5347    4.8246 C   0  0  0  0  0  0  0  0  0  0  0  0
    1.0693  -15.1825    4.6592 C   0  0  0  0  0  0  0  0  0  0  0  0
    0.8514   -5.0508    1.0497 O   0  0  0  0  0  0  0  0  0  0  0  0
   -0.2923   -4.4520    1.2325 C   0  0  0  0  0  0  0  0  0  0  0  0
  3  7  1  0
 10 13  1  0
  6 19  1  0
 19 20  1  0
 13 14  2  0
 14 15  1  0
 15 16  2  0
 16 17  1  0
 17 18  2  0
 13 18  1  0
  1  2  2  0
  2  6  1  0
  5  6  2  0
  4  5  1  0
  3  4  2  0
  1  3  1  0
  7  8  2  0
  8  9  1  0
  9 10  2  0
 10 11  1  0
 11 12  2  0
  7 12  1  0
M  END

$$$$
No_1259-/export/home/yangzhenyu/potential_scad_32_flow//YTHDC2/2024-12-06-03-22-00/
     RDKit          3D

 18 19  0  0  1  0  0  0  0  0999 V2000
    1.1787   -8.0297    3.5154 C   0  0  0  0  0  0  0  0  0  0  0  0
    1.1048   -9.2215    3.2892 C   0  0  0  0  0  0  0  0  0  0  0  0
    1.3627  -10.1721    4.3044 C   0  0  0  0  0  0  0  0  0  0  0  0
    1.0682  -11.5187    4.0618 C   0  0  0  0  0  0  0  0  0  0  0  0
    0.6332  -11.9655    2.9682 C   0  0  0  0  0  0  0  0  0  0  0  0
    0.4776  -11.1308    1.9203 C   0  0  0  0  0  0  0  0  0  0  0  0
    0.7470   -9.8274    2.0368 C   0  0  0  0  0  0  0  0  0  0  0  0
    0.5535   -7.1314    2.6861 C   0  0  0  0  0  0  0  0  0  0  0  0
    0.2950   -7.6000    1.3275 C   0  0  0  0  0  0  0  0  0  0  0  0
    0.2692   -8.8631    1.0973 C   0  0  1  0  0  0  0  0  0  0  0  0
   -0.0070   -6.7080    0.3888 O   0  0  0  0  0  0  0  0  0  0  0  0
    0.4919  -13.3974    2.7286 C   0  0  0  0  0  0  0  0  0  0  0  0
    1.3232  -14.3394    3.2226 N   0  0  0  0  0  0  0  0  0  0  0  0
    1.4710  -15.5153    2.7799 C   0  0  0  0  0  0  0  0  0  0  0  0
    0.6868  -16.5310    3.1284 O   0  0  0  0  0  0  0  0  0  0  0  0
    2.6702  -15.8128    1.9868 O   0  0  0  0  0  0  0  0  0  0  0  0
    0.0188   -9.3071   -0.1931 C   0  0  0  0  0  0  0  0  0  0  0  0
    0.8356   -9.2278   -1.2165 O   0  0  0  0  0  0  0  0  0  0  0  0
  1  2  1  0
  8  9  1  0
  7 10  1  0
  9 10  1  0
  9 11  2  0
  5 12  1  0
 12 13  1  0
 13 14  1  0
 14 15  2  0
 14 16  1  0
 10 17  1  6
 17 18  2  0
  1  8  1  0
  2  3  2  0
  3  4  1  0
  4  5  2  0
  5  6  1  0
  6  7  2  0
  2  7  1  0
M  END

$$$$
No_1260-/export/home/yangzhenyu/potential_scad_32_flow//YTHDC2/2024-12-06-03-22-00/
     RDKit          3D

 19 20  0  0  0  0  0  0  0  0999 V2000
    1.1787   -8.0297    3.5154 C   0  0  0  0  0  0  0  0  0  0  0  0
    1.1048   -9.2215    3.2892 C   0  0  0  0  0  0  0  0  0  0  0  0
    1.3627  -10.1721    4.3044 C   0  0  0  0  0  0  0  0  0  0  0  0
    1.7354  -11.4730    3.9023 C   0  0  0  0  0  0  0  0  0  0  0  0
    1.8080  -11.8127    2.7216 C   0  0  0  0  0  0  0  0  0  0  0  0
    1.5854  -11.0021    1.7249 C   0  0  0  0  0  0  0  0  0  0  0  0
    1.3573   -9.7389    1.9287 C   0  0  0  0  0  0  0  0  0  0  0  0
    1.1102   -8.8712    0.9017 C   0  0  0  0  0  0  0  0  0  0  0  0
    1.5724   -9.1697   -0.3048 N   0  0  0  0  0  0  0  0  0  0  0  0
    0.2509   -7.8381    0.9166 N   0  0  0  0  0  0  0  0  0  0  0  0
    2.1200  -13.2053    2.3275 C   0  0  0  0  0  0  0  0  0  0  0  0
    2.4628  -13.5715    1.0696 O   0  0  0  0  0  0  0  0  0  0  0  0
    2.0857  -14.1900    3.2167 O   0  0  0  0  0  0  0  0  0  0  0  0
    1.2080   -6.9052    2.9224 C   0  0  0  0  0  0  0  0  0  0  0  0
    0.6204   -6.7849    1.5985 C   0  0  0  0  0  0  0  0  0  0  0  0
    0.0875   -5.4367    1.1112 C   0  0  0  0  0  0  0  0  0  0  0  0
    0.8882   -4.3890    1.3993 O   0  0  0  0  0  0  0  0  0  0  0  0
   -1.1130   -5.2649    0.8347 O   0  0  0  0  0  0  0  0  0  0  0  0
    2.1643   -9.9780   -0.4331 H   0  0  0  0  0  0  0  0  0  0  0  0
  1  2  1  0
  7  8  1  0
  8  9  2  0
  8 10  1  0
  5 11  1  0
 11 12  2  0
 11 13  1  0
  1 14  2  0
 10 15  2  0
 14 15  1  0
 15 16  1  0
 16 17  2  0
 16 18  1  0
  2  3  2  0
  3  4  1  0
  4  5  2  0
  5  6  1  0
  6  7  2  0
  2  7  1  0
  9 19  1  0
M  END

$$$$
No_1261-/export/home/yangzhenyu/potential_scad_32_flow//YTHDC2/2024-12-06-03-22-00/
     RDKit          3D

 18 20  0  0  1  0  0  0  0  0999 V2000
    1.1787   -8.0297    3.5154 C   0  0  0  0  0  0  0  0  0  0  0  0
    1.1048   -9.2215    3.2892 C   0  0  0  0  0  0  0  0  0  0  0  0
    1.2339   -9.7611    2.0189 C   0  0  0  0  0  0  0  0  0  0  0  0
    1.3583   -9.0036    0.9764 C   0  0  0  0  0  0  0  0  0  0  0  0
    1.5996   -7.6362    1.1311 C   0  0  0  0  0  0  0  0  0  0  0  0
    1.4830   -7.0928    2.3626 C   0  0  0  0  0  0  0  0  0  0  0  0
    1.5395   -5.7300    2.6182 C   0  0  0  0  0  0  0  0  0  0  0  0
    1.1775  -11.2233    1.8407 C   0  0  2  0  0  0  0  0  0  0  0  0
    1.9057  -12.1147    2.3397 C   0  0  0  0  0  0  0  0  0  0  0  0
    1.2923  -13.3224    2.7485 C   0  0  0  0  0  0  0  0  0  0  0  0
    0.7433  -14.1681    1.8127 C   0  0  0  0  0  0  0  0  0  0  0  0
    0.1856  -13.6834    0.8520 C   0  0  0  0  0  0  0  0  0  0  0  0
    0.4406  -12.0936    0.6532 C   0  0  0  0  0  0  0  0  0  0  0  0
    0.6749  -15.4899    2.0697 C   0  0  0  0  0  0  0  0  0  0  0  0
   -0.3999  -16.2312    1.7240 C   0  0  0  0  0  0  0  0  0  0  0  0
   -0.4271  -14.1884   -0.1540 C   0  0  0  0  0  0  0  0  0  0  0  0
   -0.5701  -17.6011    1.9591 C   0  0  0  0  0  0  0  0  0  0  0  0
   -0.8146  -15.6129    0.2466 C   0  0  0  0  0  0  0  0  0  0  0  0
  6  7  1  0
  8  3  1  6
  8  9  1  0
  9 10  1  0
 10 11  1  0
  8 13  1  0
 12 13  1  0
 15 17  1  0
  1  2  2  0
  2  3  1  0
  3  4  2  0
  4  5  1  0
  5  6  2  0
  1  6  1  0
 11 12  2  0
 12 16  1  0
 16 18  2  0
 15 18  1  0
 14 15  2  0
 11 14  1  0
M  END

$$$$
No_1262-/export/home/yangzhenyu/potential_scad_32_flow//YTHDC2/2024-12-06-03-22-00/
     RDKit          3D

 19 20  0  0  1  0  0  0  0  0999 V2000
    1.1787   -8.0297    3.5154 C   0  0  0  0  0  0  0  0  0  0  0  0
    1.1048   -9.2215    3.2892 C   0  0  0  0  0  0  0  0  0  0  0  0
    1.3627  -10.1721    4.3044 C   0  0  0  0  0  0  0  0  0  0  0  0
    1.0682  -11.5187    4.0618 C   0  0  0  0  0  0  0  0  0  0  0  0
    0.6332  -11.9655    2.9682 C   0  0  0  0  0  0  0  0  0  0  0  0
    0.4776  -11.1308    1.9203 C   0  0  0  0  0  0  0  0  0  0  0  0
    0.7470   -9.8274    2.0368 C   0  0  0  0  0  0  0  0  0  0  0  0
    1.0387   -7.0301    2.5175 N   0  0  0  0  0  0  0  0  0  0  0  0
    1.3639   -7.4200    1.2802 C   0  0  0  0  0  0  0  0  0  0  0  0
    1.0214   -8.7094    0.9389 C   0  0  0  0  0  0  0  0  0  0  0  0
    0.8898   -9.1364   -0.2815 C   0  0  0  0  0  0  0  0  0  0  0  0
   -0.4940   -9.3658   -0.6716 O   0  0  0  0  0  0  0  0  0  0  0  0
    1.6928   -9.3514   -1.1767 O   0  0  0  0  0  0  0  0  0  0  0  0
    0.4901  -13.3758    2.6876 C   0  0  1  0  0  0  0  0  0  0  0  0
   -0.6891  -13.9321    2.3898 N   0  0  0  0  0  0  0  0  0  0  0  0
    1.5411  -14.1426    2.1114 C   0  0  0  0  0  0  0  0  0  0  0  0
    1.4778  -15.4584    2.0652 C   0  0  0  0  0  0  0  0  0  0  0  0
    2.6533  -16.2140    1.5991 N   0  0  0  0  0  0  0  0  0  0  0  0
    0.2490  -16.0924    2.2360 C   0  0  0  0  0  0  0  0  0  0  0  0
  1  2  1  0
  1  8  1  0
  8  9  1  0
  7 10  1  0
  9 10  1  0
 10 11  1  0
 11 12  2  0
 11 13  1  0
  5 14  1  0
 14 15  1  6
 14 16  1  0
 16 17  2  3
 17 18  1  0
 17 19  1  0
  2  3  2  0
  3  4  1  0
  4  5  2  0
  5  6  1  0
  6  7  2  0
  2  7  1  0
M  END

$$$$
No_1263-/export/home/yangzhenyu/potential_scad_32_flow//YTHDC2/2024-12-06-03-22-00/
     RDKit          3D

 20 22  0  0  0  0  0  0  0  0999 V2000
    1.1787   -8.0297    3.5154 C   0  0  0  0  0  0  0  0  0  0  0  0
    1.1048   -9.2215    3.2892 C   0  0  0  0  0  0  0  0  0  0  0  0
    1.3627  -10.1721    4.3044 C   0  0  0  0  0  0  0  0  0  0  0  0
    1.7354  -11.4730    3.9023 C   0  0  0  0  0  0  0  0  0  0  0  0
    1.8080  -11.8127    2.7216 C   0  0  0  0  0  0  0  0  0  0  0  0
    1.5854  -11.0021    1.7249 C   0  0  0  0  0  0  0  0  0  0  0  0
    1.3573   -9.7389    1.9287 C   0  0  0  0  0  0  0  0  0  0  0  0
    1.2865   -8.8078    0.9161 C   0  0  0  0  0  0  0  0  0  0  0  0
    0.9210   -7.5140    1.1674 C   0  0  0  0  0  0  0  0  0  0  0  0
    1.0097   -7.0192    2.4369 C   0  0  0  0  0  0  0  0  0  0  0  0
    0.8553   -5.6437    2.6966 C   0  0  0  0  0  0  0  0  0  0  0  0
    2.0476  -13.2622    2.4252 C   0  0  0  0  0  0  0  0  0  0  0  0
    1.1121  -14.0545    1.8957 C   0  0  0  0  0  0  0  0  0  0  0  0
    0.0899  -13.6120    1.5921 C   0  0  0  0  0  0  0  0  0  0  0  0
   -1.0320  -13.7185    2.4217 C   0  0  0  0  0  0  0  0  0  0  0  0
   -2.2682  -13.1038    2.3540 C   0  0  0  0  0  0  0  0  0  0  0  0
   -2.5429  -12.4222    1.2974 C   0  0  0  0  0  0  0  0  0  0  0  0
   -1.5904  -12.3034    0.2566 C   0  0  0  0  0  0  0  0  0  0  0  0
   -0.3445  -12.9231    0.3799 C   0  0  0  0  0  0  0  0  0  0  0  0
    1.2279   -4.7910    1.8264 O   0  0  0  0  0  0  0  0  0  0  0  0
 10 11  1  0
  5 12  1  0
 12 13  1  0
 13 14  1  0
 11 20  2  0
  1  2  2  0
  7  8  2  0
  8  9  1  0
  9 10  2  0
  1 10  1  0
  2  3  1  0
  3  4  2  0
  4  5  1  0
  5  6  2  0
  6  7  1  0
  2  7  1  0
 14 15  2  0
 15 16  1  0
 16 17  2  0
 17 18  1  0
 18 19  2  0
 14 19  1  0
M  END

$$$$
No_1264-/export/home/yangzhenyu/potential_scad_32_flow//YTHDC2/2024-12-06-03-22-00/
     RDKit          3D

 19 20  0  0  1  0  0  0  0  0999 V2000
    1.1787   -8.0297    3.5154 N   0  0  0  0  0  0  0  0  0  0  0  0
    0.8669   -7.0905    2.8589 C   0  0  0  0  0  0  0  0  0  0  0  0
    1.0447   -7.3244    1.4123 C   0  0  0  0  0  0  0  0  0  0  0  0
    1.3942   -8.6358    1.3800 C   0  0  1  0  0  0  0  0  0  0  0  0
    1.8973   -9.2189    0.1308 C   0  0  0  0  0  0  0  0  0  0  0  0
    1.7355   -9.0428    2.5696 C   0  0  2  0  0  0  0  0  0  0  0  0
    2.0062  -10.4008    0.0353 O   0  0  0  0  0  0  0  0  0  0  0  0
    1.8668   -8.5384   -1.0458 O   0  0  0  0  0  0  0  0  0  0  0  0
    2.1108  -10.2429    2.9489 C   0  0  0  0  0  0  0  0  0  0  0  0
    1.3418  -11.1100    3.8614 C   0  0  0  0  0  0  0  0  0  0  0  0
    0.1630  -10.6763    4.1822 O   0  0  0  0  0  0  0  0  0  0  0  0
    1.8045  -12.1462    4.3984 O   0  0  0  0  0  0  0  0  0  0  0  0
    0.5677   -5.7529    3.2622 C   0  0  0  0  0  0  0  0  0  0  0  0
   -0.5814   -5.2103    3.0561 C   0  0  0  0  0  0  0  0  0  0  0  0
    1.6945   -4.9804    3.8161 C   0  0  0  0  0  0  0  0  0  0  0  0
   -0.8745   -3.9016    3.4251 C   0  0  0  0  0  0  0  0  0  0  0  0
    0.2403   -3.0878    3.8110 C   0  0  0  0  0  0  0  0  0  0  0  0
    1.4481   -3.6142    4.1053 C   0  0  0  0  0  0  0  0  0  0  0  0
   -1.6921   -5.8888    2.5326 C   0  0  0  0  0  0  0  0  0  0  0  0
  1  2  1  0
  2  3  2  0
  3  4  1  0
  4  5  1  6
  1  6  1  0
  4  6  1  0
  5  7  2  0
  5  8  1  0
  6  9  1  1
  9 10  1  0
 10 11  2  0
 10 12  1  0
  2 13  1  0
 14 19  1  0
 13 14  2  0
 14 16  1  0
 16 17  2  0
 17 18  1  0
 15 18  2  0
 13 15  1  0
M  END

$$$$
No_1265-/export/home/yangzhenyu/potential_scad_32_flow//YTHDC2/2024-12-06-03-22-00/
     RDKit          3D

 20 21  0  0  0  0  0  0  0  0999 V2000
    1.1787   -8.0297    3.5154 C   0  0  0  0  0  0  0  0  0  0  0  0
    1.1048   -9.2215    3.2892 C   0  0  0  0  0  0  0  0  0  0  0  0
    1.2339   -9.7611    2.0189 C   0  0  0  0  0  0  0  0  0  0  0  0
    1.3583   -9.0036    0.9764 C   0  0  0  0  0  0  0  0  0  0  0  0
    1.5996   -7.6362    1.1311 C   0  0  0  0  0  0  0  0  0  0  0  0
    1.4830   -7.0928    2.3626 C   0  0  0  0  0  0  0  0  0  0  0  0
    1.4898   -5.7274    2.6199 C   0  0  0  0  0  0  0  0  0  0  0  0
    1.1681  -11.2222    1.8390 C   0  0  0  0  0  0  0  0  0  0  0  0
    0.5014  -11.9760    2.2068 C   0  0  0  0  0  0  0  0  0  0  0  0
    0.4167  -13.3685    2.0527 C   0  0  0  0  0  0  0  0  0  0  0  0
    1.5984  -14.1574    2.4634 C   0  0  0  0  0  0  0  0  0  0  0  0
    1.8283  -15.3606    2.3190 C   0  0  0  0  0  0  0  0  0  0  0  0
    0.9181  -16.1655    1.7275 C   0  0  0  0  0  0  0  0  0  0  0  0
   -0.2543  -15.6194    1.3332 C   0  0  0  0  0  0  0  0  0  0  0  0
   -0.4812  -14.2719    1.4803 C   0  0  0  0  0  0  0  0  0  0  0  0
    1.7010   -5.1716    3.8674 O   0  0  0  0  0  0  0  0  0  0  0  0
    1.3302   -4.8273    1.6684 O   0  0  0  0  0  0  0  0  0  0  0  0
   -1.0159  -13.6852    0.4856 C   0  0  0  0  0  0  0  0  0  0  0  0
   -0.8112  -13.6063   -0.7915 C   0  0  0  0  0  0  0  0  0  0  0  0
   -1.4951  -13.1003   -1.8465 C   0  0  0  0  0  0  0  0  0  0  0  0
  6  7  1  0
  3  8  1  0
  8  9  2  3
  9 10  1  0
  7 16  1  0
  7 17  2  0
 15 18  1  0
 18 19  1  0
 19 20  2  0
  1  2  2  0
  2  3  1  0
  3  4  2  0
  4  5  1  0
  5  6  2  0
  1  6  1  0
 10 11  2  0
 11 12  1  0
 12 13  2  0
 13 14  1  0
 14 15  2  0
 10 15  1  0
M  END

$$$$
No_1266-/export/home/yangzhenyu/potential_scad_32_flow//YTHDC2/2024-12-06-03-22-00/
     RDKit          3D

 19 20  0  0  0  0  0  0  0  0999 V2000
    1.1787   -8.0297    3.5154 C   0  0  0  0  0  0  0  0  0  0  0  0
    1.0491   -6.8434    2.9820 C   0  0  0  0  0  0  0  0  0  0  0  0
    1.9985   -8.9840    2.8958 C   0  0  0  0  0  0  0  0  0  0  0  0
    1.9135  -10.3404    3.6266 C   0  0  0  0  0  0  0  0  0  0  0  0
    0.7479  -10.9191    3.7202 C   0  0  0  0  0  0  0  0  0  0  0  0
    1.3327   -6.5751    1.7543 C   0  0  0  0  0  0  0  0  0  0  0  0
    0.0662  -11.2678    2.6662 C   0  0  0  0  0  0  0  0  0  0  0  0
    1.8110   -7.6675    0.9610 C   0  0  0  0  0  0  0  0  0  0  0  0
    2.1184   -8.8482    1.4929 C   0  0  0  0  0  0  0  0  0  0  0  0
   -1.0967  -10.8316    2.4563 C   0  0  0  0  0  0  0  0  0  0  0  0
   -1.7962  -11.0671    1.2664 C   0  0  0  0  0  0  0  0  0  0  0  0
   -2.9585  -10.4306    1.0997 C   0  0  0  0  0  0  0  0  0  0  0  0
   -3.6035   -9.7553    2.0949 C   0  0  0  0  0  0  0  0  0  0  0  0
   -2.9896   -9.4594    3.2767 C   0  0  0  0  0  0  0  0  0  0  0  0
   -1.6882   -9.9441    3.4972 C   0  0  0  0  0  0  0  0  0  0  0  0
    2.5060   -9.8720    0.8381 C   0  0  0  0  0  0  0  0  0  0  0  0
    2.2452   -9.9946   -0.4212 O   0  0  0  0  0  0  0  0  0  0  0  0
   -4.7738   -9.0716    1.8032 O   0  0  0  0  0  0  0  0  0  0  0  0
   -3.5780   -8.4845    4.3588 I   0  0  0  0  0  0  0  0  0  0  0  0
  3  4  1  0
  4  5  1  0
  5  7  1  0
  9 16  1  0
 16 17  2  0
 13 18  1  0
 14 19  1  0
  7 10  1  0
  1  2  2  0
  2  6  1  0
  6  8  2  0
  8  9  1  0
  3  9  2  0
  1  3  1  0
 10 11  2  0
 11 12  1  0
 12 13  2  0
 13 14  1  0
 14 15  2  0
 10 15  1  0
M  END

$$$$
No_1267-/export/home/yangzhenyu/potential_scad_32_flow//YTHDC2/2024-12-06-03-22-00/
     RDKit          3D

 18 19  0  0  0  0  0  0  0  0999 V2000
    1.1787   -8.0297    3.5154 C   0  0  0  0  0  0  0  0  0  0  0  0
    1.1048   -9.2215    3.2892 C   0  0  0  0  0  0  0  0  0  0  0  0
    1.2339   -9.7611    2.0189 C   0  0  0  0  0  0  0  0  0  0  0  0
    1.1954  -11.2312    1.8661 C   0  0  0  0  0  0  0  0  0  0  0  0
    1.2996  -11.5815    0.5387 C   0  0  0  0  0  0  0  0  0  0  0  0
    0.9523   -7.0603    4.0246 C   0  0  0  0  0  0  0  0  0  0  0  0
    1.2477  -12.9867    0.5173 C   0  0  0  0  0  0  0  0  0  0  0  0
    1.0524  -11.7467    2.9981 C   0  0  0  0  0  0  0  0  0  0  0  0
    0.9915  -13.2613    2.8158 C   0  0  0  0  0  0  0  0  0  0  0  0
    1.0994  -13.8907    1.6597 C   0  0  0  0  0  0  0  0  0  0  0  0
    1.3670   -8.8195    0.8393 C   0  0  0  0  0  0  0  0  0  0  0  0
    0.7999   -7.6738    0.7958 C   0  0  0  0  0  0  0  0  0  0  0  0
    1.0196   -7.0624    2.1629 C   0  0  0  0  0  0  0  0  0  0  0  0
    1.2073  -15.2285    1.5627 C   0  0  0  0  0  0  0  0  0  0  0  0
    0.4051  -15.9510    0.8399 C   0  0  0  0  0  0  0  0  0  0  0  0
    0.6489  -17.3924    0.7774 C   0  0  0  0  0  0  0  0  0  0  0  0
    1.7630  -17.9306    1.6303 C   0  0  0  0  0  0  0  0  0  0  0  0
    2.4805  -17.1240    2.4184 C   0  0  0  0  0  0  0  0  0  0  0  0
  3  4  1  0
  1  6  1  0
 10 14  1  0
 14 15  2  3
 15 16  1  0
 16 17  2  3
 17 18  1  0
  1  2  2  0
  2  3  1  0
  3 11  2  0
 11 12  1  0
 12 13  2  0
  1 13  1  0
  4  5  2  0
  5  7  1  0
  7 10  2  0
  9 10  1  0
  8  9  2  0
  4  8  1  0
M  END

$$$$
No_1268-/export/home/yangzhenyu/potential_scad_32_flow//YTHDC2/2024-12-06-03-22-00/
     RDKit          3D

 17 18  0  0  1  0  0  0  0  0999 V2000
    1.1787   -8.0297    3.5154 C   0  0  0  0  0  0  0  0  0  0  0  0
    1.1048   -9.2215    3.2892 C   0  0  0  0  0  0  0  0  0  0  0  0
    1.2339   -9.7611    2.0189 C   0  0  0  0  0  0  0  0  0  0  0  0
    1.3583   -9.0036    0.9764 C   0  0  0  0  0  0  0  0  0  0  0  0
    1.5996   -7.6362    1.1311 C   0  0  0  0  0  0  0  0  0  0  0  0
    1.4830   -7.0928    2.3626 C   0  0  0  0  0  0  0  0  0  0  0  0
    1.1008  -11.2372    1.8542 C   0  0  1  0  0  0  0  0  0  0  0  0
    0.4812  -11.6084    0.6459 C   0  0  0  0  0  0  0  0  0  0  0  0
    0.5134  -13.0269    0.4830 C   0  0  0  0  0  0  0  0  0  0  0  0
    1.2057  -13.8685    1.2734 C   0  0  2  0  0  0  0  0  0  0  0  0
    1.9819  -13.3990    2.3594 C   0  0  1  0  0  0  0  0  0  0  0  0
    1.8610  -12.0988    2.6716 C   0  0  0  0  0  0  0  0  0  0  0  0
    2.4163  -11.5839    3.7861 O   0  0  0  0  0  0  0  0  0  0  0  0
    1.5574   -5.6480    2.6418 Cl  0  0  0  0  0  0  0  0  0  0  0  0
    1.5385   -9.4510   -0.3483 I   0  0  0  0  0  0  0  0  0  0  0  0
    2.6522  -14.4382    3.2803 O   0  0  0  0  0  0  0  0  0  0  0  0
    1.4465  -15.5157    0.9244 O   0  0  0  0  0  0  0  0  0  0  0  0
  7  3  1  6
  7  8  1  0
  9 10  1  0
  7 12  1  0
 11 12  1  0
 12 13  2  0
  6 14  1  0
  4 15  1  0
 11 16  1  1
 10 17  1  6
  8  9  1  0
 10 11  1  0
  1  2  2  0
  2  3  1  0
  3  4  2  0
  4  5  1  0
  5  6  2  0
  1  6  1  0
M  END

$$$$
No_1269-/export/home/yangzhenyu/potential_scad_32_flow//YTHDC2/2024-12-06-03-22-00/
     RDKit          3D

 18 18  0  0  1  0  0  0  0  0999 V2000
    1.1787   -8.0297    3.5154 C   0  0  0  0  0  0  0  0  0  0  0  0
    1.0491   -6.8434    2.9820 C   0  0  0  0  0  0  0  0  0  0  0  0
    0.9905   -9.0774    2.6527 C   0  0  0  0  0  0  0  0  0  0  0  0
    0.7897   -8.9519    1.3691 C   0  0  0  0  0  0  0  0  0  0  0  0
    0.7018   -7.7198    0.7892 C   0  0  0  0  0  0  0  0  0  0  0  0
    0.8918   -6.5957    1.6117 C   0  0  0  0  0  0  0  0  0  0  0  0
    1.0998  -10.4710    3.2437 C   0  0  1  0  0  0  0  0  0  0  0  0
    2.1917  -10.8879    3.7399 N   0  0  0  0  0  0  0  0  0  0  0  0
    0.8583   -5.2458    1.2490 C   0  0  0  0  0  0  0  0  0  0  0  0
    0.0777  -11.2490    3.3180 C   0  0  0  0  0  0  0  0  0  0  0  0
   -1.1096  -10.6304    3.8026 O   0  0  0  0  0  0  0  0  0  0  0  0
   -0.1580  -12.3908    2.7005 N   0  0  0  0  0  0  0  0  0  0  0  0
   -0.2343   -4.7290    0.7905 O   0  0  0  0  0  0  0  0  0  0  0  0
    1.8443   -4.4533    1.3524 O   0  0  0  0  0  0  0  0  0  0  0  0
   -1.2091  -13.1572    2.7241 C   0  0  0  0  0  0  0  0  0  0  0  0
   -1.0059  -14.5379    2.7938 C   0  0  0  0  0  0  0  0  0  0  0  0
    0.3655  -15.0342    2.9342 C   0  0  0  0  0  0  0  0  0  0  0  0
    0.5755  -16.3690    3.0408 C   0  0  0  0  0  0  0  0  0  0  0  0
  3  7  1  0
  7  8  1  1
  6  9  1  0
  7 10  1  0
 10 11  2  0
 10 12  1  0
  9 13  2  0
  9 14  1  0
 12 15  1  0
 15 16  1  0
 16 17  2  3
 17 18  1  0
  1  2  2  0
  2  6  1  0
  5  6  2  0
  4  5  1  0
  3  4  2  0
  1  3  1  0
M  END

$$$$
No_1270-/export/home/yangzhenyu/potential_scad_32_flow//YTHDC2/2024-12-06-03-22-00/
     RDKit          3D

 19 19  0  0  0  0  0  0  0  0999 V2000
    1.1787   -8.0297    3.5154 C   0  0  0  0  0  0  0  0  0  0  0  0
    1.1048   -9.2215    3.2892 C   0  0  0  0  0  0  0  0  0  0  0  0
    1.2339   -9.7611    2.0189 C   0  0  0  0  0  0  0  0  0  0  0  0
    1.3583   -9.0036    0.9764 C   0  0  0  0  0  0  0  0  0  0  0  0
    1.7077   -9.6100   -0.3010 C   0  0  0  0  0  0  0  0  0  0  0  0
    1.3637   -7.1087    2.3226 C   0  0  0  0  0  0  0  0  0  0  0  0
    1.4257   -7.6645    1.0231 C   0  0  0  0  0  0  0  0  0  0  0  0
    1.6722  -10.7840   -0.4044 O   0  0  0  0  0  0  0  0  0  0  0  0
    1.4862   -8.9147   -1.4018 O   0  0  0  0  0  0  0  0  0  0  0  0
    1.1436  -10.3161    4.5770 Cl  0  0  0  0  0  0  0  0  0  0  0  0
    1.3171   -5.6009    2.5618 Cl  0  0  0  0  0  0  0  0  0  0  0  0
    1.3349  -11.3694    1.9439 N   0  0  0  0  0  0  0  0  0  0  0  0
    1.1622  -12.2263    2.4734 C   0  0  0  0  0  0  0  0  0  0  0  0
    0.0911  -12.9480    2.5088 C   0  0  0  0  0  0  0  0  0  0  0  0
    0.0255  -14.3157    3.0377 O   0  0  0  0  0  0  0  0  0  0  0  0
   -1.0650  -12.6089    2.0337 O   0  0  0  0  0  0  0  0  0  0  0  0
    2.1596  -12.9383    3.0463 O   0  0  0  0  0  0  0  0  0  0  0  0
   -0.0161  -15.3962    2.2089 C   0  0  0  0  0  0  0  0  0  0  0  0
    0.1267  -16.5392    3.0145 C   0  0  0  0  0  0  0  0  0  0  0  0
  4  5  1  0
  5  8  2  0
  5  9  1  0
  2 10  1  0
  6 11  1  0
  3 12  1  0
 12 13  1  0
 13 14  1  0
 14 15  1  0
 14 16  2  0
 13 17  2  0
 15 18  1  0
 18 19  1  0
  1  2  2  0
  2  3  1  0
  3  4  2  0
  4  7  1  0
  6  7  2  0
  1  6  1  0
M  END

$$$$
No_1271-/export/home/yangzhenyu/potential_scad_32_flow//YTHDC2/2024-12-06-03-22-00/
     RDKit          3D

 17 18  0  0  1  0  0  0  0  0999 V2000
    1.1787   -8.0297    3.5154 C   0  0  0  0  0  0  0  0  0  0  0  0
    1.1048   -9.2215    3.2892 C   0  0  0  0  0  0  0  0  0  0  0  0
    1.2339   -9.7611    2.0189 C   0  0  1  0  0  0  0  0  0  0  0  0
    1.1954  -11.2312    1.8661 C   0  0  0  0  0  0  0  0  0  0  0  0
    1.5546  -12.1691    2.7931 C   0  0  0  0  0  0  0  0  0  0  0  0
    0.5849   -7.0929    2.5729 C   0  0  2  0  0  0  0  0  0  0  0  0
    0.5567   -7.6699    1.1955 C   0  0  0  0  0  0  0  0  0  0  0  0
    0.7903   -8.9699    0.9209 C   0  0  0  0  0  0  0  0  0  0  0  0
    1.5521  -13.4960    2.3485 C   0  0  0  0  0  0  0  0  0  0  0  0
    1.2403  -13.8919    1.1557 C   0  0  0  0  0  0  0  0  0  0  0  0
    1.0311  -12.9707    0.1488 C   0  0  0  0  0  0  0  0  0  0  0  0
    0.9678  -11.6394    0.4949 C   0  0  0  0  0  0  0  0  0  0  0  0
    0.6235   -5.6335    2.6368 C   0  0  0  0  0  0  0  0  0  0  0  0
    0.3286   -6.8520    0.1792 O   0  0  0  0  0  0  0  0  0  0  0  0
   -0.5946   -5.0169    2.5569 C   0  0  0  0  0  0  0  0  0  0  0  0
    1.7800   -4.8784    3.0008 C   0  0  0  0  0  0  0  0  0  0  0  0
   -0.6394   -3.6255    2.5655 C   0  0  0  0  0  0  0  0  0  0  0  0
  1  2  1  0
  3  4  1  1
  6  7  1  0
  3  8  1  0
  7  8  1  0
  6 13  1  0
  7 14  2  0
 13 15  2  3
 13 16  1  0
 15 17  1  0
  6  1  1  6
  2  3  1  0
  4  5  2  0
  5  9  1  0
  9 10  2  0
 10 11  1  0
 11 12  2  0
  4 12  1  0
M  END

$$$$
No_1272-/export/home/yangzhenyu/potential_scad_32_flow//YTHDC2/2024-12-06-03-22-00/
     RDKit          3D

 17 17  0  0  1  0  0  0  0  0999 V2000
    1.1787   -8.0297    3.5154 C   0  0  0  0  0  0  0  0  0  0  0  0
    1.0491   -6.8434    2.9820 C   0  0  0  0  0  0  0  0  0  0  0  0
    0.0950   -8.8404    3.2292 C   0  0  0  0  0  0  0  0  0  0  0  0
    0.0602  -10.1764    3.8231 C   0  0  0  0  0  0  0  0  0  0  0  0
    0.2248   -6.3830    2.0648 C   0  0  0  0  0  0  0  0  0  0  0  0
   -0.6745   -7.2322    1.6857 C   0  0  0  0  0  0  0  0  0  0  0  0
   -0.7374   -8.4992    2.1291 C   0  0  0  0  0  0  0  0  0  0  0  0
    1.0517  -10.8728    4.0967 C   0  0  0  0  0  0  0  0  0  0  0  0
    2.3550  -10.7132    3.6249 C   0  0  0  0  0  0  0  0  0  0  0  0
    0.3532   -5.1181    1.3971 C   0  0  0  0  0  0  0  0  0  0  0  0
    1.2241   -4.2589    1.9627 O   0  0  0  0  0  0  0  0  0  0  0  0
   -0.3836   -4.6997    0.5757 O   0  0  0  0  0  0  0  0  0  0  0  0
    2.4734  -10.6180    2.2284 C   0  0  0  0  0  0  0  0  0  0  0  0
    1.9220  -11.4162    1.3465 C   0  0  1  0  0  0  0  0  0  0  0  0
    1.7356  -12.7063    1.6626 C   0  0  0  0  0  0  0  0  0  0  0  0
    1.3322  -10.8950    0.2339 C   0  0  0  0  0  0  0  0  0  0  0  0
    1.6907   -9.7455   -0.2921 O   0  0  0  0  0  0  0  0  0  0  0  0
  3  4  1  0
  4  8  2  3
  8  9  1  0
  5 10  1  0
 10 11  2  0
 10 12  1  0
  9 13  1  0
 13 14  1  0
 14 15  1  1
 14 16  1  0
 16 17  2  0
  1  2  2  0
  2  5  1  0
  5  6  2  0
  6  7  1  0
  3  7  2  0
  1  3  1  0
M  END

$$$$
No_1273-/export/home/yangzhenyu/potential_scad_32_flow//YTHDC2/2024-12-06-03-22-00/
     RDKit          3D

 19 19  0  0  1  0  0  0  0  0999 V2000
    1.1787   -8.0297    3.5154 C   0  0  0  0  0  0  0  0  0  0  0  0
    1.0491   -6.8434    2.9820 C   0  0  0  0  0  0  0  0  0  0  0  0
    0.0950   -8.8404    3.2292 C   0  0  0  0  0  0  0  0  0  0  0  0
   -0.9173   -8.4596    2.5152 C   0  0  0  0  0  0  0  0  0  0  0  0
   -1.0331   -7.2162    2.0653 C   0  0  0  0  0  0  0  0  0  0  0  0
   -0.0105   -6.3168    2.3081 C   0  0  0  0  0  0  0  0  0  0  0  0
    0.1465  -10.2446    3.6981 C   0  0  0  0  0  0  0  0  0  0  0  0
   -1.0336  -10.8619    3.9439 O   0  0  0  0  0  0  0  0  0  0  0  0
    1.2886  -10.9585    3.9479 N   0  0  0  0  0  0  0  0  0  0  0  0
    1.2693  -12.2683    4.3302 C   0  0  0  0  0  0  0  0  0  0  0  0
   -0.0329   -4.7949    1.7488 C   0  0  0  0  0  0  0  0  0  0  0  0
   -0.8595   -4.0713    2.3761 O   0  0  0  0  0  0  0  0  0  0  0  0
    1.4592  -13.0131    2.9977 C   0  0  1  0  0  0  0  0  0  0  0  0
    1.5910  -12.4375    1.8412 C   0  0  0  0  0  0  0  0  0  0  0  0
    1.6526  -14.2924    3.6008 C   0  0  0  0  0  0  0  0  0  0  0  0
    0.7783  -12.2162    1.0046 C   0  0  0  0  0  0  0  0  0  0  0  0
   -0.4100  -13.0549    0.8906 C   0  0  0  0  0  0  0  0  0  0  0  0
   -0.8665  -13.7231    0.0215 C   0  0  0  0  0  0  0  0  0  0  0  0
   -0.3386  -14.1499   -0.8835 C   0  0  0  0  0  0  0  0  0  0  0  0
  3  7  1  0
  7  8  2  0
  7  9  1  0
  9 10  1  0
  6 11  1  0
 11 12  1  0
 10 13  1  0
 13 14  1  0
 13 15  1  1
 14 16  1  0
 16 17  2  3
 17 18  1  0
 18 19  2  0
  1  2  2  0
  2  6  1  0
  5  6  2  0
  4  5  1  0
  3  4  2  0
  1  3  1  0
M  END

$$$$
No_1274-/export/home/yangzhenyu/potential_scad_32_flow//YTHDC2/2024-12-06-03-22-00/
     RDKit          3D

 18 19  0  0  0  0  0  0  0  0999 V2000
    1.1787   -8.0297    3.5154 C   0  0  0  0  0  0  0  0  0  0  0  0
    1.0491   -6.8434    2.9820 C   0  0  0  0  0  0  0  0  0  0  0  0
    0.2462   -8.9560    3.0873 C   0  0  0  0  0  0  0  0  0  0  0  0
    0.3295   -6.5187    1.9069 C   0  0  0  0  0  0  0  0  0  0  0  0
   -0.5260   -8.7862    2.1368 C   0  0  0  0  0  0  0  0  0  0  0  0
   -0.5458   -7.5614    1.5054 C   0  0  0  0  0  0  0  0  0  0  0  0
    0.3636   -5.3203    1.2895 C   0  0  0  0  0  0  0  0  0  0  0  0
   -0.3374   -4.2631    1.7514 N   0  0  0  0  0  0  0  0  0  0  0  0
    0.3331  -10.3331    3.6763 C   0  0  0  0  0  0  0  0  0  0  0  0
    0.3732  -11.5171    2.8645 C   0  0  0  0  0  0  0  0  0  0  0  0
   -0.5272  -12.0184    2.3348 C   0  0  0  0  0  0  0  0  0  0  0  0
   -0.2760  -13.2070    1.5710 C   0  0  0  0  0  0  0  0  0  0  0  0
    1.0761  -13.6568    1.3516 C   0  0  0  0  0  0  0  0  0  0  0  0
    2.1175  -13.0376    1.9623 C   0  0  0  0  0  0  0  0  0  0  0  0
    1.8874  -11.9646    2.7198 C   0  0  0  0  0  0  0  0  0  0  0  0
   -1.7067   -4.2984    1.7416 C   0  0  0  0  0  0  0  0  0  0  0  0
   -2.3368   -4.3066    0.5607 C   0  0  0  0  0  0  0  0  0  0  0  0
   -1.8760   -3.4420   -0.3603 C   0  0  0  0  0  0  0  0  0  0  0  0
  4  7  1  0
  7  8  1  0
  3  9  1  0
  9 10  1  0
  8 16  1  0
 16 17  1  0
 17 18  1  0
  1  2  2  0
  2  4  1  0
  4  6  2  0
  5  6  1  0
  3  5  2  0
  1  3  1  0
 10 11  2  0
 11 12  1  0
 12 13  2  0
 13 14  1  0
 14 15  2  0
 10 15  1  0
M  END

$$$$
No_1275-/export/home/yangzhenyu/potential_scad_32_flow//YTHDC2/2024-12-06-03-22-00/
     RDKit          3D

 18 18  0  0  1  0  0  0  0  0999 V2000
    1.1787   -8.0297    3.5154 C   0  0  0  0  0  0  0  0  0  0  0  0
    1.1048   -9.2215    3.2892 C   0  0  0  0  0  0  0  0  0  0  0  0
    1.2339   -9.7611    2.0189 C   0  0  0  0  0  0  0  0  0  0  0  0
    1.3583   -9.0036    0.9764 C   0  0  0  0  0  0  0  0  0  0  0  0
    1.5996   -7.6362    1.1311 C   0  0  0  0  0  0  0  0  0  0  0  0
    1.4830   -7.0928    2.3626 C   0  0  0  0  0  0  0  0  0  0  0  0
    1.1008  -11.2372    1.8542 C   0  0  1  0  0  0  0  0  0  0  0  0
    0.4812  -11.6084    0.6459 C   0  0  0  0  0  0  0  0  0  0  0  0
   -0.3691  -10.9312    0.0124 C   0  0  0  0  0  0  0  0  0  0  0  0
   -0.9284   -9.6856    0.5810 C   0  0  0  0  0  0  0  0  0  0  0  0
   -1.6505   -8.9364   -0.6012 C   0  0  0  0  0  0  0  0  0  0  0  0
   -1.3893   -9.2714   -1.9474 C   0  0  0  0  0  0  0  0  0  0  0  0
   -1.9356   -8.3812   -2.8711 C   0  0  0  0  0  0  0  0  0  0  0  0
   -2.6064   -7.4632   -2.4650 O   0  0  0  0  0  0  0  0  0  0  0  0
   -1.6082   -8.4871   -4.0200 O   0  0  0  0  0  0  0  0  0  0  0  0
    1.4074   -5.6453    2.6045 F   0  0  0  0  0  0  0  0  0  0  0  0
    1.9175  -11.9672    2.6598 C   0  0  0  0  0  0  0  0  0  0  0  0
    1.7943  -13.3970    2.4250 C   0  0  0  0  0  0  0  0  0  0  0  0
  3  7  1  0
  7  8  1  0
  8  9  2  3
  9 10  1  0
 10 11  2  3
 11 12  1  0
 12 13  1  0
 13 14  2  0
 13 15  1  0
  6 16  1  0
  7 17  1  6
 17 18  2  0
  1  2  2  0
  2  3  1  0
  3  4  2  0
  4  5  1  0
  5  6  2  0
  1  6  1  0
M  END

$$$$
No_1276-/export/home/yangzhenyu/potential_scad_32_flow//YTHDC2/2024-12-06-03-22-00/
     RDKit          3D

 18 19  0  0  0  0  0  0  0  0999 V2000
    1.1787   -8.0297    3.5154 C   0  0  0  0  0  0  0  0  0  0  0  0
    1.0491   -6.8434    2.9820 C   0  0  0  0  0  0  0  0  0  0  0  0
    1.9985   -8.9840    2.8958 C   0  0  0  0  0  0  0  0  0  0  0  0
    1.7297   -9.2108    1.6335 C   0  0  0  0  0  0  0  0  0  0  0  0
    1.7343   -8.0566    0.8408 C   0  0  0  0  0  0  0  0  0  0  0  0
    1.0269   -6.8892    1.4456 C   0  0  0  0  0  0  0  0  0  0  0  0
    1.7596   -8.0979   -0.4723 O   0  0  0  0  0  0  0  0  0  0  0  0
    2.2829  -10.2174    3.6488 C   0  0  0  0  0  0  0  0  0  0  0  0
    1.6212  -11.3857    3.4822 C   0  0  0  0  0  0  0  0  0  0  0  0
    0.4935  -11.4319    2.7857 C   0  0  0  0  0  0  0  0  0  0  0  0
    0.3438  -12.5007    1.9256 C   0  0  0  0  0  0  0  0  0  0  0  0
    1.2894  -13.4674    1.6899 C   0  0  0  0  0  0  0  0  0  0  0  0
    1.4112  -14.4571    2.5950 C   0  0  0  0  0  0  0  0  0  0  0  0
    0.9262  -15.7173    2.3255 C   0  0  0  0  0  0  0  0  0  0  0  0
    0.4247  -15.9709    1.3147 C   0  0  0  0  0  0  0  0  0  0  0  0
    0.3511  -15.0342    0.2721 C   0  0  0  0  0  0  0  0  0  0  0  0
    0.7212  -13.7895    0.4508 C   0  0  0  0  0  0  0  0  0  0  0  0
    0.5331   -5.7643    3.4106 O   0  0  0  0  0  0  0  0  0  0  0  0
  1  2  1  0
  1  3  1  0
  3  4  1  0
  4  5  1  0
  2  6  1  0
  5  6  1  0
  5  7  2  0
  3  8  1  0
  8  9  2  3
  9 10  1  0
 10 11  2  3
 11 12  1  0
  2 18  2  0
 12 13  2  0
 13 14  1  0
 14 15  2  0
 15 16  1  0
 16 17  2  0
 12 17  1  0
M  END

$$$$
No_1277-/export/home/yangzhenyu/potential_scad_32_flow//YTHDC2/2024-12-06-03-22-00/
     RDKit          3D

 19 20  0  0  1  0  0  0  0  0999 V2000
    1.1787   -8.0297    3.5154 O   0  0  0  0  0  0  0  0  0  0  0  0
    0.9969   -8.9689    3.0048 C   0  0  1  0  0  0  0  0  0  0  0  0
    0.9976   -8.9567    1.6341 C   0  0  0  0  0  0  0  0  0  0  0  0
    0.7663   -7.7728    1.0082 C   0  0  0  0  0  0  0  0  0  0  0  0
    0.5873   -6.9953    1.8663 C   0  0  2  0  0  0  0  0  0  0  0  0
    0.3147   -5.6081    1.1779 C   0  0  0  0  0  0  0  0  0  0  0  0
    1.0196   -6.8202    3.1399 C   0  0  0  0  0  0  0  0  0  0  0  0
    1.5259  -10.2720    3.6288 C   0  0  0  0  0  0  0  0  0  0  0  0
    0.6077  -11.3156    3.8981 C   0  0  0  0  0  0  0  0  0  0  0  0
    0.1196  -11.9631    2.9881 C   0  0  0  0  0  0  0  0  0  0  0  0
   -1.1017  -11.9143    2.5477 C   0  0  0  0  0  0  0  0  0  0  0  0
   -1.6533  -12.5563    1.4559 C   0  0  0  0  0  0  0  0  0  0  0  0
   -0.9533  -13.4954    0.8879 C   0  0  0  0  0  0  0  0  0  0  0  0
    0.3826  -13.7850    1.3446 C   0  0  0  0  0  0  0  0  0  0  0  0
    0.8871  -13.0625    2.4026 C   0  0  0  0  0  0  0  0  0  0  0  0
    1.2017   -4.4568    1.5471 C   0  0  0  0  0  0  0  0  0  0  0  0
    0.7748  -10.1560    0.7926 O   0  0  0  0  0  0  0  0  0  0  0  0
    0.7121   -3.4201    2.1654 C   0  0  0  0  0  0  0  0  0  0  0  0
   -0.5728   -3.1208    2.1489 C   0  0  0  0  0  0  0  0  0  0  0  0
  1  2  1  0
  2  3  1  0
  3  4  1  0
  4  5  1  0
  5  6  1  6
  1  7  1  0
  5  7  1  0
  2  8  1  6
  8  9  1  0
  9 10  1  0
  6 16  1  0
  3 17  2  0
 16 18  2  3
 18 19  1  0
 10 11  2  0
 11 12  1  0
 12 13  2  0
 13 14  1  0
 14 15  2  0
 10 15  1  0
M  END

$$$$
No_1278-/export/home/yangzhenyu/potential_scad_32_flow//YTHDC2/2024-12-06-03-22-00/
     RDKit          3D

 19 20  0  0  0  0  0  0  0  0999 V2000
    1.1787   -8.0297    3.5154 C   0  0  0  0  0  0  0  0  0  0  0  0
    1.0491   -6.8434    2.9820 C   0  0  0  0  0  0  0  0  0  0  0  0
    0.0950   -8.8404    3.2292 C   0  0  0  0  0  0  0  0  0  0  0  0
   -0.9173   -8.4596    2.5152 C   0  0  0  0  0  0  0  0  0  0  0  0
   -1.0331   -7.2162    2.0653 C   0  0  0  0  0  0  0  0  0  0  0  0
   -0.0105   -6.3168    2.3081 C   0  0  0  0  0  0  0  0  0  0  0  0
    0.1465  -10.2446    3.6981 Cl  0  0  0  0  0  0  0  0  0  0  0  0
    0.0249   -4.9418    1.9014 O   0  0  0  0  0  0  0  0  0  0  0  0
    0.9221   -4.0665    2.3715 C   0  0  0  0  0  0  0  0  0  0  0  0
   -2.1782   -6.6734    1.3640 C   0  0  0  0  0  0  0  0  0  0  0  0
   -3.1177   -6.1023    1.8334 C   0  0  0  0  0  0  0  0  0  0  0  0
   -3.3688   -6.2682    3.0766 C   0  0  0  0  0  0  0  0  0  0  0  0
   -4.1413   -7.2956    3.5785 C   0  0  0  0  0  0  0  0  0  0  0  0
   -3.8271   -7.7978    4.9345 C   0  0  0  0  0  0  0  0  0  0  0  0
   -4.3290   -9.0390    5.3175 C   0  0  0  0  0  0  0  0  0  0  0  0
   -5.0764   -9.7751    4.4745 C   0  0  0  0  0  0  0  0  0  0  0  0
   -5.2544   -9.3918    3.1978 C   0  0  0  0  0  0  0  0  0  0  0  0
   -4.7217   -8.1585    2.7322 C   0  0  0  0  0  0  0  0  0  0  0  0
   -2.0190   -6.9265   -0.0431 C   0  0  0  0  0  0  0  0  0  0  0  0
  3  7  1  0
  6  8  1  0
  8  9  1  0
  5 10  1  0
 10 11  1  0
 11 12  1  0
 12 13  1  0
 10 19  1  0
 13 14  2  0
 14 15  1  0
 15 16  2  0
 16 17  1  0
 17 18  2  0
 13 18  1  0
  1  2  2  0
  2  6  1  0
  5  6  2  0
  4  5  1  0
  3  4  2  0
  1  3  1  0
M  END

$$$$
No_1279-/export/home/yangzhenyu/potential_scad_32_flow//YTHDC2/2024-12-06-03-22-00/
     RDKit          3D

 18 19  0  0  1  0  0  0  0  0999 V2000
    1.1787   -8.0297    3.5154 C   0  0  0  0  0  0  0  0  0  0  0  0
    1.1048   -9.2215    3.2892 C   0  0  0  0  0  0  0  0  0  0  0  0
    1.3627  -10.1721    4.3044 C   0  0  0  0  0  0  0  0  0  0  0  0
    1.7354  -11.4730    3.9023 C   0  0  0  0  0  0  0  0  0  0  0  0
    1.8080  -11.8127    2.7216 C   0  0  0  0  0  0  0  0  0  0  0  0
    2.0797  -13.2205    2.4264 C   0  0  0  0  0  0  0  0  0  0  0  0
    1.0424   -7.1607    2.3029 N   0  0  0  0  0  0  0  0  0  0  0  0
    1.1340   -7.7836    1.2493 C   0  0  0  0  0  0  0  0  0  0  0  0
    1.2890   -9.0493    1.0433 C   0  0  2  0  0  0  0  0  0  0  0  0
    1.3642   -9.9066    2.1105 C   0  0  0  0  0  0  0  0  0  0  0  0
    1.6726  -11.0675    1.7164 C   0  0  0  0  0  0  0  0  0  0  0  0
    2.3418  -13.7619    1.2248 O   0  0  0  0  0  0  0  0  0  0  0  0
    2.3455  -14.2317    3.3892 O   0  0  0  0  0  0  0  0  0  0  0  0
    1.5212   -9.4072   -0.2722 C   0  0  0  0  0  0  0  0  0  0  0  0
    1.3013   -8.7530   -1.3197 O   0  0  0  0  0  0  0  0  0  0  0  0
    1.8089  -10.6167   -0.5494 O   0  0  0  0  0  0  0  0  0  0  0  0
    1.1339   -7.3900    4.4969 O   0  0  0  0  0  0  0  0  0  0  0  0
    2.3879  -15.5214    2.8200 C   0  0  0  0  0  0  0  0  0  0  0  0
  1  2  1  0
  5  6  1  0
  1  7  1  0
  8  9  1  0
  9 10  1  0
  6 12  2  0
  6 13  1  0
  9 14  1  1
 14 15  2  0
 14 16  1  0
  1 17  2  0
 13 18  1  0
  7  8  1  0
  2  3  2  0
  3  4  1  0
  4  5  2  0
  5 11  1  0
 10 11  2  0
  2 10  1  0
M  END

$$$$
No_1280-/export/home/yangzhenyu/potential_scad_32_flow//YTHDC2/2024-12-06-03-22-00/
     RDKit          3D

 17 18  0  0  0  0  0  0  0  0999 V2000
    1.1787   -8.0297    3.5154 C   0  0  0  0  0  0  0  0  0  0  0  0
    1.1048   -9.2215    3.2892 C   0  0  0  0  0  0  0  0  0  0  0  0
    1.3627  -10.1721    4.3044 C   0  0  0  0  0  0  0  0  0  0  0  0
    1.7354  -11.4730    3.9023 C   0  0  0  0  0  0  0  0  0  0  0  0
    1.8080  -11.8127    2.7216 C   0  0  0  0  0  0  0  0  0  0  0  0
    1.5854  -11.0021    1.7249 C   0  0  0  0  0  0  0  0  0  0  0  0
    1.3573   -9.7389    1.9287 C   0  0  0  0  0  0  0  0  0  0  0  0
    1.1102   -8.8712    0.9017 C   0  0  0  0  0  0  0  0  0  0  0  0
    0.5299   -7.6926    1.0325 O   0  0  0  0  0  0  0  0  0  0  0  0
    1.6801   -9.1282   -0.4160 F   0  0  0  0  0  0  0  0  0  0  0  0
    2.0910  -13.2011    2.3129 O   0  0  0  0  0  0  0  0  0  0  0  0
    1.2464  -14.1709    1.9852 C   0  0  0  0  0  0  0  0  0  0  0  0
    1.7385  -15.3020    1.9702 C   0  0  0  0  0  0  0  0  0  0  0  0
    0.9592  -16.3903    1.6659 C   0  0  0  0  0  0  0  0  0  0  0  0
   -0.3321  -16.2885    1.5162 C   0  0  0  0  0  0  0  0  0  0  0  0
   -0.9006  -15.0758    1.5881 C   0  0  0  0  0  0  0  0  0  0  0  0
   -0.0746  -13.9639    1.7994 C   0  0  0  0  0  0  0  0  0  0  0  0
  1  2  1  0
  7  8  1  0
  8  9  2  0
  8 10  1  0
  5 11  1  0
 11 12  1  0
 12 13  2  0
 13 14  1  0
 14 15  2  0
 15 16  1  0
 16 17  2  0
 12 17  1  0
  2  3  2  0
  3  4  1  0
  4  5  2  0
  5  6  1  0
  6  7  2  0
  2  7  1  0
M  END

$$$$
No_1281-/export/home/yangzhenyu/potential_scad_32_flow//YTHDC2/2024-12-06-03-22-00/
     RDKit          3D

 16 17  0  0  1  0  0  0  0  0999 V2000
    1.1787   -8.0297    3.5154 C   0  0  0  0  0  0  0  0  0  0  0  0
    1.1048   -9.2215    3.2892 C   0  0  0  0  0  0  0  0  0  0  0  0
    1.3627  -10.1721    4.3044 C   0  0  0  0  0  0  0  0  0  0  0  0
    1.0682  -11.5187    4.0618 C   0  0  0  0  0  0  0  0  0  0  0  0
    0.6332  -11.9655    2.9682 C   0  0  1  0  0  0  0  0  0  0  0  0
    0.4776  -11.1308    1.9203 C   0  0  0  0  0  0  0  0  0  0  0  0
    0.7470   -9.8274    2.0368 C   0  0  0  0  0  0  0  0  0  0  0  0
    1.8805   -7.1616    3.5538 C   0  0  0  0  0  0  0  0  0  0  0  0
    0.3661  -13.4265    2.7867 C   0  0  0  0  0  0  0  0  0  0  0  0
   -0.7765  -13.9095    2.4152 C   0  0  0  0  0  0  0  0  0  0  0  0
   -0.8801  -15.3436    2.3271 C   0  0  0  0  0  0  0  0  0  0  0  0
    0.2279  -16.1799    2.6084 C   0  0  0  0  0  0  0  0  0  0  0  0
    1.4262  -15.6152    2.9103 C   0  0  0  0  0  0  0  0  0  0  0  0
    1.5998  -14.2312    3.0892 C   0  0  0  0  0  0  0  0  0  0  0  0
    0.7662   -9.0676    0.9403 O   0  0  0  0  0  0  0  0  0  0  0  0
    2.5020  -16.4651    3.1868 C   0  0  0  0  0  0  0  0  0  0  0  0
  1  2  1  0
  2  3  1  0
  4  5  1  0
  2  7  1  0
  6  7  1  0
  1  8  2  0
  5  9  1  6
  7 15  2  0
 13 16  1  0
  3  4  1  0
  5  6  1  0
  9 10  2  0
 10 11  1  0
 11 12  2  0
 12 13  1  0
 13 14  2  0
  9 14  1  0
M  END

$$$$
No_1282-/export/home/yangzhenyu/potential_scad_32_flow//YTHDC2/2024-12-06-03-22-00/
     RDKit          3D

 19 21  0  0  0  0  0  0  0  0999 V2000
    1.1787   -8.0297    3.5154 C   0  0  0  0  0  0  0  0  0  0  0  0
    1.1048   -9.2215    3.2892 C   0  0  0  0  0  0  0  0  0  0  0  0
    1.3627  -10.1721    4.3044 C   0  0  0  0  0  0  0  0  0  0  0  0
    1.0682  -11.5187    4.0618 C   0  0  0  0  0  0  0  0  0  0  0  0
    0.6332  -11.9655    2.9682 C   0  0  0  0  0  0  0  0  0  0  0  0
    0.4776  -11.1308    1.9203 C   0  0  0  0  0  0  0  0  0  0  0  0
    0.7470   -9.8274    2.0368 C   0  0  0  0  0  0  0  0  0  0  0  0
    1.0387   -7.0301    2.5175 C   0  0  0  0  0  0  0  0  0  0  0  0
    0.9130   -7.5288    1.2013 C   0  0  0  0  0  0  0  0  0  0  0  0
    0.7893   -8.7979    0.9542 C   0  0  0  0  0  0  0  0  0  0  0  0
    0.3998  -13.3695    2.7114 C   0  0  0  0  0  0  0  0  0  0  0  0
    0.8304  -14.0169    1.7689 C   0  0  0  0  0  0  0  0  0  0  0  0
    1.4641  -15.1995    1.8885 C   0  0  0  0  0  0  0  0  0  0  0  0
    1.0519  -16.0624    2.9850 C   0  0  0  0  0  0  0  0  0  0  0  0
    0.5191  -15.3863    4.1247 C   0  0  0  0  0  0  0  0  0  0  0  0
    0.1893  -14.0648    3.9766 C   0  0  0  0  0  0  0  0  0  0  0  0
    0.4458   -9.2562   -0.3794 C   0  0  0  0  0  0  0  0  0  0  0  0
    1.2151   -9.2874   -1.2517 O   0  0  0  0  0  0  0  0  0  0  0  0
   -0.9035   -9.0533   -0.8085 O   0  0  0  0  0  0  0  0  0  0  0  0
  5 11  1  0
 10 17  1  0
 17 18  2  0
 17 19  1  0
 11 12  2  0
 12 13  1  0
 13 14  2  0
 14 15  1  0
 15 16  2  0
 11 16  1  0
  2  3  1  0
  3  4  2  0
  4  5  1  0
  5  6  2  0
  6  7  1  0
  1  2  2  0
  2  7  1  0
  7 10  2  0
  9 10  1  0
  8  9  2  0
  1  8  1  0
M  END

$$$$
No_1283-/export/home/yangzhenyu/potential_scad_32_flow//YTHDC2/2024-12-06-03-22-00/
     RDKit          3D

 17 18  0  0  0  0  0  0  0  0999 V2000
    1.1787   -8.0297    3.5154 C   0  0  0  0  0  0  0  0  0  0  0  0
    1.1048   -9.2215    3.2892 C   0  0  0  0  0  0  0  0  0  0  0  0
    1.3627  -10.1721    4.3044 C   0  0  0  0  0  0  0  0  0  0  0  0
    1.7354  -11.4730    3.9023 C   0  0  0  0  0  0  0  0  0  0  0  0
    1.8080  -11.8127    2.7216 C   0  0  0  0  0  0  0  0  0  0  0  0
    1.5854  -11.0021    1.7249 C   0  0  0  0  0  0  0  0  0  0  0  0
    1.3573   -9.7389    1.9287 C   0  0  0  0  0  0  0  0  0  0  0  0
    1.1102   -8.8712    0.9017 C   0  0  0  0  0  0  0  0  0  0  0  0
    0.5299   -7.6926    1.0325 C   0  0  0  0  0  0  0  0  0  0  0  0
    0.7526   -7.0802    2.3301 C   0  0  0  0  0  0  0  0  0  0  0  0
    2.0515  -13.2522    2.4284 C   0  0  0  0  0  0  0  0  0  0  0  0
    2.4197  -13.7233    1.3168 N   0  0  0  0  0  0  0  0  0  0  0  0
    2.0156  -14.2023    3.3777 N   0  0  0  0  0  0  0  0  0  0  0  0
    0.5165   -5.6557    2.5401 C   0  0  0  0  0  0  0  0  0  0  0  0
    0.9169   -4.8457    1.5929 C   0  0  0  0  0  0  0  0  0  0  0  0
    1.7390   -3.6388    1.9728 C   0  0  0  0  0  0  0  0  0  0  0  0
    2.5270  -13.1121    0.5199 H   0  0  0  0  0  0  0  0  0  0  0  0
  5 11  1  0
 11 12  2  0
 11 13  1  0
 10 14  1  0
 14 15  1  0
 15 16  1  0
  1  2  2  0
  7  8  2  0
  8  9  1  0
  9 10  2  0
  1 10  1  0
  2  3  1  0
  3  4  2  0
  4  5  1  0
  5  6  2  0
  6  7  1  0
  2  7  1  0
 12 17  1  0
M  END

$$$$
No_1284-/export/home/yangzhenyu/potential_scad_32_flow//YTHDC2/2024-12-06-03-22-00/
     RDKit          3D

 19 21  0  0  0  0  0  0  0  0999 V2000
    1.1787   -8.0297    3.5154 C   0  0  0  0  0  0  0  0  0  0  0  0
    1.0491   -6.8434    2.9820 C   0  0  0  0  0  0  0  0  0  0  0  0
    0.9905   -9.0774    2.6527 C   0  0  0  0  0  0  0  0  0  0  0  0
    1.1655  -10.4663    3.1286 C   0  0  0  0  0  0  0  0  0  0  0  0
    1.2197  -11.4898    2.5831 C   0  0  0  0  0  0  0  0  0  0  0  0
    1.0589  -11.4458    1.1293 C   0  0  0  0  0  0  0  0  0  0  0  0
    0.9638  -10.3069    0.4651 C   0  0  0  0  0  0  0  0  0  0  0  0
    0.9191   -9.0789    1.1942 C   0  0  0  0  0  0  0  0  0  0  0  0
    0.9103   -7.8220    0.6974 C   0  0  0  0  0  0  0  0  0  0  0  0
    1.0140   -6.6889    1.5108 C   0  0  0  0  0  0  0  0  0  0  0  0
    0.9460   -7.6827   -0.5479 O   0  0  0  0  0  0  0  0  0  0  0  0
    1.3109  -12.8003    3.1160 C   0  0  0  0  0  0  0  0  0  0  0  0
    0.2088  -13.7103    2.9500 C   0  0  0  0  0  0  0  0  0  0  0  0
    0.4350  -14.5990    2.1661 C   0  0  0  0  0  0  0  0  0  0  0  0
   -0.4381  -14.9062    1.2507 C   0  0  0  0  0  0  0  0  0  0  0  0
   -1.6698  -14.3540    1.2510 C   0  0  0  0  0  0  0  0  0  0  0  0
   -1.8982  -13.2732    2.1369 C   0  0  0  0  0  0  0  0  0  0  0  0
   -0.8958  -12.8557    2.9352 C   0  0  0  0  0  0  0  0  0  0  0  0
    1.6536  -15.4049    2.1497 C   0  0  0  0  0  0  0  0  0  0  0  0
  1  2  1  0
  8  9  1  0
  9 10  1  0
  9 11  2  0
  5 12  1  0
 12 13  1  0
 14 19  1  0
  1  3  1  0
  2 10  1  0
 13 14  2  0
 14 15  1  0
 15 16  2  0
 16 17  1  0
 17 18  2  0
 13 18  1  0
  3  4  2  0
  4  5  1  0
  5  6  2  0
  6  7  1  0
  7  8  2  0
  3  8  1  0
M  END

$$$$
No_1285-/export/home/yangzhenyu/potential_scad_32_flow//YTHDC2/2024-12-06-03-22-00/
     RDKit          3D

 21 22  0  0  1  0  0  0  0  0999 V2000
    1.1787   -8.0297    3.5154 C   0  0  0  0  0  0  0  0  0  0  0  0
    1.0491   -6.8434    2.9820 C   0  0  0  0  0  0  0  0  0  0  0  0
    0.9905   -9.0774    2.6527 C   0  0  0  0  0  0  0  0  0  0  0  0
    0.7897   -8.9519    1.3691 C   0  0  0  0  0  0  0  0  0  0  0  0
    0.7018   -7.7198    0.7892 C   0  0  0  0  0  0  0  0  0  0  0  0
    0.8918   -6.5957    1.6117 C   0  0  0  0  0  0  0  0  0  0  0  0
    1.0711  -10.4814    3.2282 C   0  0  1  0  0  0  0  0  0  0  0  0
   -0.1055  -11.1328    3.5223 C   0  0  0  0  0  0  0  0  0  0  0  0
   -1.2061  -10.3495    3.8837 C   0  0  0  0  0  0  0  0  0  0  0  0
   -1.2715   -9.5949    5.0137 C   0  0  0  0  0  0  0  0  0  0  0  0
   -2.3226   -8.7872    5.3499 C   0  0  0  0  0  0  0  0  0  0  0  0
   -3.3409   -8.6873    4.5477 C   0  0  0  0  0  0  0  0  0  0  0  0
   -3.3662   -9.3023    3.3561 C   0  0  0  0  0  0  0  0  0  0  0  0
   -2.3177  -10.1277    2.9760 C   0  0  0  0  0  0  0  0  0  0  0  0
    2.0212  -11.2919    2.5691 C   0  0  0  0  0  0  0  0  0  0  0  0
    2.0946  -12.5849    3.1382 C   0  0  0  0  0  0  0  0  0  0  0  0
    1.7610  -13.6788    2.2400 C   0  0  0  0  0  0  0  0  0  0  0  0
    1.8227  -15.0090    2.6298 N   0  0  0  0  0  0  0  0  0  0  0  0
    2.0649  -15.9571    1.9800 C   0  0  0  0  0  0  0  0  0  0  0  0
    2.4167  -15.9111    0.8812 O   0  0  0  0  0  0  0  0  0  0  0  0
    2.2507  -17.2788    2.8160 C   0  0  0  0  0  0  0  0  0  0  0  0
  3  7  1  0
  7  8  1  6
  8  9  1  0
  7 15  1  0
 15 16  1  0
 16 17  1  0
 17 18  1  0
 18 19  1  0
 19 20  2  0
 19 21  1  0
  1  2  2  0
  2  6  1  0
  5  6  2  0
  4  5  1  0
  3  4  2  0
  1  3  1  0
  9 10  2  0
 10 11  1  0
 11 12  2  0
 12 13  1  0
 13 14  2  0
  9 14  1  0
M  END

$$$$
No_1286-/export/home/yangzhenyu/potential_scad_32_flow//YTHDC2/2024-12-06-03-22-00/
     RDKit          3D

 20 21  0  0  1  0  0  0  0  0999 V2000
    1.1787   -8.0297    3.5154 C   0  0  0  0  0  0  0  0  0  0  0  0
    1.0491   -6.8434    2.9820 C   0  0  0  0  0  0  0  0  0  0  0  0
    0.9905   -9.0774    2.6527 C   0  0  0  0  0  0  0  0  0  0  0  0
    0.7897   -8.9519    1.3691 C   0  0  0  0  0  0  0  0  0  0  0  0
    0.7018   -7.7198    0.7892 C   0  0  0  0  0  0  0  0  0  0  0  0
    0.8918   -6.5957    1.6117 C   0  0  0  0  0  0  0  0  0  0  0  0
    1.0600  -10.5680    3.3321 C   0  0  2  0  0  0  0  0  0  0  0  0
    2.1422  -11.0089    3.6867 C   0  0  0  0  0  0  0  0  0  0  0  0
    0.8608   -5.2505    1.2071 O   0  0  0  0  0  0  0  0  0  0  0  0
    0.3660  -11.5297    2.4684 C   0  0  2  0  0  0  0  0  0  0  0  0
   -0.9792  -11.5881    2.7140 C   0  0  0  0  0  0  0  0  0  0  0  0
   -1.8215  -12.5561    2.3599 C   0  0  0  0  0  0  0  0  0  0  0  0
   -1.2888  -13.6109    1.7275 C   0  0  0  0  0  0  0  0  0  0  0  0
    0.0693  -13.6066    1.2825 C   0  0  0  0  0  0  0  0  0  0  0  0
    0.8724  -12.5536    1.6966 C   0  0  0  0  0  0  0  0  0  0  0  0
    2.1618  -12.5503    1.3308 O   0  0  0  0  0  0  0  0  0  0  0  0
    2.6623  -10.4176    4.9017 N   0  0  0  0  0  0  0  0  0  0  0  0
    3.8515  -11.0804    5.4887 C   0  0  0  0  0  0  0  0  0  0  0  0
    4.8119  -11.4176    4.6424 N   0  0  0  0  0  0  0  0  0  0  0  0
    4.7092  -11.2202    3.6572 H   0  0  0  0  0  0  0  0  0  0  0  0
  1  2  1  0
  3  4  1  0
  2  6  1  0
  5  6  1  0
  7  3  1  6
  7  8  1  0
  6  9  2  0
  7 10  1  0
 10 11  1  1
 12 13  1  0
 10 15  1  0
 14 15  1  0
 15 16  2  0
  8 17  2  3
 17 18  1  0
 18 19  2  0
 11 12  1  0
 13 14  1  0
  1  3  1  0
  4  5  1  0
 19 20  1  0
M  END

$$$$
No_1287-/export/home/yangzhenyu/potential_scad_32_flow//YTHDC2/2024-12-06-03-22-00/
     RDKit          3D

 20 22  0  0  0  0  0  0  0  0999 V2000
    1.1787   -8.0297    3.5154 C   0  0  0  0  0  0  0  0  0  0  0  0
    1.0491   -6.8434    2.9820 C   0  0  0  0  0  0  0  0  0  0  0  0
    0.0950   -8.8404    3.2292 C   0  0  0  0  0  0  0  0  0  0  0  0
   -0.9173   -8.4596    2.5152 C   0  0  0  0  0  0  0  0  0  0  0  0
   -1.0331   -7.2162    2.0653 C   0  0  0  0  0  0  0  0  0  0  0  0
   -0.0105   -6.3168    2.3081 C   0  0  0  0  0  0  0  0  0  0  0  0
    0.0485   -4.9783    1.8782 C   0  0  0  0  0  0  0  0  0  0  0  0
   -0.4744   -4.1559    2.2381 N   0  0  0  0  0  0  0  0  0  0  0  0
    0.1794  -10.2887    3.6920 C   0  0  0  0  0  0  0  0  0  0  0  0
    0.2548  -11.3535    2.8291 C   0  0  0  0  0  0  0  0  0  0  0  0
    1.0828  -12.4557    3.1974 C   0  0  0  0  0  0  0  0  0  0  0  0
    1.1145  -13.5569    2.4447 C   0  0  0  0  0  0  0  0  0  0  0  0
    0.6015  -13.6507    1.3480 C   0  0  0  0  0  0  0  0  0  0  0  0
   -0.1102  -12.6152    0.7885 C   0  0  0  0  0  0  0  0  0  0  0  0
   -0.2168  -11.4308    1.5296 C   0  0  0  0  0  0  0  0  0  0  0  0
    1.8682  -14.7597    2.9705 O   0  0  0  0  0  0  0  0  0  0  0  0
    0.8962   -4.6725    0.7986 N   0  0  0  0  0  0  0  0  0  0  0  0
   -0.0627  -10.4341    5.0053 O   0  0  0  0  0  0  0  0  0  0  0  0
   -0.3967   -2.9259    1.6839 C   0  0  0  0  0  0  0  0  0  0  0  0
    0.6538   -3.3492    0.7160 C   0  0  0  0  0  0  0  0  0  0  0  0
  6  7  1  0
  7  8  2  0
  3  9  1  0
  9 10  1  0
 12 16  1  0
  7 17  1  0
  9 18  2  0
  8 19  1  0
 17 20  1  0
 19 20  2  0
  1  2  2  0
  2  6  1  0
  5  6  2  0
  4  5  1  0
  3  4  2  0
  1  3  1  0
 10 11  2  0
 11 12  1  0
 12 13  2  0
 13 14  1  0
 14 15  2  0
 10 15  1  0
M  END

$$$$
No_1288-/export/home/yangzhenyu/potential_scad_32_flow//YTHDC2/2024-12-06-03-22-00/
     RDKit          3D

 11 11  0  0  0  0  0  0  0  0999 V2000
    1.1787   -8.0297    3.5154 N   0  0  0  0  0  0  0  0  0  0  0  0
    0.8669   -7.0905    2.8589 C   0  0  0  0  0  0  0  0  0  0  0  0
    0.8842   -5.8387    3.2677 C   0  0  0  0  0  0  0  0  0  0  0  0
    1.2819   -9.4050    3.1259 C   0  0  0  0  0  0  0  0  0  0  0  0
    1.6244  -10.3514    4.1878 C   0  0  0  0  0  0  0  0  0  0  0  0
    1.6237  -11.7221    3.9802 C   0  0  0  0  0  0  0  0  0  0  0  0
    1.2204  -12.1882    2.7068 C   0  0  0  0  0  0  0  0  0  0  0  0
    1.0191  -11.2853    1.7108 C   0  0  0  0  0  0  0  0  0  0  0  0
    1.0929   -9.9210    1.9465 C   0  0  0  0  0  0  0  0  0  0  0  0
    0.3789   -4.8075    2.3397 C   0  0  0  0  0  0  0  0  0  0  0  0
    0.1894   -5.5105    1.0531 C   0  0  0  0  0  0  0  0  0  0  0  0
  1  2  1  0
  2  3  1  0
  1  4  1  0
  3 10  2  3
 10 11  1  0
  4  5  2  0
  5  6  1  0
  6  7  2  0
  7  8  1  0
  8  9  2  0
  4  9  1  0
M  END

$$$$
No_1289-/export/home/yangzhenyu/potential_scad_32_flow//YTHDC2/2024-12-06-03-22-00/
     RDKit          3D

 19 19  0  0  1  0  0  0  0  0999 V2000
    1.1787   -8.0297    3.5154 O   0  0  0  0  0  0  0  0  0  0  0  0
    0.6747   -7.4019    2.7838 C   0  0  0  0  0  0  0  0  0  0  0  0
    0.5570   -6.0797    2.8560 C   0  0  1  0  0  0  0  0  0  0  0  0
    1.6734   -5.4651    3.4094 C   0  0  0  0  0  0  0  0  0  0  0  0
    1.4143   -9.4928    3.3921 C   0  0  0  0  0  0  0  0  0  0  0  0
    1.8565  -10.2582    4.4918 C   0  0  0  0  0  0  0  0  0  0  0  0
    1.9067  -11.7135    4.3017 C   0  0  0  0  0  0  0  0  0  0  0  0
    1.5184  -12.1421    3.0669 C   0  0  0  0  0  0  0  0  0  0  0  0
    1.0215  -11.3735    2.0967 C   0  0  0  0  0  0  0  0  0  0  0  0
    1.0036  -10.0506    2.2626 C   0  0  0  0  0  0  0  0  0  0  0  0
    1.5681  -13.8238    3.0313 O   0  0  0  0  0  0  0  0  0  0  0  0
    0.1651   -5.3364    1.5241 C   0  0  0  0  0  0  0  0  0  0  0  0
   -0.9660   -4.5617    1.7002 C   0  0  0  0  0  0  0  0  0  0  0  0
   -0.7270   -3.2721    1.6898 C   0  0  2  0  0  0  0  0  0  0  0  0
    0.4309  -14.3371    2.7253 C   0  0  0  0  0  0  0  0  0  0  0  0
   -0.6560   -2.4488    2.7067 C   0  0  0  0  0  0  0  0  0  0  0  0
   -1.2441   -2.9304    3.8524 C   0  0  0  0  0  0  0  0  0  0  0  0
   -1.1486   -2.1177    5.1551 C   0  0  0  0  0  0  0  0  0  0  0  0
   -0.7066   -2.4822    0.4588 C   0  0  0  0  0  0  0  0  0  0  0  0
  1  2  1  0
  2  3  1  0
  3  4  1  6
  1  5  1  0
  8 11  1  0
  3 12  1  0
 12 13  1  0
 13 14  1  0
 11 15  1  0
 14 16  1  0
 16 17  1  0
 17 18  1  0
 14 19  1  6
  5  6  2  0
  6  7  1  0
  7  8  2  0
  8  9  1  0
  9 10  2  0
  5 10  1  0
M  END

$$$$
No_1290-/export/home/yangzhenyu/potential_scad_32_flow//YTHDC2/2024-12-06-03-22-00/
     RDKit          3D

 18 19  0  0  1  0  0  0  0  0999 V2000
    1.1787   -8.0297    3.5154 C   0  0  0  0  0  0  0  0  0  0  0  0
    1.1048   -9.2215    3.2892 C   0  0  0  0  0  0  0  0  0  0  0  0
    1.2339   -9.7611    2.0189 C   0  0  0  0  0  0  0  0  0  0  0  0
    1.1954  -11.2312    1.8661 C   0  0  2  0  0  0  0  0  0  0  0  0
    1.5546  -12.1691    2.7931 C   0  0  0  0  0  0  0  0  0  0  0  0
    0.9527   -7.0669    2.3918 C   0  0  0  0  0  0  0  0  0  0  0  0
    1.0618   -7.6392    1.0692 C   0  0  0  0  0  0  0  0  0  0  0  0
    1.2060   -8.9530    0.8578 C   0  0  0  0  0  0  0  0  0  0  0  0
    1.5110  -13.5006    2.3856 C   0  0  0  0  0  0  0  0  0  0  0  0
    1.1461  -13.9087    1.2014 C   0  0  0  0  0  0  0  0  0  0  0  0
    0.9324  -13.0660    0.2177 C   0  0  0  0  0  0  0  0  0  0  0  0
    0.9275  -11.6786    0.5224 C   0  0  0  0  0  0  0  0  0  0  0  0
    1.0249   -5.4090    2.5055 F   0  0  0  0  0  0  0  0  0  0  0  0
    1.9100  -14.4141    3.4306 O   0  0  0  0  0  0  0  0  0  0  0  0
    0.5346  -10.8146   -0.3910 O   0  0  0  0  0  0  0  0  0  0  0  0
    2.2773  -15.6972    2.7794 C   0  0  0  0  0  0  0  0  0  0  0  0
    1.5537  -16.7823    3.1419 C   0  0  0  0  0  0  0  0  0  0  0  0
    2.0230  -18.0346    2.9067 O   0  0  0  0  0  0  0  0  0  0  0  0
  4  3  1  6
  4  5  1  0
  9 10  1  0
  4 12  1  0
 11 12  1  0
  6 13  1  0
  9 14  1  0
 12 15  2  0
 14 16  1  0
 16 17  1  0
 17 18  2  0
  5  9  1  0
 10 11  1  0
  1  2  2  0
  2  3  1  0
  3  8  2  0
  7  8  1  0
  6  7  2  0
  1  6  1  0
M  END

$$$$
No_1291-/export/home/yangzhenyu/potential_scad_32_flow//YTHDC2/2024-12-06-03-22-00/
     RDKit          3D

 20 22  0  0  0  0  0  0  0  0999 V2000
    1.1787   -8.0297    3.5154 C   0  0  0  0  0  0  0  0  0  0  0  0
    1.1048   -9.2215    3.2892 C   0  0  0  0  0  0  0  0  0  0  0  0
    1.0239   -9.7790    2.0239 C   0  0  0  0  0  0  0  0  0  0  0  0
    1.1393   -9.0211    0.9686 C   0  0  0  0  0  0  0  0  0  0  0  0
    1.4051   -7.6500    1.1251 C   0  0  0  0  0  0  0  0  0  0  0  0
    1.4868   -7.1041    2.3534 C   0  0  0  0  0  0  0  0  0  0  0  0
    1.5885   -5.7190    2.5687 C   0  0  0  0  0  0  0  0  0  0  0  0
    0.8710  -11.2137    1.9144 C   0  0  0  0  0  0  0  0  0  0  0  0
    1.8887  -12.0352    2.0512 C   0  0  0  0  0  0  0  0  0  0  0  0
    1.7070  -13.3672    1.7487 C   0  0  0  0  0  0  0  0  0  0  0  0
    0.5963  -13.8403    1.2955 C   0  0  0  0  0  0  0  0  0  0  0  0
   -0.4368  -13.0391    0.9937 C   0  0  0  0  0  0  0  0  0  0  0  0
   -0.2989  -11.6535    1.3070 C   0  0  0  0  0  0  0  0  0  0  0  0
   -1.4063  -10.8511    1.1662 C   0  0  0  0  0  0  0  0  0  0  0  0
   -1.8451  -10.3161    0.0439 C   0  0  0  0  0  0  0  0  0  0  0  0
   -2.9796   -9.4664   -0.0670 N   0  0  0  0  0  0  0  0  0  0  0  0
   -3.2773   -9.2141    1.3026 C   0  0  0  0  0  0  0  0  0  0  0  0
   -2.9373   -9.5629    2.3449 C   0  0  0  0  0  0  0  0  0  0  0  0
   -1.8893  -10.4339    2.4190 C   0  0  0  0  0  0  0  0  0  0  0  0
   -4.4024   -8.0584    1.2283 F   0  0  0  0  0  0  0  0  0  0  0  0
  6  7  1  0
  3  8  1  0
 13 14  1  0
 17 20  1  0
  1  2  2  0
  2  3  1  0
  3  4  2  0
  4  5  1  0
  5  6  2  0
  1  6  1  0
  8  9  2  0
  9 10  1  0
 10 11  2  0
 11 12  1  0
 12 13  2  0
  8 13  1  0
 14 15  2  0
 15 16  1  0
 16 17  2  0
 17 18  1  0
 18 19  2  0
 14 19  1  0
M  END

$$$$
No_1292-/export/home/yangzhenyu/potential_scad_32_flow//YTHDC2/2024-12-06-03-22-00/
     RDKit          3D

 19 20  0  0  0  0  0  0  0  0999 V2000
    1.1787   -8.0297    3.5154 C   0  0  0  0  0  0  0  0  0  0  0  0
    1.0491   -6.8434    2.9820 C   0  0  0  0  0  0  0  0  0  0  0  0
    0.0950   -8.8404    3.2292 C   0  0  0  0  0  0  0  0  0  0  0  0
   -0.9173   -8.4596    2.5152 C   0  0  0  0  0  0  0  0  0  0  0  0
   -1.0331   -7.2162    2.0653 C   0  0  0  0  0  0  0  0  0  0  0  0
   -0.0105   -6.3168    2.3081 C   0  0  0  0  0  0  0  0  0  0  0  0
    0.1935  -10.3737    3.7416 C   0  0  0  0  0  0  0  0  0  0  0  0
    0.3534  -11.4163    2.8027 C   0  0  0  0  0  0  0  0  0  0  0  0
    1.0785  -12.5234    3.2592 C   0  0  0  0  0  0  0  0  0  0  0  0
    1.1411  -13.5755    2.4453 C   0  0  0  0  0  0  0  0  0  0  0  0
    0.7285  -13.6321    1.3039 C   0  0  0  0  0  0  0  0  0  0  0  0
    0.1223  -12.5225    0.7050 C   0  0  0  0  0  0  0  0  0  0  0  0
   -0.0333  -11.3806    1.5081 C   0  0  0  0  0  0  0  0  0  0  0  0
    1.7906  -14.8709    2.9213 O   0  0  0  0  0  0  0  0  0  0  0  0
    0.0645   -4.7648    1.8122 Cl  0  0  0  0  0  0  0  0  0  0  0  0
   -0.0262  -10.5128    5.0124 O   0  0  0  0  0  0  0  0  0  0  0  0
    0.9313  -15.9635    2.9389 C   0  0  0  0  0  0  0  0  0  0  0  0
    1.6331  -17.0831    2.7444 C   0  0  0  0  0  0  0  0  0  0  0  0
    1.0139  -18.2965    2.7648 C   0  0  0  0  0  0  0  0  0  0  0  0
  3  7  1  0
  7  8  1  0
 10 14  1  0
  6 15  1  0
  7 16  2  0
 14 17  1  0
 17 18  1  0
 18 19  2  0
  1  2  2  0
  2  6  1  0
  5  6  2  0
  4  5  1  0
  3  4  2  0
  1  3  1  0
  8  9  2  0
  9 10  1  0
 10 11  2  0
 11 12  1  0
 12 13  2  0
  8 13  1  0
M  END

$$$$
No_1293-/export/home/yangzhenyu/potential_scad_32_flow//YTHDC2/2024-12-06-03-22-00/
     RDKit          3D

 18 18  0  0  1  0  0  0  0  0999 V2000
    1.1787   -8.0297    3.5154 C   0  0  0  0  0  0  0  0  0  0  0  0
    1.1048   -9.2215    3.2892 C   0  0  0  0  0  0  0  0  0  0  0  0
    1.2339   -9.7611    2.0189 C   0  0  0  0  0  0  0  0  0  0  0  0
    1.3583   -9.0036    0.9764 C   0  0  0  0  0  0  0  0  0  0  0  0
    1.5996   -7.6362    1.1311 C   0  0  0  0  0  0  0  0  0  0  0  0
    1.4830   -7.0928    2.3626 C   0  0  0  0  0  0  0  0  0  0  0  0
    1.3121   -5.7497    2.5440 C   0  0  0  0  0  0  0  0  0  0  0  0
    1.1998  -11.2296    1.8484 C   0  0  1  0  0  0  0  0  0  0  0  0
    0.8758  -11.6194    0.5866 C   0  0  0  0  0  0  0  0  0  0  0  0
    0.1902  -11.1296   -0.2387 C   0  0  0  0  0  0  0  0  0  0  0  0
    1.6417  -12.0404    2.8224 C   0  0  0  0  0  0  0  0  0  0  0  0
    0.9636  -13.2666    2.8965 C   0  0  0  0  0  0  0  0  0  0  0  0
    1.7383  -14.4852    2.8972 C   0  0  0  0  0  0  0  0  0  0  0  0
    2.7903  -14.6236    2.2737 O   0  0  0  0  0  0  0  0  0  0  0  0
    1.2767  -15.5700    3.5068 N   0  0  0  0  0  0  0  0  0  0  0  0
    1.7617  -16.8831    3.3277 C   0  0  0  0  0  0  0  0  0  0  0  0
    0.6710   -4.9677    1.6861 C   0  0  0  0  0  0  0  0  0  0  0  0
    0.5976   -3.5454    1.8597 C   0  0  0  0  0  0  0  0  0  0  0  0
  6  7  1  0
  3  8  1  0
  8  9  1  0
  9 10  2  0
  8 11  1  6
 11 12  1  0
 12 13  1  0
 13 14  2  0
 13 15  1  0
 15 16  1  0
  7 17  2  3
 17 18  1  0
  1  2  2  0
  2  3  1  0
  3  4  2  0
  4  5  1  0
  5  6  2  0
  1  6  1  0
M  END

$$$$
No_1294-/export/home/yangzhenyu/potential_scad_32_flow//YTHDC2/2024-12-06-03-22-00/
     RDKit          3D

 18 20  0  0  0  0  0  0  0  0999 V2000
    1.1787   -8.0297    3.5154 C   0  0  0  0  0  0  0  0  0  0  0  0
    1.0491   -6.8434    2.9820 C   0  0  0  0  0  0  0  0  0  0  0  0
    0.0950   -8.8404    3.2292 C   0  0  0  0  0  0  0  0  0  0  0  0
   -0.9173   -8.4596    2.5152 C   0  0  0  0  0  0  0  0  0  0  0  0
   -1.0331   -7.2162    2.0653 C   0  0  0  0  0  0  0  0  0  0  0  0
   -0.0105   -6.3168    2.3081 C   0  0  0  0  0  0  0  0  0  0  0  0
    0.1935  -10.3737    3.7416 C   0  0  0  0  0  0  0  0  0  0  0  0
    1.2406  -10.8901    4.0986 C   0  0  0  0  0  0  0  0  0  0  0  0
    1.1186  -12.3145    4.4006 C   0  0  0  0  0  0  0  0  0  0  0  0
    0.1013  -12.9075    3.8532 C   0  0  0  0  0  0  0  0  0  0  0  0
   -0.9044  -12.4076    3.3546 C   0  0  0  0  0  0  0  0  0  0  0  0
   -0.9318  -11.0156    3.2558 C   0  0  0  0  0  0  0  0  0  0  0  0
   -0.1471   -5.0370    1.8051 Cl  0  0  0  0  0  0  0  0  0  0  0  0
   -2.0817  -13.1113    3.1901 C   0  0  0  0  0  0  0  0  0  0  0  0
   -3.3140  -12.4587    3.1787 C   0  0  0  0  0  0  0  0  0  0  0  0
   -3.2874  -11.0065    3.1785 C   0  0  0  0  0  0  0  0  0  0  0  0
   -2.1533  -10.3403    3.2966 C   0  0  0  0  0  0  0  0  0  0  0  0
   -4.5102  -10.4504    3.0594 O   0  0  0  0  0  0  0  0  0  0  0  0
  3  7  1  0
  6 13  1  0
 11 14  1  0
 15 16  1  0
 12 17  1  0
 16 17  1  0
 16 18  2  0
 14 15  1  0
  1  2  2  0
  2  6  1  0
  5  6  2  0
  4  5  1  0
  3  4  2  0
  1  3  1  0
  7  8  2  0
  8  9  1  0
  9 10  2  0
 10 11  1  0
 11 12  2  0
  7 12  1  0
M  END

$$$$
No_1295-/export/home/yangzhenyu/potential_scad_32_flow//YTHDC2/2024-12-06-03-22-00/
     RDKit          3D

 18 19  0  0  0  0  0  0  0  0999 V2000
    1.1787   -8.0297    3.5154 C   0  0  0  0  0  0  0  0  0  0  0  0
    1.1048   -9.2215    3.2892 C   0  0  0  0  0  0  0  0  0  0  0  0
    1.2339   -9.7611    2.0189 C   0  0  0  0  0  0  0  0  0  0  0  0
    1.3583   -9.0036    0.9764 C   0  0  0  0  0  0  0  0  0  0  0  0
    1.5996   -7.6362    1.1311 C   0  0  0  0  0  0  0  0  0  0  0  0
    1.4830   -7.0928    2.3626 C   0  0  0  0  0  0  0  0  0  0  0  0
    1.1008  -11.2372    1.8542 C   0  0  0  0  0  0  0  0  0  0  0  0
    0.5178  -11.9759    2.3445 C   0  0  0  0  0  0  0  0  0  0  0  0
    0.4575  -13.3705    2.1281 C   0  0  0  0  0  0  0  0  0  0  0  0
    1.3992  -14.2795    2.9784 C   0  0  0  0  0  0  0  0  0  0  0  0
    1.6183  -15.4281    2.6005 C   0  0  0  0  0  0  0  0  0  0  0  0
    2.6643  -15.6898    1.9919 C   0  0  0  0  0  0  0  0  0  0  0  0
    0.6870  -16.4406    2.7637 C   0  0  0  0  0  0  0  0  0  0  0  0
    1.5702   -5.6515    2.6434 Cl  0  0  0  0  0  0  0  0  0  0  0  0
    2.9616  -17.1131    1.9212 C   0  0  0  0  0  0  0  0  0  0  0  0
    2.3276  -18.0705    2.2269 C   0  0  0  0  0  0  0  0  0  0  0  0
    1.0820  -17.7881    2.7772 C   0  0  0  0  0  0  0  0  0  0  0  0
   -0.4729  -14.0269    1.4528 O   0  0  0  0  0  0  0  0  0  0  0  0
  3  7  1  0
  7  8  2  3
  8  9  1  0
  9 10  1  0
 10 11  1  0
  6 14  1  0
  9 18  2  0
 11 12  2  0
 12 15  1  0
 15 16  2  0
 16 17  1  0
 13 17  2  0
 11 13  1  0
  1  2  2  0
  2  3  1  0
  3  4  2  0
  4  5  1  0
  5  6  2  0
  1  6  1  0
M  END

$$$$
No_1296-/export/home/yangzhenyu/potential_scad_32_flow//YTHDC2/2024-12-06-03-22-00/
     RDKit          3D

 18 19  0  0  0  0  0  0  0  0999 V2000
    1.1787   -8.0297    3.5154 C   0  0  0  0  0  0  0  0  0  0  0  0
    1.1048   -9.2215    3.2892 C   0  0  0  0  0  0  0  0  0  0  0  0
    1.2339   -9.7611    2.0189 C   0  0  0  0  0  0  0  0  0  0  0  0
    1.1954  -11.2312    1.8661 C   0  0  0  0  0  0  0  0  0  0  0  0
    1.2996  -11.5815    0.5387 C   0  0  0  0  0  0  0  0  0  0  0  0
    0.9270   -7.0442    2.4967 C   0  0  0  0  0  0  0  0  0  0  0  0
    0.9803   -7.6034    1.0978 C   0  0  0  0  0  0  0  0  0  0  0  0
    1.1096   -8.9244    0.8670 C   0  0  0  0  0  0  0  0  0  0  0  0
    1.0761  -11.9547    2.9012 C   0  0  0  0  0  0  0  0  0  0  0  0
    1.0992  -13.3196    2.5936 C   0  0  0  0  0  0  0  0  0  0  0  0
    1.1687  -13.9042    1.4254 C   0  0  0  0  0  0  0  0  0  0  0  0
    1.2869  -13.0055    0.3687 C   0  0  0  0  0  0  0  0  0  0  0  0
    0.9949   -5.6095    2.6543 C   0  0  0  0  0  0  0  0  0  0  0  0
    0.6329   -4.8415    1.6760 C   0  0  0  0  0  0  0  0  0  0  0  0
    0.1860   -3.5763    2.0628 C   0  0  0  0  0  0  0  0  0  0  0  0
   -0.4871   -3.3101    2.9966 C   0  0  0  0  0  0  0  0  0  0  0  0
   -0.0196   -2.6501    0.8612 C   0  0  0  0  0  0  0  0  0  0  0  0
   -0.5109   -1.3861    1.0089 C   0  0  0  0  0  0  0  0  0  0  0  0
  3  4  1  0
  6 13  1  0
 13 14  1  0
 14 15  1  0
 15 16  2  0
 15 17  1  0
 17 18  2  0
  4  5  2  0
  5 12  1  0
 11 12  2  0
 10 11  1  0
  9 10  2  0
  4  9  1  0
  1  2  2  0
  2  3  1  0
  3  8  2  0
  7  8  1  0
  6  7  2  0
  1  6  1  0
M  END

$$$$
No_1297-/export/home/yangzhenyu/potential_scad_32_flow//YTHDC2/2024-12-06-03-22-00/
     RDKit          3D

 19 20  0  0  0  0  0  0  0  0999 V2000
    1.1787   -8.0297    3.5154 C   0  0  0  0  0  0  0  0  0  0  0  0
    1.0491   -6.8434    2.9820 C   0  0  0  0  0  0  0  0  0  0  0  0
    0.9905   -9.0774    2.6527 C   0  0  0  0  0  0  0  0  0  0  0  0
    0.7897   -8.9519    1.3691 C   0  0  0  0  0  0  0  0  0  0  0  0
    0.6550  -10.0985    0.4848 C   0  0  0  0  0  0  0  0  0  0  0  0
    0.7849   -6.5836    1.6043 C   0  0  0  0  0  0  0  0  0  0  0  0
    0.6652   -7.6671    0.8008 C   0  0  0  0  0  0  0  0  0  0  0  0
    1.2441  -11.1828    0.5777 O   0  0  0  0  0  0  0  0  0  0  0  0
   -0.2030  -10.0131   -0.5296 O   0  0  0  0  0  0  0  0  0  0  0  0
    1.2204  -10.4450    3.2012 C   0  0  0  0  0  0  0  0  0  0  0  0
    0.2195  -11.2540    3.6484 C   0  0  0  0  0  0  0  0  0  0  0  0
    0.4664  -12.5462    3.8371 I   0  0  0  0  0  0  0  0  0  0  0  0
    0.6873   -5.2893    1.0513 O   0  0  0  0  0  0  0  0  0  0  0  0
   -1.0622  -10.5485    3.9052 C   0  0  0  0  0  0  0  0  0  0  0  0
   -2.2541  -10.8422    3.2759 C   0  0  0  0  0  0  0  0  0  0  0  0
   -3.4532  -10.4025    3.6250 C   0  0  0  0  0  0  0  0  0  0  0  0
   -3.5034   -9.0305    4.0891 C   0  0  0  0  0  0  0  0  0  0  0  0
   -2.2397   -8.5424    4.7218 C   0  0  0  0  0  0  0  0  0  0  0  0
   -1.0554   -9.2551    4.5829 C   0  0  0  0  0  0  0  0  0  0  0  0
  4  5  1  0
  5  8  1  0
  5  9  2  0
  3 10  1  0
 10 11  1  0
 11 12  1  0
  6 13  1  0
 11 14  1  0
 14 15  2  0
 15 16  1  0
 16 17  2  0
 17 18  1  0
 18 19  2  0
 14 19  1  0
  1  2  2  0
  2  6  1  0
  6  7  2  0
  4  7  1  0
  3  4  2  0
  1  3  1  0
M  END

$$$$
No_1298-/export/home/yangzhenyu/potential_scad_32_flow//YTHDC2/2024-12-06-03-22-00/
     RDKit          3D

 19 21  0  0  1  0  0  0  0  0999 V2000
    1.1787   -8.0297    3.5154 C   0  0  0  0  0  0  0  0  0  0  0  0
    1.0491   -6.8434    2.9820 C   0  0  0  0  0  0  0  0  0  0  0  0
    0.9905   -9.0774    2.6527 C   0  0  0  0  0  0  0  0  0  0  0  0
    1.1655  -10.4663    3.1286 C   0  0  0  0  0  0  0  0  0  0  0  0
    1.7409  -10.6480    4.4599 C   0  0  0  0  0  0  0  0  0  0  0  0
    0.4783   -6.4688    1.7590 C   0  0  0  0  0  0  0  0  0  0  0  0
    0.2119   -7.5787    0.9640 C   0  0  0  0  0  0  0  0  0  0  0  0
    0.4248   -8.8744    1.3136 C   0  0  0  0  0  0  0  0  0  0  0  0
    1.0421  -11.5142    2.2935 C   0  0  0  0  0  0  0  0  0  0  0  0
    1.2250  -12.5379    2.5401 C   0  0  0  0  0  0  0  0  0  0  0  0
    1.7238  -13.0108    3.9231 C   0  0  0  0  0  0  0  0  0  0  0  0
    1.8706  -12.0439    4.7712 C   0  0  0  0  0  0  0  0  0  0  0  0
    0.3084   -5.2125    1.2507 Cl  0  0  0  0  0  0  0  0  0  0  0  0
   -0.2684   -7.4591   -0.2786 C   0  0  1  0  0  0  0  0  0  0  0  0
    0.1778   -8.1059   -1.3700 C   0  0  0  0  0  0  0  0  0  0  0  0
   -0.5045   -8.2647   -2.5161 C   0  0  0  0  0  0  0  0  0  0  0  0
   -1.7269   -7.2659   -2.2414 C   0  0  0  0  0  0  0  0  0  0  0  0
   -1.5010   -6.9075   -0.8227 C   0  0  0  0  0  0  0  0  0  0  0  0
    1.2762  -14.0101    1.4280 C   0  0  0  0  0  0  0  0  0  0  0  0
  3  4  1  0
  6 13  1  0
 14  7  1  1
 14 15  1  0
 15 16  2  0
 16 17  1  0
 14 18  1  0
 17 18  1  0
 10 19  1  0
  4  5  2  0
  5 12  1  0
 11 12  2  0
 10 11  1  0
  9 10  2  0
  4  9  1  0
  1  2  2  0
  2  6  1  0
  6  7  2  0
  7  8  1  0
  3  8  2  0
  1  3  1  0
M  END

$$$$
No_1299-/export/home/yangzhenyu/potential_scad_32_flow//YTHDC2/2024-12-06-03-22-00/
     RDKit          3D

 18 18  0  0  1  0  0  0  0  0999 V2000
    1.1787   -8.0297    3.5154 C   0  0  0  0  0  0  0  0  0  0  0  0
    1.0491   -6.8434    2.9820 C   0  0  0  0  0  0  0  0  0  0  0  0
    0.0950   -8.8404    3.2292 C   0  0  0  0  0  0  0  0  0  0  0  0
   -0.9173   -8.4596    2.5152 C   0  0  0  0  0  0  0  0  0  0  0  0
   -1.0331   -7.2162    2.0653 C   0  0  0  0  0  0  0  0  0  0  0  0
   -0.0105   -6.3168    2.3081 C   0  0  0  0  0  0  0  0  0  0  0  0
    0.0485   -4.9783    1.8782 C   0  0  0  0  0  0  0  0  0  0  0  0
   -0.4744   -4.1559    2.2381 C   0  0  0  0  0  0  0  0  0  0  0  0
   -0.3956   -2.6830    1.7790 C   0  0  0  0  0  0  0  0  0  0  0  0
    0.1602  -10.2743    3.6766 C   0  0  0  0  0  0  0  0  0  0  0  0
    1.2416  -10.8255    4.0807 C   0  0  0  0  0  0  0  0  0  0  0  0
    1.1200  -12.2414    4.4243 C   0  0  0  0  0  0  0  0  0  0  0  0
    1.5832  -13.0812    3.2820 C   0  0  0  0  0  0  0  0  0  0  0  0
    0.6647  -13.4788    2.3186 C   0  0  0  0  0  0  0  0  0  0  0  0
    1.0206  -14.1655    1.3821 C   0  0  1  0  0  0  0  0  0  0  0  0
    2.4607  -14.3600    1.1580 C   0  0  0  0  0  0  0  0  0  0  0  0
    0.4933  -15.4511    1.0782 C   0  0  0  0  0  0  0  0  0  0  0  0
   -0.2007  -15.6989    0.0547 N   0  0  0  0  0  0  0  0  0  0  0  0
  6  7  1  0
  7  8  2  3
  8  9  1  0
  3 10  1  0
 10 11  2  3
 11 12  1  0
 12 13  1  0
 13 14  1  0
 14 15  1  0
 15 16  1  1
 15 17  1  0
 17 18  1  0
  1  2  2  0
  2  6  1  0
  5  6  2  0
  4  5  1  0
  3  4  2  0
  1  3  1  0
M  END

$$$$
No_1300-/export/home/yangzhenyu/potential_scad_32_flow//YTHDC2/2024-12-06-03-22-00/
     RDKit          3D

 18 19  0  0  1  0  0  0  0  0999 V2000
    1.1787   -8.0297    3.5154 O   0  0  0  0  0  0  0  0  0  0  0  0
    0.6747   -7.4019    2.7838 C   0  0  0  0  0  0  0  0  0  0  0  0
    0.5570   -6.0797    2.8560 C   0  0  0  0  0  0  0  0  0  0  0  0
   -0.2158   -5.3007    2.0284 C   0  0  0  0  0  0  0  0  0  0  0  0
   -0.8260   -5.9169    1.0290 C   0  0  0  0  0  0  0  0  0  0  0  0
   -0.6925   -7.2407    0.8216 C   0  0  0  0  0  0  0  0  0  0  0  0
    0.1645   -8.0156    1.6621 C   0  0  2  0  0  0  0  0  0  0  0  0
    0.4049   -9.3434    1.4877 C   0  0  2  0  0  0  0  0  0  0  0  0
    0.0670  -10.2565    2.0992 C   0  0  0  0  0  0  0  0  0  0  0  0
    0.7910  -11.4520    2.2506 C   0  0  0  0  0  0  0  0  0  0  0  0
    1.8126  -11.7295    1.4464 C   0  0  0  0  0  0  0  0  0  0  0  0
    1.7313   -9.5962    0.6312 C   0  0  0  0  0  0  0  0  0  0  0  0
    2.3021  -10.8044    0.6486 N   0  0  0  0  0  0  0  0  0  0  0  0
    2.2284   -8.6500   -0.2571 S   0  0  0  0  0  0  0  0  0  0  0  0
    0.2673  -12.5355    3.1189 C   0  0  0  0  0  0  0  0  0  0  0  0
    1.2046  -13.3432    3.7198 C   0  0  0  0  0  0  0  0  0  0  0  0
    1.2467  -14.6115    2.9609 C   0  0  0  0  0  0  0  0  0  0  0  0
    0.7996  -14.8229    1.9872 C   0  0  0  0  0  0  0  0  0  0  0  0
  1  2  1  0
  2  3  1  0
  3  4  2  0
  4  5  1  0
  5  6  2  0
  7  2  1  1
  6  7  1  0
  7  8  1  0
  8  9  1  1
  9 10  2  0
 10 11  1  0
  8 12  1  0
 11 13  2  0
 12 13  1  0
 12 14  2  0
 10 15  1  0
 15 16  1  0
 16 17  1  0
 17 18  2  0
M  END

$$$$
No_1301-/export/home/yangzhenyu/potential_scad_32_flow//YTHDC2/2024-12-06-03-22-00/
     RDKit          3D

  9  9  0  0  0  0  0  0  0  0999 V2000
    1.1787   -8.0297    3.5154 N   0  0  0  0  0  0  0  0  0  0  0  0
    0.8669   -7.0905    2.8589 C   0  0  0  0  0  0  0  0  0  0  0  0
    1.0447   -7.3244    1.4123 C   0  0  0  0  0  0  0  0  0  0  0  0
    1.3746   -8.4389    1.0864 C   0  0  0  0  0  0  0  0  0  0  0  0
    1.8493   -9.4093    1.8124 C   0  0  0  0  0  0  0  0  0  0  0  0
    2.3022  -10.6908    1.3119 C   0  0  0  0  0  0  0  0  0  0  0  0
    1.7092   -9.2360    3.2189 C   0  0  0  0  0  0  0  0  0  0  0  0
    1.9606  -10.2528    4.1165 C   0  0  0  0  0  0  0  0  0  0  0  0
    3.0267  -11.3994    1.8082 O   0  0  0  0  0  0  0  0  0  0  0  0
  5  6  1  0
  7  8  1  0
  6  9  1  0
  1  2  2  0
  2  3  1  0
  3  4  2  0
  4  5  1  0
  5  7  2  0
  1  7  1  0
M  END

$$$$
No_1302-/export/home/yangzhenyu/potential_scad_32_flow//YTHDC2/2024-12-06-03-22-00/
     RDKit          3D

 19 20  0  0  1  0  0  0  0  0999 V2000
    1.1787   -8.0297    3.5154 C   0  0  0  0  0  0  0  0  0  0  0  0
    1.1048   -9.2215    3.2892 C   0  0  0  0  0  0  0  0  0  0  0  0
    1.2339   -9.7611    2.0189 C   0  0  0  0  0  0  0  0  0  0  0  0
    1.3583   -9.0036    0.9764 C   0  0  0  0  0  0  0  0  0  0  0  0
    1.5996   -7.6362    1.1311 C   0  0  0  0  0  0  0  0  0  0  0  0
    1.4830   -7.0928    2.3626 C   0  0  0  0  0  0  0  0  0  0  0  0
    1.1008  -11.2372    1.8542 C   0  0  1  0  0  0  0  0  0  0  0  0
    0.4812  -11.6084    0.6459 C   0  0  0  0  0  0  0  0  0  0  0  0
   -0.3691  -10.9312    0.0124 C   0  0  0  0  0  0  0  0  0  0  0  0
   -1.0102  -11.3797   -1.1447 C   0  0  0  0  0  0  0  0  0  0  0  0
   -1.7633  -10.5197   -1.9537 C   0  0  0  0  0  0  0  0  0  0  0  0
   -1.9770   -9.1740   -1.3689 C   0  0  0  0  0  0  0  0  0  0  0  0
   -1.3247   -8.7110   -0.3076 C   0  0  0  0  0  0  0  0  0  0  0  0
   -0.5493   -9.5562    0.4453 C   0  0  0  0  0  0  0  0  0  0  0  0
    1.4792   -5.4907    2.6655 Cl  0  0  0  0  0  0  0  0  0  0  0  0
    1.9876  -12.0708    2.4983 C   0  0  0  0  0  0  0  0  0  0  0  0
    1.4193  -13.1485    3.2414 C   0  0  0  0  0  0  0  0  0  0  0  0
    0.8371  -14.2101    2.3485 C   0  0  0  0  0  0  0  0  0  0  0  0
    1.8630  -14.8784    1.6705 C   0  0  0  0  0  0  0  0  0  0  0  0
  3  7  1  0
  7  8  1  6
  6 15  1  0
  7 16  1  0
 16 17  1  0
 17 18  1  0
 18 19  1  0
  8  9  1  0
  1  2  2  0
  2  3  1  0
  3  4  2  0
  4  5  1  0
  5  6  2  0
  1  6  1  0
  9 10  2  0
 10 11  1  0
 11 12  2  0
 12 13  1  0
 13 14  2  0
  9 14  1  0
M  END

$$$$
No_1303-/export/home/yangzhenyu/potential_scad_32_flow//YTHDC2/2024-12-06-03-22-00/
     RDKit          3D

 18 18  0  0  0  0  0  0  0  0999 V2000
    1.1787   -8.0297    3.5154 C   0  0  0  0  0  0  0  0  0  0  0  0
    1.1048   -9.2215    3.2892 C   0  0  0  0  0  0  0  0  0  0  0  0
    1.3627  -10.1721    4.3044 C   0  0  0  0  0  0  0  0  0  0  0  0
    2.3720  -10.8948    4.2468 C   0  0  0  0  0  0  0  0  0  0  0  0
    0.8234   -7.0464    2.5717 C   0  0  0  0  0  0  0  0  0  0  0  0
    0.4328   -7.4736    1.3042 C   0  0  0  0  0  0  0  0  0  0  0  0
    0.3532   -8.7488    0.9919 C   0  0  0  0  0  0  0  0  0  0  0  0
    0.7039   -9.7094    1.9672 C   0  0  0  0  0  0  0  0  0  0  0  0
    0.6986  -10.9809    1.7122 C   0  0  0  0  0  0  0  0  0  0  0  0
    1.7333  -11.5997    0.9727 C   0  0  0  0  0  0  0  0  0  0  0  0
    2.6704  -10.9166    0.3707 O   0  0  0  0  0  0  0  0  0  0  0  0
    1.7875  -12.9754    0.7091 O   0  0  0  0  0  0  0  0  0  0  0  0
    0.9489   -5.5618    2.8065 C   0  0  0  0  0  0  0  0  0  0  0  0
    2.4658  -11.8919    3.7044 C   0  0  0  0  0  0  0  0  0  0  0  0
    3.5363  -10.4232    5.1662 C   0  0  0  0  0  0  0  0  0  0  0  0
    4.6764  -11.1128    5.1916 O   0  0  0  0  0  0  0  0  0  0  0  0
    1.6413   -5.2325    3.8327 C   0  0  0  0  0  0  0  0  0  0  0  0
    0.4678   -4.7830    1.8521 C   0  0  0  0  0  0  0  0  0  0  0  0
  2  3  1  0
  3  4  1  0
  8  9  1  0
  9 10  1  0
 10 11  2  0
 10 12  1  0
  5 13  1  0
  4 14  2  0
  4 15  1  0
 15 16  2  0
 13 17  1  0
 13 18  1  0
  1  2  2  0
  2  8  1  0
  7  8  2  0
  6  7  1  0
  5  6  2  0
  1  5  1  0
M  END

$$$$
No_1304-/export/home/yangzhenyu/potential_scad_32_flow//YTHDC2/2024-12-06-03-22-00/
     RDKit          3D

 19 19  0  0  1  0  0  0  0  0999 V2000
    1.1787   -8.0297    3.5154 C   0  0  0  0  0  0  0  0  0  0  0  0
    1.0491   -6.8434    2.9820 C   0  0  1  0  0  0  0  0  0  0  0  0
    1.9985   -8.9840    2.8958 C   0  0  0  0  0  0  0  0  0  0  0  0
    1.9135  -10.3404    3.6266 C   0  0  0  0  0  0  0  0  0  0  0  0
    0.9460  -10.6347    4.5748 C   0  0  0  0  0  0  0  0  0  0  0  0
   -0.0977   -9.6850    4.6652 C   0  0  0  0  0  0  0  0  0  0  0  0
   -0.0465   -8.4791    4.1040 C   0  0  0  0  0  0  0  0  0  0  0  0
    1.1124   -5.6985    3.4928 N   0  0  0  0  0  0  0  0  0  0  0  0
    1.1601   -6.6720    1.5806 C   0  0  0  0  0  0  0  0  0  0  0  0
    1.0978   -5.2844    1.2045 O   0  0  0  0  0  0  0  0  0  0  0  0
    1.2288   -7.4718    0.5788 S   0  0  0  0  0  0  0  0  0  0  0  0
   -0.0638   -7.6713   -0.2035 C   0  0  0  0  0  0  0  0  0  0  0  0
   -0.4400   -8.5708   -1.2854 C   0  0  0  0  0  0  0  0  0  0  0  0
    0.2501   -9.5686   -1.4470 O   0  0  0  0  0  0  0  0  0  0  0  0
   -1.3377   -8.2993   -2.1067 O   0  0  0  0  0  0  0  0  0  0  0  0
    0.8516  -11.9556    4.8335 O   0  0  0  0  0  0  0  0  0  0  0  0
   -1.1430   -8.5133   -3.4563 C   0  0  0  0  0  0  0  0  0  0  0  0
   -1.1508   -7.4638   -4.2686 C   0  0  0  0  0  0  0  0  0  0  0  0
   -1.1892   -6.1750   -3.8308 C   0  0  0  0  0  0  0  0  0  0  0  0
  1  2  1  0
  2  8  1  1
  2  9  1  0
  9 10  2  0
  9 11  1  0
 11 12  1  0
 12 13  1  0
 13 14  2  0
 13 15  1  0
  5 16  1  0
 15 17  1  0
 17 18  1  0
 18 19  1  0
  1  3  2  0
  3  4  1  0
  4  5  2  0
  5  6  1  0
  6  7  2  0
  1  7  1  0
M  END

$$$$
No_1305-/export/home/yangzhenyu/potential_scad_32_flow//YTHDC2/2024-12-06-03-22-00/
     RDKit          3D

 18 19  0  0  1  0  0  0  0  0999 V2000
    1.1787   -8.0297    3.5154 N   0  0  0  0  0  0  0  0  0  0  0  0
    0.8669   -7.0905    2.8589 C   0  0  0  0  0  0  0  0  0  0  0  0
    1.0447   -7.3244    1.4123 C   0  0  0  0  0  0  0  0  0  0  0  0
    1.3746   -8.4389    1.0864 C   0  0  2  0  0  0  0  0  0  0  0  0
    1.6686   -9.1952    2.5608 C   0  0  2  0  0  0  0  0  0  0  0  0
    1.9879  -10.3617    2.7281 C   0  0  0  0  0  0  0  0  0  0  0  0
    1.6558   -9.1219    0.0446 C   0  0  0  0  0  0  0  0  0  0  0  0
    1.4863  -10.3856   -0.1164 O   0  0  0  0  0  0  0  0  0  0  0  0
    1.9940   -8.4917   -1.0800 O   0  0  0  0  0  0  0  0  0  0  0  0
    1.2249  -11.2087    3.5024 C   0  0  0  0  0  0  0  0  0  0  0  0
    0.2918  -11.8839    3.0537 C   0  0  2  0  0  0  0  0  0  0  0  0
   -0.9025  -11.4543    2.8602 C   0  0  0  0  0  0  0  0  0  0  0  0
   -1.9016  -12.0424    2.2707 C   0  0  0  0  0  0  0  0  0  0  0  0
   -1.6859  -13.4183    1.9933 C   0  0  0  0  0  0  0  0  0  0  0  0
   -0.4913  -14.0273    2.3022 C   0  0  0  0  0  0  0  0  0  0  0  0
    0.5455  -13.2218    2.8205 C   0  0  0  0  0  0  0  0  0  0  0  0
    1.7479  -13.8206    3.1065 O   0  0  0  0  0  0  0  0  0  0  0  0
   -2.6829  -14.1979    1.3991 O   0  0  0  0  0  0  0  0  0  0  0  0
  1  2  1  0
  2  3  2  0
  3  4  1  0
  1  5  1  0
  4  5  1  0
  5  6  1  6
  4  7  1  6
  7  8  2  0
  7  9  1  0
  6 10  1  0
 11 10  1  1
 11 12  1  0
 13 14  1  0
 11 16  1  0
 15 16  1  0
 16 17  2  0
 14 18  1  0
 12 13  1  0
 14 15  1  0
M  END

$$$$
No_1306-/export/home/yangzhenyu/potential_scad_32_flow//YTHDC2/2024-12-06-03-22-00/
     RDKit          3D

 19 20  0  0  0  0  0  0  0  0999 V2000
    1.1787   -8.0297    3.5154 C   0  0  0  0  0  0  0  0  0  0  0  0
    1.0491   -6.8434    2.9820 C   0  0  0  0  0  0  0  0  0  0  0  0
    0.2462   -8.9560    3.0873 C   0  0  0  0  0  0  0  0  0  0  0  0
    0.3295   -6.5187    1.9069 C   0  0  0  0  0  0  0  0  0  0  0  0
   -0.5260   -8.7862    2.1368 C   0  0  0  0  0  0  0  0  0  0  0  0
   -0.5458   -7.5614    1.5054 C   0  0  0  0  0  0  0  0  0  0  0  0
    0.3636   -5.3203    1.2895 C   0  0  0  0  0  0  0  0  0  0  0  0
   -0.3374   -4.2631    1.7514 N   0  0  0  0  0  0  0  0  0  0  0  0
    0.3331  -10.3331    3.6763 C   0  0  0  0  0  0  0  0  0  0  0  0
    0.3732  -11.5171    2.8645 C   0  0  0  0  0  0  0  0  0  0  0  0
    0.9942  -12.3556    3.0605 C   0  0  0  0  0  0  0  0  0  0  0  0
    1.0730  -13.6122    2.4562 C   0  0  0  0  0  0  0  0  0  0  0  0
    0.3003  -13.8458    1.5260 C   0  0  0  0  0  0  0  0  0  0  0  0
   -0.4272  -12.8256    0.9816 C   0  0  0  0  0  0  0  0  0  0  0  0
   -0.4813  -11.6627    1.6790 C   0  0  0  0  0  0  0  0  0  0  0  0
    1.9443  -14.7548    2.9517 Cl  0  0  0  0  0  0  0  0  0  0  0  0
   -1.7061   -4.3025    1.7427 C   0  0  0  0  0  0  0  0  0  0  0  0
   -2.3353   -4.3170    0.5591 C   0  0  0  0  0  0  0  0  0  0  0  0
   -1.8823   -3.4489   -0.3612 C   0  0  0  0  0  0  0  0  0  0  0  0
  4  7  1  0
  7  8  1  0
  3  9  1  0
  9 10  1  0
 12 16  1  0
  8 17  1  0
 17 18  1  0
 18 19  1  0
  1  2  2  0
  2  4  1  0
  4  6  2  0
  5  6  1  0
  3  5  2  0
  1  3  1  0
 10 11  2  0
 11 12  1  0
 12 13  2  0
 13 14  1  0
 14 15  2  0
 10 15  1  0
M  END

$$$$
No_1307-/export/home/yangzhenyu/potential_scad_32_flow//YTHDC2/2024-12-06-03-22-00/
     RDKit          3D

 17 17  0  0  1  0  0  0  0  0999 V2000
    1.1787   -8.0297    3.5154 C   0  0  0  0  0  0  0  0  0  0  0  0
    1.0491   -6.8434    2.9820 C   0  0  0  0  0  0  0  0  0  0  0  0
    0.9905   -9.0774    2.6527 C   0  0  0  0  0  0  0  0  0  0  0  0
    0.7897   -8.9519    1.3691 C   0  0  0  0  0  0  0  0  0  0  0  0
    0.7018   -7.7198    0.7892 C   0  0  0  0  0  0  0  0  0  0  0  0
    0.8918   -6.5957    1.6117 C   0  0  0  0  0  0  0  0  0  0  0  0
    1.0998  -10.4710    3.2437 C   0  0  0  0  0  0  0  0  0  0  0  0
    1.3102  -11.5554    2.5214 C   0  0  0  0  0  0  0  0  0  0  0  0
    1.4257  -12.8124    3.1919 C   0  0  0  0  0  0  0  0  0  0  0  0
    1.4301  -14.0627    2.4374 C   0  0  1  0  0  0  0  0  0  0  0  0
    0.8588   -5.2558    1.2463 O   0  0  0  0  0  0  0  0  0  0  0  0
    2.4184  -14.2079    1.4799 C   0  0  0  0  0  0  0  0  0  0  0  0
    1.5964  -15.2823    3.4073 C   0  0  0  0  0  0  0  0  0  0  0  0
    0.9508  -16.4854    2.7464 C   0  0  0  0  0  0  0  0  0  0  0  0
    1.7147  -17.3952    2.5802 C   0  0  0  0  0  0  0  0  0  0  0  0
    1.6077  -18.4734    2.4911 C   0  0  0  0  0  0  0  0  0  0  0  0
    0.3351  -18.9758    2.4148 C   0  0  0  0  0  0  0  0  0  0  0  0
  1  2  1  0
  3  4  1  0
  2  6  1  0
  5  6  1  0
  3  7  1  0
  7  8  2  3
  8  9  1  0
  9 10  1  0
  6 11  2  0
 10 12  1  6
 10 13  1  0
 13 14  1  0
 14 15  1  0
 15 16  2  3
 16 17  1  0
  1  3  1  0
  4  5  1  0
M  END

$$$$
No_1308-/export/home/yangzhenyu/potential_scad_32_flow//YTHDC2/2024-12-06-03-22-00/
     RDKit          3D

 17 18  0  0  1  0  0  0  0  0999 V2000
    1.1787   -8.0297    3.5154 C   0  0  0  0  0  0  0  0  0  0  0  0
    1.1048   -9.2215    3.2892 C   0  0  0  0  0  0  0  0  0  0  0  0
    1.3627  -10.1721    4.3044 C   0  0  0  0  0  0  0  0  0  0  0  0
    1.7354  -11.4730    3.9023 C   0  0  0  0  0  0  0  0  0  0  0  0
    1.8080  -11.8127    2.7216 C   0  0  0  0  0  0  0  0  0  0  0  0
    1.5854  -11.0021    1.7249 C   0  0  0  0  0  0  0  0  0  0  0  0
    1.3573   -9.7389    1.9287 C   0  0  0  0  0  0  0  0  0  0  0  0
    1.2865   -8.8078    0.9161 C   0  0  0  0  0  0  0  0  0  0  0  0
    1.6845   -9.1638   -0.2896 O   0  0  0  0  0  0  0  0  0  0  0  0
    1.1989   -7.4617    1.0956 N   0  0  0  0  0  0  0  0  0  0  0  0
    1.0953   -7.0087    2.3768 C   0  0  2  0  0  0  0  0  0  0  0  0
    1.0451   -5.6234    2.5613 C   0  0  1  0  0  0  0  0  0  0  0  0
    2.0437  -13.2232    2.3582 O   0  0  0  0  0  0  0  0  0  0  0  0
    1.6423   -5.0856    3.5294 C   0  0  0  0  0  0  0  0  0  0  0  0
    1.4244   -3.6227    3.6064 O   0  0  0  0  0  0  0  0  0  0  0  0
    0.4599   -4.8308    1.6418 C   0  0  0  0  0  0  0  0  0  0  0  0
    0.9857   -3.5532    1.4947 O   0  0  0  0  0  0  0  0  0  0  0  0
  1  2  1  0
  7  8  1  0
  8  9  2  0
  8 10  1  0
 11  1  1  1
 10 11  1  0
 11 12  1  0
  5 13  1  0
 12 14  1  6
 14 15  1  0
 12 16  1  0
 16 17  2  0
  2  3  2  0
  3  4  1  0
  4  5  2  0
  5  6  1  0
  6  7  2  0
  2  7  1  0
M  END

$$$$
No_1309-/export/home/yangzhenyu/potential_scad_32_flow//YTHDC2/2024-12-06-03-22-00/
     RDKit          3D

 19 20  0  0  1  0  0  0  0  0999 V2000
    1.1787   -8.0297    3.5154 C   0  0  0  0  0  0  0  0  0  0  0  0
    1.1048   -9.2215    3.2892 C   0  0  0  0  0  0  0  0  0  0  0  0
    1.2339   -9.7611    2.0189 C   0  0  0  0  0  0  0  0  0  0  0  0
    1.3583   -9.0036    0.9764 C   0  0  0  0  0  0  0  0  0  0  0  0
    1.5996   -7.6362    1.1311 C   0  0  0  0  0  0  0  0  0  0  0  0
    1.4830   -7.0928    2.3626 C   0  0  0  0  0  0  0  0  0  0  0  0
    1.1008  -11.2372    1.8542 C   0  0  2  0  0  0  0  0  0  0  0  0
    1.9749  -12.0938    2.2342 C   0  0  0  0  0  0  0  0  0  0  0  0
    1.7533  -13.4231    1.8956 S   0  0  0  0  0  0  0  0  0  0  0  0
    0.4384  -13.2474    0.8964 C   0  0  0  0  0  0  0  0  0  0  0  0
    0.2719  -11.8454    0.9048 C   0  0  1  0  0  0  0  0  0  0  0  0
   -0.7520  -11.1659    0.3055 C   0  0  0  0  0  0  0  0  0  0  0  0
   -0.9083  -10.9177   -0.9174 O   0  0  0  0  0  0  0  0  0  0  0  0
   -1.6957  -10.4956    1.2515 N   0  0  0  0  0  0  0  0  0  0  0  0
    1.5948   -5.6540    2.6870 Cl  0  0  0  0  0  0  0  0  0  0  0  0
   -2.7425   -9.7403    0.8568 C   0  0  0  0  0  0  0  0  0  0  0  0
   -2.4510   -8.3841    0.9952 C   0  0  0  0  0  0  0  0  0  0  0  0
   -1.8960   -7.6540   -0.1075 C   0  0  0  0  0  0  0  0  0  0  0  0
   -2.5464   -6.6305   -0.6684 O   0  0  0  0  0  0  0  0  0  0  0  0
  7  3  1  6
  7  8  1  0
  8  9  1  0
  9 10  1  0
  7 11  1  0
 10 11  1  0
 11 12  1  1
 12 13  2  0
 12 14  1  0
  6 15  1  0
 14 16  1  0
 16 17  1  0
 17 18  1  0
 18 19  2  0
  1  2  2  0
  2  3  1  0
  3  4  2  0
  4  5  1  0
  5  6  2  0
  1  6  1  0
M  END

$$$$
No_1310-/export/home/yangzhenyu/potential_scad_32_flow//YTHDC2/2024-12-06-03-22-00/
     RDKit          3D

 19 20  0  0  0  0  0  0  0  0999 V2000
    1.1787   -8.0297    3.5154 C   0  0  0  0  0  0  0  0  0  0  0  0
    1.0491   -6.8434    2.9820 C   0  0  0  0  0  0  0  0  0  0  0  0
    1.9985   -8.9840    2.8958 C   0  0  0  0  0  0  0  0  0  0  0  0
    1.1814  -10.1889    2.5497 C   0  0  0  0  0  0  0  0  0  0  0  0
    0.3496  -10.1352    1.6537 C   0  0  0  0  0  0  0  0  0  0  0  0
   -0.8355  -10.5689    1.8959 C   0  0  0  0  0  0  0  0  0  0  0  0
   -1.2491  -11.0204    2.8884 C   0  0  0  0  0  0  0  0  0  0  0  0
   -0.2164  -11.1548    4.0484 C   0  0  0  0  0  0  0  0  0  0  0  0
    1.0135  -10.6898    3.8629 C   0  0  0  0  0  0  0  0  0  0  0  0
    1.7450   -5.7860    3.0773 C   0  0  0  0  0  0  0  0  0  0  0  0
    1.3500   -4.6734    2.2200 N   0  0  0  0  0  0  0  0  0  0  0  0
    0.4382   -5.2646    1.3371 C   0  0  0  0  0  0  0  0  0  0  0  0
    0.2495   -6.5183    1.6925 N   0  0  0  0  0  0  0  0  0  0  0  0
    2.0654  -11.0430    4.6560 C   0  0  0  0  0  0  0  0  0  0  0  0
    0.8297   -9.6834    0.1764 C   0  0  0  0  0  0  0  0  0  0  0  0
   -0.0911   -9.2717   -0.7057 C   0  0  0  0  0  0  0  0  0  0  0  0
    2.1069   -9.9291   -0.1530 O   0  0  0  0  0  0  0  0  0  0  0  0
   -0.3755   -7.8792   -0.7306 O   0  0  0  0  0  0  0  0  0  0  0  0
   -0.5355   -9.9104   -1.6882 O   0  0  0  0  0  0  0  0  0  0  0  0
  1  2  1  0
  1  3  1  0
  3  4  1  0
  2 10  1  0
 10 11  1  0
 11 12  2  0
  2 13  2  0
 12 13  1  0
  9 14  1  0
  5 15  1  0
 15 16  1  0
 15 17  2  0
 16 18  1  0
 16 19  2  0
  4  5  2  0
  5  6  1  0
  6  7  2  0
  7  8  1  0
  8  9  2  0
  4  9  1  0
M  END

$$$$
No_1311-/export/home/yangzhenyu/potential_scad_32_flow//YTHDC2/2024-12-06-03-22-00/
     RDKit          3D

 18 19  0  0  0  0  0  0  0  0999 V2000
    1.1787   -8.0297    3.5154 C   0  0  0  0  0  0  0  0  0  0  0  0
    1.1048   -9.2215    3.2892 C   0  0  0  0  0  0  0  0  0  0  0  0
    1.3627  -10.1721    4.3044 C   0  0  0  0  0  0  0  0  0  0  0  0
    2.3720  -10.8948    4.2468 C   0  0  0  0  0  0  0  0  0  0  0  0
    1.0579   -7.0441    2.4219 C   0  0  0  0  0  0  0  0  0  0  0  0
    0.8578   -7.4970    1.1686 C   0  0  0  0  0  0  0  0  0  0  0  0
    0.7382   -8.7683    0.8754 C   0  0  0  0  0  0  0  0  0  0  0  0
    0.8882   -9.7347    1.9238 C   0  0  0  0  0  0  0  0  0  0  0  0
    0.9437  -11.0299    1.7005 C   0  0  0  0  0  0  0  0  0  0  0  0
    1.9466  -11.5929    1.1835 O   0  0  0  0  0  0  0  0  0  0  0  0
   -0.1679  -11.7601    1.7357 C   0  0  0  0  0  0  0  0  0  0  0  0
   -0.2248  -13.1202    1.6930 C   0  0  0  0  0  0  0  0  0  0  0  0
   -1.4387  -13.8711    1.6502 C   0  0  0  0  0  0  0  0  0  0  0  0
   -2.6194  -13.2814    1.6278 C   0  0  0  0  0  0  0  0  0  0  0  0
   -2.6651  -11.8459    1.7893 C   0  0  0  0  0  0  0  0  0  0  0  0
   -1.5122  -11.0584    1.7415 C   0  0  0  0  0  0  0  0  0  0  0  0
    1.2364   -5.3825    2.7364 Cl  0  0  0  0  0  0  0  0  0  0  0  0
   -3.8797  -14.0156    1.6558 N   0  0  0  0  0  0  0  0  0  0  0  0
  2  3  1  0
  3  4  1  0
  8  9  1  0
  9 10  2  0
  9 11  1  0
  5 17  1  0
 14 18  1  0
 11 12  2  0
 12 13  1  0
 13 14  2  0
 14 15  1  0
 15 16  2  0
 11 16  1  0
  1  2  2  0
  2  8  1  0
  7  8  2  0
  6  7  1  0
  5  6  2  0
  1  5  1  0
M  END

$$$$
No_1312-/export/home/yangzhenyu/potential_scad_32_flow//YTHDC2/2024-12-06-03-22-00/
     RDKit          3D

 17 18  0  0  0  0  0  0  0  0999 V2000
    1.1787   -8.0297    3.5154 C   0  0  0  0  0  0  0  0  0  0  0  0
    1.1048   -9.2215    3.2892 C   0  0  0  0  0  0  0  0  0  0  0  0
    1.2339   -9.7611    2.0189 C   0  0  0  0  0  0  0  0  0  0  0  0
    1.1954  -11.2312    1.8661 C   0  0  0  0  0  0  0  0  0  0  0  0
    1.5546  -12.1691    2.7931 C   0  0  0  0  0  0  0  0  0  0  0  0
    0.9527   -7.0669    2.3918 C   0  0  0  0  0  0  0  0  0  0  0  0
    1.0618   -7.6392    1.0692 C   0  0  0  0  0  0  0  0  0  0  0  0
    1.2060   -8.9530    0.8578 C   0  0  0  0  0  0  0  0  0  0  0  0
    1.5110  -13.5006    2.3856 C   0  0  0  0  0  0  0  0  0  0  0  0
    1.1461  -13.9087    1.2014 C   0  0  0  0  0  0  0  0  0  0  0  0
    0.9324  -13.0660    0.2177 C   0  0  0  0  0  0  0  0  0  0  0  0
    0.9275  -11.6786    0.5224 C   0  0  0  0  0  0  0  0  0  0  0  0
    1.0094   -5.6129    2.4729 C   0  0  0  0  0  0  0  0  0  0  0  0
    0.3087   -4.8927    1.6394 C   0  0  0  0  0  0  0  0  0  0  0  0
    0.9177   -3.6189    1.4052 C   0  0  0  0  0  0  0  0  0  0  0  0
    2.0161   -3.1730    2.0089 C   0  0  0  0  0  0  0  0  0  0  0  0
    2.7156   -3.9779    2.8780 C   0  0  0  0  0  0  0  0  0  0  0  0
  3  4  1  0
  6 13  1  0
 13 14  1  0
 14 15  2  3
 15 16  1  0
 16 17  2  0
  1  2  2  0
  2  3  1  0
  3  8  2  0
  7  8  1  0
  6  7  2  0
  1  6  1  0
  4  5  2  0
  5  9  1  0
  9 10  2  0
 10 11  1  0
 11 12  2  0
  4 12  1  0
M  END

$$$$
No_1313-/export/home/yangzhenyu/potential_scad_32_flow//YTHDC2/2024-12-06-03-22-00/
     RDKit          3D

 20 21  0  0  1  0  0  0  0  0999 V2000
    1.1787   -8.0297    3.5154 C   0  0  0  0  0  0  0  0  0  0  0  0
    1.1048   -9.2215    3.2892 C   0  0  1  0  0  0  0  0  0  0  0  0
    1.2339   -9.7611    2.0189 C   0  0  1  0  0  0  0  0  0  0  0  0
    1.1954  -11.2312    1.8661 C   0  0  0  0  0  0  0  0  0  0  0  0
    1.5546  -12.1691    2.7931 C   0  0  0  0  0  0  0  0  0  0  0  0
    0.9527   -7.0669    2.3918 C   0  0  2  0  0  0  0  0  0  0  0  0
    1.0618   -7.6392    1.0692 C   0  0  0  0  0  0  0  0  0  0  0  0
    1.2954   -8.9268    0.7694 C   0  0  0  0  0  0  0  0  0  0  0  0
    1.5107  -13.4997    2.3698 C   0  0  0  0  0  0  0  0  0  0  0  0
    1.1322  -13.8979    1.1912 C   0  0  0  0  0  0  0  0  0  0  0  0
    0.9188  -13.0569    0.2170 C   0  0  0  0  0  0  0  0  0  0  0  0
    0.9212  -11.6716    0.5272 C   0  0  0  0  0  0  0  0  0  0  0  0
    0.9988   -5.6098    2.4566 Cl  0  0  0  0  0  0  0  0  0  0  0  0
    1.9826   -9.2190   -0.2328 O   0  0  0  0  0  0  0  0  0  0  0  0
    1.8657  -14.3873    3.4789 Cl  0  0  0  0  0  0  0  0  0  0  0  0
    1.2214  -15.2089    0.8449 Cl  0  0  0  0  0  0  0  0  0  0  0  0
    1.0880  -10.0870    4.4332 O   0  0  0  0  0  0  0  0  0  0  0  0
    0.8613   -6.9553    0.0643 O   0  0  0  0  0  0  0  0  0  0  0  0
    1.5722   -9.6071    5.6453 C   0  0  0  0  0  0  0  0  0  0  0  0
    2.9161  -10.5891    5.7041 C   0  0  0  0  0  0  0  0  0  0  0  0
  1  2  1  0
  3  4  1  6
  6  7  1  0
  3  8  1  0
  7  8  1  0
  6 13  1  6
  8 14  2  0
  9 15  1  0
 10 16  1  0
  2 17  1  1
  7 18  2  0
 17 19  1  0
 19 20  1  0
  1  6  1  0
  2  3  1  0
  4  5  2  0
  5  9  1  0
  9 10  2  0
 10 11  1  0
 11 12  2  0
  4 12  1  0
M  END

$$$$
No_1314-/export/home/yangzhenyu/potential_scad_32_flow//YTHDC2/2024-12-06-03-22-00/
     RDKit          3D

 18 20  0  0  0  0  0  0  0  0999 V2000
    1.1787   -8.0297    3.5154 C   0  0  0  0  0  0  0  0  0  0  0  0
    1.0491   -6.8434    2.9820 C   0  0  0  0  0  0  0  0  0  0  0  0
    0.9905   -9.0774    2.6527 C   0  0  0  0  0  0  0  0  0  0  0  0
    0.7897   -8.9519    1.3691 C   0  0  0  0  0  0  0  0  0  0  0  0
    0.8824   -7.5617    0.9293 C   0  0  0  0  0  0  0  0  0  0  0  0
    1.0828   -6.5260    1.6856 C   0  0  0  0  0  0  0  0  0  0  0  0
    0.9545  -10.5987    3.2410 C   0  0  0  0  0  0  0  0  0  0  0  0
   -0.1948  -11.1536    3.4046 C   0  0  0  0  0  0  0  0  0  0  0  0
   -0.2972  -12.4725    3.2648 C   0  0  0  0  0  0  0  0  0  0  0  0
    0.8695  -13.2911    3.0941 C   0  0  0  0  0  0  0  0  0  0  0  0
    2.0497  -12.6771    2.9408 C   0  0  0  0  0  0  0  0  0  0  0  0
    2.1342  -11.2687    2.8556 C   0  0  0  0  0  0  0  0  0  0  0  0
    0.8197  -14.6755    3.1719 C   0  0  0  0  0  0  0  0  0  0  0  0
   -0.1919  -15.4148    3.3370 C   0  0  0  0  0  0  0  0  0  0  0  0
   -0.2470  -16.7662    3.4199 C   0  0  0  0  0  0  0  0  0  0  0  0
    0.7299  -17.5828    2.8817 C   0  0  0  0  0  0  0  0  0  0  0  0
    1.9672  -16.8650    2.4733 C   0  0  0  0  0  0  0  0  0  0  0  0
    2.0102  -15.4387    2.4739 C   0  0  0  0  0  0  0  0  0  0  0  0
  3  7  1  0
 10 13  1  0
 13 14  2  0
 14 15  1  0
 15 16  2  0
 16 17  1  0
 17 18  2  0
 13 18  1  0
  1  2  2  0
  2  6  1  0
  5  6  2  0
  4  5  1  0
  3  4  2  0
  1  3  1  0
  7  8  2  0
  8  9  1  0
  9 10  2  0
 10 11  1  0
 11 12  2  0
  7 12  1  0
M  END

$$$$
No_1315-/export/home/yangzhenyu/potential_scad_32_flow//YTHDC2/2024-12-06-03-22-00/
     RDKit          3D

 19 19  0  0  1  0  0  0  0  0999 V2000
    1.1787   -8.0297    3.5154 C   0  0  0  0  0  0  0  0  0  0  0  0
    1.0491   -6.8434    2.9820 C   0  0  0  0  0  0  0  0  0  0  0  0
    0.0950   -8.8404    3.2292 C   0  0  0  0  0  0  0  0  0  0  0  0
   -0.9173   -8.4596    2.5152 C   0  0  0  0  0  0  0  0  0  0  0  0
   -1.0331   -7.2162    2.0653 C   0  0  0  0  0  0  0  0  0  0  0  0
   -0.0105   -6.3168    2.3081 C   0  0  0  0  0  0  0  0  0  0  0  0
    0.1935  -10.3737    3.7416 C   0  0  0  0  0  0  0  0  0  0  0  0
    1.2406  -10.8901    4.0986 C   0  0  0  0  0  0  0  0  0  0  0  0
    1.7689  -11.7893    3.2364 C   0  0  2  0  0  0  0  0  0  0  0  0
    1.5908  -11.3402    1.8363 C   0  0  0  0  0  0  0  0  0  0  0  0
    2.3788  -10.2063    1.4462 C   0  0  0  0  0  0  0  0  0  0  0  0
    2.2011   -9.6376    0.2839 C   0  0  0  0  0  0  0  0  0  0  0  0
    2.6407   -8.2687   -0.0102 C   0  0  0  0  0  0  0  0  0  0  0  0
    1.8974  -13.0503    3.4720 C   0  0  0  0  0  0  0  0  0  0  0  0
   -0.0010   -5.1350    1.5601 C   0  0  0  0  0  0  0  0  0  0  0  0
    0.9956   -4.2758    1.9566 O   0  0  0  0  0  0  0  0  0  0  0  0
   -0.7784   -4.6437    0.7509 O   0  0  0  0  0  0  0  0  0  0  0  0
    2.2721  -13.9644    2.3768 C   0  0  0  0  0  0  0  0  0  0  0  0
    2.0643  -15.4148    2.6534 O   0  0  0  0  0  0  0  0  0  0  0  0
  3  7  1  0
  7  8  1  0
  9  8  1  1
  9 10  1  0
 10 11  1  0
 11 12  2  3
 12 13  1  0
  9 14  1  0
  6 15  1  0
 15 16  2  0
 15 17  1  0
 14 18  1  0
 18 19  1  0
  1  2  2  0
  2  6  1  0
  5  6  2  0
  4  5  1  0
  3  4  2  0
  1  3  1  0
M  END

$$$$
No_1316-/export/home/yangzhenyu/potential_scad_32_flow//YTHDC2/2024-12-06-03-22-00/
     RDKit          3D

 20 20  0  0  1  0  0  0  0  0999 V2000
    1.1787   -8.0297    3.5154 O   0  0  0  0  0  0  0  0  0  0  0  0
    0.6747   -7.4019    2.7838 C   0  0  0  0  0  0  0  0  0  0  0  0
    0.7594   -8.0032    1.4295 C   0  0  0  0  0  0  0  0  0  0  0  0
    0.3459   -9.1500    1.3581 C   0  0  2  0  0  0  0  0  0  0  0  0
    0.9461   -9.9230    0.3350 C   0  0  0  0  0  0  0  0  0  0  0  0
    0.6395  -11.0790    0.1456 O   0  0  0  0  0  0  0  0  0  0  0  0
    1.7820   -9.2531   -0.5227 O   0  0  0  0  0  0  0  0  0  0  0  0
    0.2957   -6.2780    3.0749 O   0  0  0  0  0  0  0  0  0  0  0  0
   -1.1592   -9.2296    1.2337 C   0  0  1  0  0  0  0  0  0  0  0  0
   -1.7950   -9.8080    2.2041 C   0  0  0  0  0  0  0  0  0  0  0  0
   -2.7012   -9.2497    2.9753 C   0  0  1  0  0  0  0  0  0  0  0  0
   -3.3768   -8.1569    2.5064 C   0  0  0  0  0  0  0  0  0  0  0  0
   -2.9550   -7.6102    1.3224 C   0  0  0  0  0  0  0  0  0  0  0  0
   -1.8880   -8.1769    0.6143 C   0  0  0  0  0  0  0  0  0  0  0  0
   -1.4769   -7.6996   -0.6424 O   0  0  0  0  0  0  0  0  0  0  0  0
   -3.2435   -9.7492    4.2321 C   0  0  0  0  0  0  0  0  0  0  0  0
   -3.1018   -8.9859    5.2330 C   0  0  1  0  0  0  0  0  0  0  0  0
   -1.9253   -8.2544    5.6208 C   0  0  0  0  0  0  0  0  0  0  0  0
   -4.2532   -8.5922    6.0103 C   0  0  0  0  0  0  0  0  0  0  0  0
   -4.0990   -7.6465    7.0610 C   0  0  0  0  0  0  0  0  0  0  0  0
  1  2  1  0
  2  3  1  0
  4  3  1  6
  4  5  1  0
  5  6  1  0
  5  7  2  0
  2  8  2  0
  4  9  1  0
  9 10  1  1
 11 12  1  0
  9 14  1  0
 13 14  1  0
 14 15  2  0
 11 16  1  6
 16 17  1  0
 17 18  1  6
 17 19  1  0
 19 20  1  0
 10 11  1  0
 12 13  1  0
M  END

$$$$
No_1317-/export/home/yangzhenyu/potential_scad_32_flow//YTHDC2/2024-12-06-03-22-00/
     RDKit          3D

 17 17  0  0  0  0  0  0  0  0999 V2000
    1.1787   -8.0297    3.5154 C   0  0  0  0  0  0  0  0  0  0  0  0
    1.0491   -6.8434    2.9820 C   0  0  0  0  0  0  0  0  0  0  0  0
    0.9905   -9.0774    2.6527 C   0  0  0  0  0  0  0  0  0  0  0  0
    0.9687   -8.6883    1.3634 C   0  0  0  0  0  0  0  0  0  0  0  0
    1.0948   -6.3768    1.7686 C   0  0  0  0  0  0  0  0  0  0  0  0
    0.9504   -7.3975    0.8471 C   0  0  0  0  0  0  0  0  0  0  0  0
    0.9617   -9.7173    0.3352 C   0  0  0  0  0  0  0  0  0  0  0  0
    0.7096   -9.5224   -0.9434 O   0  0  0  0  0  0  0  0  0  0  0  0
    1.1277  -11.0558    0.6195 N   0  0  0  0  0  0  0  0  0  0  0  0
    1.6199  -11.5837    1.8265 C   0  0  0  0  0  0  0  0  0  0  0  0
    1.0042  -12.7119    2.3314 C   0  0  0  0  0  0  0  0  0  0  0  0
    0.8178  -13.7186    1.9530 C   0  0  0  0  0  0  0  0  0  0  0  0
    0.1931  -14.7841    2.7104 C   0  0  0  0  0  0  0  0  0  0  0  0
    0.0662  -14.5334    4.0904 F   0  0  0  0  0  0  0  0  0  0  0  0
   -1.1022  -15.2014    2.4294 C   0  0  0  0  0  0  0  0  0  0  0  0
    1.1714  -15.9628    2.7144 C   0  0  0  0  0  0  0  0  0  0  0  0
    1.0419   -5.0366    1.3775 O   0  0  0  0  0  0  0  0  0  0  0  0
  4  7  1  0
  7  8  2  0
  7  9  1  0
  9 10  1  0
 10 11  1  0
 11 12  2  3
 12 13  1  0
 13 14  1  0
 13 15  1  0
 13 16  1  0
  5 17  1  0
  1  2  2  0
  2  5  1  0
  5  6  2  0
  4  6  1  0
  3  4  2  0
  1  3  1  0
M  END

$$$$
No_1318-/export/home/yangzhenyu/potential_scad_32_flow//YTHDC2/2024-12-06-03-22-00/
     RDKit          3D

 19 20  0  0  1  0  0  0  0  0999 V2000
    1.1787   -8.0297    3.5154 C   0  0  0  0  0  0  0  0  0  0  0  0
    1.0491   -6.8434    2.9820 C   0  0  0  0  0  0  0  0  0  0  0  0
    0.9905   -9.0774    2.6527 C   0  0  0  0  0  0  0  0  0  0  0  0
    0.7897   -8.9519    1.3691 C   0  0  0  0  0  0  0  0  0  0  0  0
    0.7018   -7.7198    0.7892 C   0  0  0  0  0  0  0  0  0  0  0  0
    0.8918   -6.5957    1.6117 C   0  0  0  0  0  0  0  0  0  0  0  0
    1.0711  -10.4814    3.2282 C   0  0  2  0  0  0  0  0  0  0  0  0
    2.1432  -11.0138    3.5962 C   0  0  0  0  0  0  0  0  0  0  0  0
   -0.0553  -11.2345    3.2841 C   0  0  0  0  0  0  0  0  0  0  0  0
   -0.7563  -11.4623    2.5482 C   0  0  0  0  0  0  0  0  0  0  0  0
   -2.0734  -12.1021    2.5891 C   0  0  0  0  0  0  0  0  0  0  0  0
   -2.8786  -12.2120    1.7453 C   0  0  0  0  0  0  0  0  0  0  0  0
   -2.4989  -11.8164    0.4515 C   0  0  0  0  0  0  0  0  0  0  0  0
   -1.3038  -11.2615    0.1002 C   0  0  0  0  0  0  0  0  0  0  0  0
   -0.4148  -11.0756    1.1071 C   0  0  0  0  0  0  0  0  0  0  0  0
    0.8803   -5.2622    1.1236 Cl  0  0  0  0  0  0  0  0  0  0  0  0
    2.1870  -11.6175    4.9618 O   0  0  0  0  0  0  0  0  0  0  0  0
   -3.5104  -12.1325   -0.7196 O   0  0  0  0  0  0  0  0  0  0  0  0
   -3.8860  -11.1668   -1.4979 C   0  0  0  0  0  0  0  0  0  0  0  0
  3  7  1  0
  7  8  1  0
  7  9  1  6
  6 16  1  0
  8 17  2  0
 13 18  1  0
 18 19  1  0
  9 10  1  0
  1  2  2  0
  2  6  1  0
  5  6  2  0
  4  5  1  0
  3  4  2  0
  1  3  1  0
 10 11  2  0
 11 12  1  0
 12 13  2  0
 13 14  1  0
 14 15  2  0
 10 15  1  0
M  END

$$$$
No_1319-/export/home/yangzhenyu/potential_scad_32_flow//YTHDC2/2024-12-06-03-22-00/
     RDKit          3D

 20 21  0  0  0  0  0  0  0  0999 V2000
    1.1787   -8.0297    3.5154 C   0  0  0  0  0  0  0  0  0  0  0  0
    1.1048   -9.2215    3.2892 C   0  0  0  0  0  0  0  0  0  0  0  0
    1.2339   -9.7611    2.0189 C   0  0  0  0  0  0  0  0  0  0  0  0
    1.3583   -9.0036    0.9764 C   0  0  0  0  0  0  0  0  0  0  0  0
    1.5996   -7.6362    1.1311 C   0  0  0  0  0  0  0  0  0  0  0  0
    1.4830   -7.0928    2.3626 C   0  0  0  0  0  0  0  0  0  0  0  0
    1.4898   -5.7274    2.6199 C   0  0  0  0  0  0  0  0  0  0  0  0
    1.1882  -11.3736    1.8424 C   0  0  0  0  0  0  0  0  0  0  0  0
    0.2883  -11.9819    2.0702 C   0  0  0  0  0  0  0  0  0  0  0  0
    0.4271  -13.3696    2.3969 C   0  0  0  0  0  0  0  0  0  0  0  0
    1.5599  -13.9738    2.1480 C   0  0  0  0  0  0  0  0  0  0  0  0
    2.7725  -13.2003    1.7932 C   0  0  0  0  0  0  0  0  0  0  0  0
    2.5341  -11.8568    1.5306 C   0  0  0  0  0  0  0  0  0  0  0  0
    1.2500   -4.8676    1.6104 Br  0  0  0  0  0  0  0  0  0  0  0  0
    1.7510  -15.3751    2.3238 Cl  0  0  0  0  0  0  0  0  0  0  0  0
    1.8004   -5.2546    3.9515 O   0  0  0  0  0  0  0  0  0  0  0  0
    1.5576   -9.4794   -0.3464 O   0  0  0  0  0  0  0  0  0  0  0  0
    0.8309  -10.2472    4.5422 O   0  0  0  0  0  0  0  0  0  0  0  0
   -0.7830  -14.1845    2.8327 Cl  0  0  0  0  0  0  0  0  0  0  0  0
    0.6809   -9.0715   -1.3070 C   0  0  0  0  0  0  0  0  0  0  0  0
  6  7  1  0
  3  8  1  0
  7 14  1  0
 11 15  1  0
  7 16  2  0
  4 17  1  0
  2 18  1  0
 10 19  1  0
 17 20  1  0
  1  2  2  0
  2  3  1  0
  3  4  2  0
  4  5  1  0
  5  6  2  0
  1  6  1  0
  8  9  2  0
  9 10  1  0
 10 11  2  0
 11 12  1  0
 12 13  2  0
  8 13  1  0
M  END

$$$$
No_1320-/export/home/yangzhenyu/potential_scad_32_flow//YTHDC2/2024-12-06-03-22-00/
     RDKit          3D

 16 17  0  0  0  0  0  0  0  0999 V2000
    1.1787   -8.0297    3.5154 C   0  0  0  0  0  0  0  0  0  0  0  0
    1.1048   -9.2215    3.2892 C   0  0  0  0  0  0  0  0  0  0  0  0
    1.2339   -9.7611    2.0189 C   0  0  0  0  0  0  0  0  0  0  0  0
    1.3583   -9.0036    0.9764 C   0  0  0  0  0  0  0  0  0  0  0  0
    1.5996   -7.6362    1.1311 C   0  0  0  0  0  0  0  0  0  0  0  0
    1.4830   -7.0928    2.3626 C   0  0  0  0  0  0  0  0  0  0  0  0
    1.4898   -5.7274    2.6199 C   0  0  0  0  0  0  0  0  0  0  0  0
    1.1882  -11.3736    1.8424 C   0  0  0  0  0  0  0  0  0  0  0  0
    1.0670  -11.6643    0.5390 C   0  0  0  0  0  0  0  0  0  0  0  0
   -0.0229  -12.5280    0.3410 C   0  0  0  0  0  0  0  0  0  0  0  0
   -0.7068  -13.1031    1.1825 C   0  0  0  0  0  0  0  0  0  0  0  0
   -0.3358  -12.7530    2.6601 C   0  0  0  0  0  0  0  0  0  0  0  0
    0.6120  -11.8127    2.8814 C   0  0  0  0  0  0  0  0  0  0  0  0
    0.6499   -4.9956    2.7319 O   0  0  0  0  0  0  0  0  0  0  0  0
    1.7891  -12.7505    3.5231 C   0  0  0  0  0  0  0  0  0  0  0  0
   -1.6723  -14.1536    1.0372 C   0  0  0  0  0  0  0  0  0  0  0  0
  6  7  1  0
  3  8  1  0
  7 14  2  0
 13 15  1  0
 11 16  1  0
  1  2  2  0
  2  3  1  0
  3  4  2  0
  4  5  1  0
  5  6  2  0
  1  6  1  0
  8  9  2  0
  9 10  1  0
 10 11  2  0
 11 12  1  0
 12 13  2  0
  8 13  1  0
M  END

$$$$
No_1321-/export/home/yangzhenyu/potential_scad_32_flow//YTHDC2/2024-12-06-03-22-00/
     RDKit          3D

 19 20  0  0  0  0  0  0  0  0999 V2000
    1.1787   -8.0297    3.5154 C   0  0  0  0  0  0  0  0  0  0  0  0
    1.0491   -6.8434    2.9820 C   0  0  0  0  0  0  0  0  0  0  0  0
    0.9905   -9.0774    2.6527 C   0  0  0  0  0  0  0  0  0  0  0  0
    0.7897   -8.9519    1.3691 C   0  0  0  0  0  0  0  0  0  0  0  0
    0.7018   -7.7198    0.7892 C   0  0  0  0  0  0  0  0  0  0  0  0
    0.8918   -6.5957    1.6117 C   0  0  0  0  0  0  0  0  0  0  0  0
    1.0998  -10.4710    3.2437 C   0  0  0  0  0  0  0  0  0  0  0  0
    1.3102  -11.5554    2.5214 C   0  0  0  0  0  0  0  0  0  0  0  0
    1.4257  -12.8124    3.1919 C   0  0  0  0  0  0  0  0  0  0  0  0
    0.9222  -13.9339    2.5039 C   0  0  0  0  0  0  0  0  0  0  0  0
    1.2953  -15.2608    3.1588 C   0  0  0  0  0  0  0  0  0  0  0  0
    0.8729   -5.2633    1.2027 O   0  0  0  0  0  0  0  0  0  0  0  0
    0.9525  -16.4069    2.5672 C   0  0  0  0  0  0  0  0  0  0  0  0
    0.2110  -16.4687    1.4875 C   0  0  0  0  0  0  0  0  0  0  0  0
   -0.1161  -15.3724    0.8395 C   0  0  0  0  0  0  0  0  0  0  0  0
    0.1575  -14.1331    1.3065 C   0  0  0  0  0  0  0  0  0  0  0  0
   -0.2786  -13.0237    0.7197 C   0  0  0  0  0  0  0  0  0  0  0  0
   -1.2555  -12.4752    0.7912 C   0  0  0  0  0  0  0  0  0  0  0  0
   -1.8075  -11.3133   -0.0234 O   0  0  0  0  0  0  0  0  0  0  0  0
  1  2  1  0
  3  4  1  0
  2  6  1  0
  5  6  1  0
  3  7  1  0
  7  8  2  3
  8  9  1  0
  9 10  1  0
  6 12  2  0
 16 17  1  0
 17 18  2  3
 18 19  1  0
  1  3  1  0
  4  5  1  0
 10 11  2  0
 11 13  1  0
 13 14  2  0
 14 15  1  0
 15 16  2  0
 10 16  1  0
M  END

$$$$
No_1322-/export/home/yangzhenyu/potential_scad_32_flow//YTHDC2/2024-12-06-03-22-00/
     RDKit          3D

 18 19  0  0  1  0  0  0  0  0999 V2000
    1.1787   -8.0297    3.5154 C   0  0  0  0  0  0  0  0  0  0  0  0
    1.0491   -6.8434    2.9820 C   0  0  0  0  0  0  0  0  0  0  0  0
    0.9905   -9.0774    2.6527 C   0  0  0  0  0  0  0  0  0  0  0  0
    1.1655  -10.4663    3.1286 C   0  0  2  0  0  0  0  0  0  0  0  0
    1.7409  -10.6480    4.4599 C   0  0  0  0  0  0  0  0  0  0  0  0
    0.4783   -6.4688    1.7590 C   0  0  0  0  0  0  0  0  0  0  0  0
    0.2119   -7.5787    0.9640 C   0  0  0  0  0  0  0  0  0  0  0  0
    0.4248   -8.8744    1.3136 C   0  0  0  0  0  0  0  0  0  0  0  0
    1.0420  -11.5352    2.2989 C   0  0  0  0  0  0  0  0  0  0  0  0
    0.2719  -12.5305    2.5621 C   0  0  0  0  0  0  0  0  0  0  0  0
   -1.0302  -12.3630    2.6546 C   0  0  0  0  0  0  0  0  0  0  0  0
   -1.8654  -13.4695    2.7228 C   0  0  0  0  0  0  0  0  0  0  0  0
   -3.2410  -13.1886    2.8959 C   0  0  0  0  0  0  0  0  0  0  0  0
   -3.7264  -11.9222    3.2657 C   0  0  0  0  0  0  0  0  0  0  0  0
   -2.8371  -10.8564    3.4659 C   0  0  0  0  0  0  0  0  0  0  0  0
   -1.4546  -11.0301    3.1305 C   0  0  0  0  0  0  0  0  0  0  0  0
    0.2938   -5.0383    1.2279 O   0  0  0  0  0  0  0  0  0  0  0  0
    0.0419   -4.0967    1.9832 C   0  0  0  0  0  0  0  0  0  0  0  0
  3  4  1  0
  4  5  1  6
  4  9  1  0
  9 10  1  0
  6 17  1  0
 17 18  1  0
 10 11  1  0
 11 12  2  0
 12 13  1  0
 13 14  2  0
 14 15  1  0
 15 16  2  0
 11 16  1  0
  1  2  2  0
  2  6  1  0
  6  7  2  0
  7  8  1  0
  3  8  2  0
  1  3  1  0
M  END

$$$$
No_1323-/export/home/yangzhenyu/potential_scad_32_flow//YTHDC2/2024-12-06-03-22-00/
     RDKit          3D

 18 18  0  0  1  0  0  0  0  0999 V2000
    1.1787   -8.0297    3.5154 C   0  0  0  0  0  0  0  0  0  0  0  0
    1.0491   -6.8434    2.9820 C   0  0  0  0  0  0  0  0  0  0  0  0
    1.9985   -8.9840    2.8958 C   0  0  0  0  0  0  0  0  0  0  0  0
    1.9135  -10.3404    3.6266 C   0  0  2  0  0  0  0  0  0  0  0  0
    2.2847  -10.5440    4.7936 C   0  0  0  0  0  0  0  0  0  0  0  0
    0.3304   -6.7696    1.8077 C   0  0  2  0  0  0  0  0  0  0  0  0
    0.3816   -7.5583    0.9388 C   0  0  0  0  0  0  0  0  0  0  0  0
    0.4592   -5.2950    1.3477 C   0  0  0  0  0  0  0  0  0  0  0  0
    1.6480  -11.4171    2.7598 C   0  0  0  0  0  0  0  0  0  0  0  0
    1.7520  -11.2450    1.4113 O   0  0  0  0  0  0  0  0  0  0  0  0
    1.4532  -12.6297    3.2339 N   0  0  0  0  0  0  0  0  0  0  0  0
    1.2055  -13.8205    2.4889 C   0  0  0  0  0  0  0  0  0  0  0  0
   -0.0857  -13.9954    2.0434 C   0  0  0  0  0  0  0  0  0  0  0  0
   -0.3373  -15.3052    1.6032 C   0  0  0  0  0  0  0  0  0  0  0  0
    0.6657  -16.2685    1.4904 C   0  0  0  0  0  0  0  0  0  0  0  0
    1.9800  -15.9522    1.8988 C   0  0  0  0  0  0  0  0  0  0  0  0
    2.2587  -14.7419    2.5447 C   0  0  0  0  0  0  0  0  0  0  0  0
   -0.7717   -8.1752    0.4175 C   0  0  0  0  0  0  0  0  0  0  0  0
  1  2  1  0
  1  3  1  0
  3  4  1  0
  4  5  1  6
  2  6  1  0
  6  7  1  0
  6  8  1  6
  4  9  1  0
  9 10  2  0
  9 11  1  0
 11 12  1  0
  7 18  2  0
 12 13  2  0
 13 14  1  0
 14 15  2  0
 15 16  1  0
 16 17  2  0
 12 17  1  0
M  END

$$$$
No_1324-/export/home/yangzhenyu/potential_scad_32_flow//YTHDC2/2024-12-06-03-22-00/
     RDKit          3D

 18 19  0  0  0  0  0  0  0  0999 V2000
    1.1787   -8.0297    3.5154 C   0  0  0  0  0  0  0  0  0  0  0  0
    1.1048   -9.2215    3.2892 C   0  0  0  0  0  0  0  0  0  0  0  0
    1.2339   -9.7611    2.0189 C   0  0  0  0  0  0  0  0  0  0  0  0
    1.3583   -9.0036    0.9764 C   0  0  0  0  0  0  0  0  0  0  0  0
    1.5996   -7.6362    1.1311 C   0  0  0  0  0  0  0  0  0  0  0  0
    1.4830   -7.0928    2.3626 C   0  0  0  0  0  0  0  0  0  0  0  0
    1.5395   -5.7300    2.6182 C   0  0  0  0  0  0  0  0  0  0  0  0
    1.1775  -11.2233    1.8407 C   0  0  0  0  0  0  0  0  0  0  0  0
    0.5085  -11.9762    2.1989 C   0  0  0  0  0  0  0  0  0  0  0  0
    0.4247  -13.3704    2.0465 C   0  0  0  0  0  0  0  0  0  0  0  0
   -0.6059  -14.0773    1.8608 C   0  0  0  0  0  0  0  0  0  0  0  0
   -0.5437  -15.5485    1.8404 C   0  0  0  0  0  0  0  0  0  0  0  0
    0.7428  -16.1379    2.1583 C   0  0  0  0  0  0  0  0  0  0  0  0
    1.8608  -15.4332    2.4453 C   0  0  0  0  0  0  0  0  0  0  0  0
    1.7696  -14.0190    2.4364 C   0  0  0  0  0  0  0  0  0  0  0  0
    0.6230   -4.8889    2.7668 O   0  0  0  0  0  0  0  0  0  0  0  0
    0.8536  -17.5243    2.2321 O   0  0  0  0  0  0  0  0  0  0  0  0
    0.1710  -18.3181    1.9633 C   0  0  0  0  0  0  0  0  0  0  0  0
  6  7  1  0
  3  8  1  0
  8  9  2  3
  9 10  1  0
  7 16  2  0
 13 17  1  0
 17 18  1  0
  1  2  2  0
  2  3  1  0
  3  4  2  0
  4  5  1  0
  5  6  2  0
  1  6  1  0
 10 11  2  0
 11 12  1  0
 12 13  2  0
 13 14  1  0
 14 15  2  0
 10 15  1  0
M  END

$$$$
No_1325-/export/home/yangzhenyu/potential_scad_32_flow//YTHDC2/2024-12-06-03-22-00/
     RDKit          3D

 19 20  0  0  1  0  0  0  0  0999 V2000
    1.1787   -8.0297    3.5154 C   0  0  0  0  0  0  0  0  0  0  0  0
    1.1048   -9.2215    3.2892 C   0  0  0  0  0  0  0  0  0  0  0  0
    1.3627  -10.1721    4.3044 C   0  0  0  0  0  0  0  0  0  0  0  0
    1.7354  -11.4730    3.9024 C   0  0  0  0  0  0  0  0  0  0  0  0
    1.8080  -11.8127    2.7216 C   0  0  0  0  0  0  0  0  0  0  0  0
    1.5854  -11.0021    1.7249 C   0  0  0  0  0  0  0  0  0  0  0  0
    1.3573   -9.7389    1.9287 C   0  0  0  0  0  0  0  0  0  0  0  0
    1.1102   -8.8712    0.9017 C   0  0  0  0  0  0  0  0  0  0  0  0
    0.5299   -7.6926    1.0325 C   0  0  0  0  0  0  0  0  0  0  0  0
    0.7526   -7.0802    2.3301 C   0  0  0  0  0  0  0  0  0  0  0  0
    2.0515  -13.2522    2.4284 C   0  0  1  0  0  0  0  0  0  0  0  0
    2.4197  -13.7232    1.3168 C   0  0  0  0  0  0  0  0  0  0  0  0
    1.9442  -14.1755    3.4144 C   0  0  0  0  0  0  0  0  0  0  0  0
    0.5241   -5.6514    2.5344 C   0  0  0  0  0  0  0  0  0  0  0  0
   -0.6427   -5.1056    2.2480 C   0  0  0  0  0  0  0  0  0  0  0  0
   -1.7543   -5.6173    2.3387 C   0  0  0  0  0  0  0  0  0  0  0  0
    1.6872   -4.9866    3.0020 C   0  0  0  0  0  0  0  0  0  0  0  0
    1.2696  -15.3833    2.9764 C   0  0  0  0  0  0  0  0  0  0  0  0
    1.3990  -15.7703    1.8055 C   0  0  0  0  0  0  0  0  0  0  0  0
  5 11  1  0
 11 12  1  1
 11 13  1  0
 10 14  1  0
 14 15  1  0
 15 16  1  0
 14 17  1  0
 13 18  2  3
 18 19  1  0
  1  2  2  0
  7  8  2  0
  8  9  1  0
  9 10  2  0
  1 10  1  0
  2  3  1  0
  3  4  2  0
  4  5  1  0
  5  6  2  0
  6  7  1  0
  2  7  1  0
M  END

$$$$
No_1326-/export/home/yangzhenyu/potential_scad_32_flow//YTHDC2/2024-12-06-03-22-00/
     RDKit          3D

 19 21  0  0  0  0  0  0  0  0999 V2000
    1.1787   -8.0297    3.5154 C   0  0  0  0  0  0  0  0  0  0  0  0
    1.1048   -9.2215    3.2892 C   0  0  0  0  0  0  0  0  0  0  0  0
    1.3627  -10.1721    4.3044 C   0  0  0  0  0  0  0  0  0  0  0  0
    1.0682  -11.5187    4.0618 C   0  0  0  0  0  0  0  0  0  0  0  0
    0.6332  -11.9655    2.9682 C   0  0  0  0  0  0  0  0  0  0  0  0
    0.4776  -11.1308    1.9203 C   0  0  0  0  0  0  0  0  0  0  0  0
    0.7470   -9.8274    2.0368 C   0  0  0  0  0  0  0  0  0  0  0  0
    1.0387   -7.0301    2.5175 C   0  0  0  0  0  0  0  0  0  0  0  0
    0.9130   -7.5288    1.2013 C   0  0  0  0  0  0  0  0  0  0  0  0
    0.7893   -8.7979    0.9542 C   0  0  0  0  0  0  0  0  0  0  0  0
    0.3998  -13.3695    2.7114 N   0  0  0  0  0  0  0  0  0  0  0  0
    0.9229  -14.0714    1.9191 C   0  0  0  0  0  0  0  0  0  0  0  0
    0.6440  -15.4760    1.9163 C   0  0  0  0  0  0  0  0  0  0  0  0
   -0.5653  -15.8740    1.9861 C   0  0  0  0  0  0  0  0  0  0  0  0
    0.4432   -9.3199   -0.5107 Cl  0  0  0  0  0  0  0  0  0  0  0  0
   -0.8919  -17.0442    2.6339 C   0  0  0  0  0  0  0  0  0  0  0  0
    0.1789  -17.9728    2.9801 C   0  0  0  0  0  0  0  0  0  0  0  0
    1.5226  -17.6194    2.8159 C   0  0  0  0  0  0  0  0  0  0  0  0
    1.8194  -16.3171    2.2153 C   0  0  0  0  0  0  0  0  0  0  0  0
  5 11  1  0
 11 12  1  0
 12 13  1  0
 10 15  1  0
  2  3  1  0
  3  4  2  0
  4  5  1  0
  5  6  2  0
  6  7  1  0
  1  2  2  0
  2  7  1  0
  7 10  2  0
  9 10  1  0
  8  9  2  0
  1  8  1  0
 13 14  2  0
 14 16  1  0
 16 17  2  0
 17 18  1  0
 18 19  2  0
 13 19  1  0
M  END

$$$$
No_1327-/export/home/yangzhenyu/potential_scad_32_flow//YTHDC2/2024-12-06-03-22-00/
     RDKit          3D

 18 20  0  0  0  0  0  0  0  0999 V2000
    1.1787   -8.0297    3.5154 C   0  0  0  0  0  0  0  0  0  0  0  0
    1.0491   -6.8434    2.9820 N   0  0  0  0  0  0  0  0  0  0  0  0
    0.1476   -8.8697    3.1493 C   0  0  0  0  0  0  0  0  0  0  0  0
   -0.6149   -8.1131    2.3090 C   0  0  0  0  0  0  0  0  0  0  0  0
    0.0565   -6.8431    2.2251 C   0  0  0  0  0  0  0  0  0  0  0  0
    0.0315  -10.2178    3.4685 C   0  0  0  0  0  0  0  0  0  0  0  0
   -1.3172  -10.6102    3.6701 C   0  0  0  0  0  0  0  0  0  0  0  0
   -2.2837   -9.8962    2.8847 C   0  0  0  0  0  0  0  0  0  0  0  0
   -1.9300   -8.5818    2.3408 C   0  0  0  0  0  0  0  0  0  0  0  0
   -0.3810   -5.7433    1.4763 C   0  0  0  0  0  0  0  0  0  0  0  0
   -1.0733   -5.9641    0.3277 C   0  0  0  0  0  0  0  0  0  0  0  0
   -0.9651   -6.9488   -0.5150 C   0  0  0  0  0  0  0  0  0  0  0  0
   -1.6588   -7.0415   -1.6573 C   0  0  0  0  0  0  0  0  0  0  0  0
   -2.4793   -6.1648   -2.1278 C   0  0  0  0  0  0  0  0  0  0  0  0
   -2.6169   -5.0007   -1.3997 C   0  0  0  0  0  0  0  0  0  0  0  0
   -1.9562   -4.8438   -0.1459 C   0  0  0  0  0  0  0  0  0  0  0  0
   -1.5135   -8.2982   -2.4456 C   0  0  0  0  0  0  0  0  0  0  0  0
   -0.8228   -9.2227   -2.0540 C   0  0  0  0  0  0  0  0  0  0  0  0
  1  2  1  0
  2  5  2  0
  4  5  1  0
  5 10  1  0
 10 11  1  0
 13 17  1  0
 17 18  2  0
  1  3  1  0
 11 12  2  0
 12 13  1  0
 13 14  2  0
 14 15  1  0
 15 16  2  0
 11 16  1  0
  3  4  2  0
  4  9  1  0
  8  9  2  0
  7  8  1  0
  6  7  2  0
  3  6  1  0
M  END

$$$$
No_1328-/export/home/yangzhenyu/potential_scad_32_flow//YTHDC2/2024-12-06-03-22-00/
     RDKit          3D

 19 20  0  0  0  0  0  0  0  0999 V2000
    1.1787   -8.0297    3.5154 O   0  0  0  0  0  0  0  0  0  0  0  0
    0.9969   -8.9689    3.0048 C   0  0  0  0  0  0  0  0  0  0  0  0
    1.3055  -10.1056    3.6616 C   0  0  0  0  0  0  0  0  0  0  0  0
    1.1249  -11.3503    3.0941 C   0  0  0  0  0  0  0  0  0  0  0  0
    1.4907  -12.5554    3.7266 C   0  0  0  0  0  0  0  0  0  0  0  0
    0.6645   -9.1181    1.7007 C   0  0  0  0  0  0  0  0  0  0  0  0
    0.4019   -7.9269    0.9799 C   0  0  0  0  0  0  0  0  0  0  0  0
    1.0428   -6.8502    1.2363 C   0  0  0  0  0  0  0  0  0  0  0  0
    1.1900  -13.8788    3.1441 C   0  0  0  0  0  0  0  0  0  0  0  0
    1.0408  -13.8777    1.6976 C   0  0  0  0  0  0  0  0  0  0  0  0
    0.7156  -12.6051    1.0464 C   0  0  0  0  0  0  0  0  0  0  0  0
    0.8617  -11.4804    1.7197 C   0  0  0  0  0  0  0  0  0  0  0  0
    0.6618  -10.3270    0.9201 N   0  0  0  0  0  0  0  0  0  0  0  0
    0.4338   -5.6177    1.4438 C   0  0  0  0  0  0  0  0  0  0  0  0
   -0.6991   -5.2925    1.0198 C   0  0  0  0  0  0  0  0  0  0  0  0
    1.1831   -4.5941    2.2281 C   0  0  0  0  0  0  0  0  0  0  0  0
   -1.3482   -3.9700    1.3265 C   0  0  0  0  0  0  0  0  0  0  0  0
   -0.5163   -3.0467    2.0719 C   0  0  0  0  0  0  0  0  0  0  0  0
   -1.0806   -1.8043    2.1862 C   0  0  0  0  0  0  0  0  0  0  0  0
  1  2  1  0
  6  7  1  0
  7  8  1  0
  8 14  1  0
 14 15  1  0
 14 16  1  0
 15 17  2  3
 17 18  1  0
 18 19  1  0
  4  5  2  0
  5  9  1  0
  9 10  2  0
 10 11  1  0
 11 12  2  0
  2  3  2  0
  3  4  1  0
  4 12  1  0
 12 13  1  0
  6 13  2  0
  2  6  1  0
M  END

$$$$
No_1329-/export/home/yangzhenyu/potential_scad_32_flow//YTHDC2/2024-12-06-03-22-00/
     RDKit          3D

 18 19  0  0  1  0  0  0  0  0999 V2000
    1.1787   -8.0297    3.5154 C   0  0  0  0  0  0  0  0  0  0  0  0
    1.1048   -9.2215    3.2892 C   0  0  0  0  0  0  0  0  0  0  0  0
    1.2339   -9.7611    2.0189 C   0  0  0  0  0  0  0  0  0  0  0  0
    1.3583   -9.0036    0.9764 C   0  0  0  0  0  0  0  0  0  0  0  0
    1.5996   -7.6362    1.1311 C   0  0  0  0  0  0  0  0  0  0  0  0
    1.4830   -7.0928    2.3626 C   0  0  0  0  0  0  0  0  0  0  0  0
    1.1008  -11.2372    1.8542 C   0  0  2  0  0  0  0  0  0  0  0  0
    0.4812  -11.6084    0.6459 N   0  0  0  0  0  0  0  0  0  0  0  0
    0.7847  -12.0208    2.8442 C   0  0  0  0  0  0  0  0  0  0  0  0
    1.3277  -13.1567    2.9556 C   0  0  0  0  0  0  0  0  0  0  0  0
    1.1149  -14.0783    1.8615 C   0  0  1  0  0  0  0  0  0  0  0  0
    1.2346  -13.0423    0.5126 C   0  0  0  0  0  0  0  0  0  0  0  0
    1.5581   -5.6516    2.6633 N   0  0  0  0  0  0  0  0  0  0  0  0
    1.9217  -15.1596    1.7112 C   0  0  0  0  0  0  0  0  0  0  0  0
    1.4642  -16.3000    2.0417 O   0  0  0  0  0  0  0  0  0  0  0  0
    3.1900  -15.1838    1.6099 O   0  0  0  0  0  0  0  0  0  0  0  0
    1.0373   -4.7041    1.9154 S   0  0  0  0  0  0  0  0  0  0  0  0
    0.3701   -5.0906    0.8049 O   0  0  0  0  0  0  0  0  0  0  0  0
  7  3  1  1
  7  8  1  0
  7  9  1  0
  9 10  1  0
 10 11  1  0
  8 12  1  0
 11 12  1  0
  6 13  1  0
 11 14  1  6
 14 15  1  0
 14 16  2  0
 13 17  1  0
 17 18  2  0
  1  2  2  0
  2  3  1  0
  3  4  2  0
  4  5  1  0
  5  6  2  0
  1  6  1  0
M  END

$$$$
No_1330-/export/home/yangzhenyu/potential_scad_32_flow//YTHDC2/2024-12-06-03-22-00/
     RDKit          3D

 18 18  0  0  1  0  0  0  0  0999 V2000
    1.1787   -8.0297    3.5154 O   0  0  0  0  0  0  0  0  0  0  0  0
    0.9969   -8.9689    3.0048 C   0  0  0  0  0  0  0  0  0  0  0  0
    0.9976   -8.9567    1.6341 C   0  0  0  0  0  0  0  0  0  0  0  0
    1.6062   -9.9071    0.9292 C   0  0  0  0  0  0  0  0  0  0  0  0
    2.1191  -10.9757    1.6503 C   0  0  0  0  0  0  0  0  0  0  0  0
    2.1177  -10.9891    3.0403 C   0  0  0  0  0  0  0  0  0  0  0  0
    1.5441   -9.8905    3.6897 C   0  0  0  0  0  0  0  0  0  0  0  0
    0.5010   -7.8164    1.0436 C   0  0  1  0  0  0  0  0  0  0  0  0
    1.0624   -6.6356    1.1779 C   0  0  0  0  0  0  0  0  0  0  0  0
    0.3391   -5.4799    1.3521 C   0  0  0  0  0  0  0  0  0  0  0  0
    1.0285   -4.2218    1.7691 C   0  0  0  0  0  0  0  0  0  0  0  0
    1.7691  -10.1030    4.9836 Cl  0  0  0  0  0  0  0  0  0  0  0  0
   -0.4699   -7.8528    0.0627 C   0  0  0  0  0  0  0  0  0  0  0  0
   -0.7293   -7.2005   -0.9164 O   0  0  0  0  0  0  0  0  0  0  0  0
   -1.3974   -9.0096    0.1580 O   0  0  0  0  0  0  0  0  0  0  0  0
    1.7524   -4.3093    2.9681 C   0  0  0  0  0  0  0  0  0  0  0  0
    1.7448   -3.4767    0.7397 C   0  0  0  0  0  0  0  0  0  0  0  0
    2.6014  -12.2959    3.5622 P   0  0  0  0  0  0  0  0  0  0  0  0
  1  2  1  0
  3  8  1  0
  8  9  1  0
  9 10  2  3
 10 11  1  0
  7 12  1  0
  8 13  1  6
 13 14  2  0
 13 15  1  0
 11 16  1  0
 11 17  1  0
  6 18  1  0
  2  3  2  0
  3  4  1  0
  4  5  2  0
  5  6  1  0
  6  7  2  0
  2  7  1  0
M  END

$$$$
No_1331-/export/home/yangzhenyu/potential_scad_32_flow//YTHDC2/2024-12-06-03-22-00/
     RDKit          3D

 18 18  0  0  1  0  0  0  0  0999 V2000
    1.1787   -8.0297    3.5154 C   0  0  0  0  0  0  0  0  0  0  0  0
    1.0491   -6.8434    2.9820 C   0  0  0  0  0  0  0  0  0  0  0  0
    0.0950   -8.8404    3.2292 C   0  0  0  0  0  0  0  0  0  0  0  0
   -0.9173   -8.4596    2.5152 C   0  0  0  0  0  0  0  0  0  0  0  0
   -1.0331   -7.2162    2.0653 C   0  0  0  0  0  0  0  0  0  0  0  0
   -0.0105   -6.3168    2.3081 C   0  0  0  0  0  0  0  0  0  0  0  0
    0.1935  -10.3737    3.7416 C   0  0  0  0  0  0  0  0  0  0  0  0
    0.3534  -11.4163    2.8027 C   0  0  1  0  0  0  0  0  0  0  0  0
   -0.2231  -11.5566    1.8523 Cl  0  0  0  0  0  0  0  0  0  0  0  0
    2.0504  -11.3918    2.6664 C   0  0  0  0  0  0  0  0  0  0  0  0
    0.0050   -4.9676    1.8611 C   0  0  0  0  0  0  0  0  0  0  0  0
   -0.7477   -4.1412    2.3011 N   0  0  0  0  0  0  0  0  0  0  0  0
    0.4598  -12.6283    3.7315 C   0  0  0  0  0  0  0  0  0  0  0  0
    2.4078  -10.7486    1.5951 C   0  0  0  0  0  0  0  0  0  0  0  0
    2.9933   -9.3271    1.7576 O   0  0  0  0  0  0  0  0  0  0  0  0
    2.0788  -11.0442    0.4143 O   0  0  0  0  0  0  0  0  0  0  0  0
   -0.3612   -3.0325    2.9739 C   0  0  0  0  0  0  0  0  0  0  0  0
    0.0496  -13.8277    3.0422 N   0  0  0  0  0  0  0  0  0  0  0  0
  3  7  1  0
  7  8  1  0
  8  9  1  6
  8 10  1  0
  6 11  1  0
 11 12  1  0
  8 13  1  0
 10 14  1  0
 14 15  1  0
 14 16  2  0
 12 17  1  0
 13 18  1  0
  1  2  2  0
  2  6  1  0
  5  6  2  0
  4  5  1  0
  3  4  2  0
  1  3  1  0
M  END

$$$$
No_1332-/export/home/yangzhenyu/potential_scad_32_flow//YTHDC2/2024-12-06-03-22-00/
     RDKit          3D

 18 19  0  0  0  0  0  0  0  0999 V2000
    1.1787   -8.0297    3.5154 C   0  0  0  0  0  0  0  0  0  0  0  0
    1.1048   -9.2215    3.2892 C   0  0  0  0  0  0  0  0  0  0  0  0
    1.2339   -9.7611    2.0189 C   0  0  0  0  0  0  0  0  0  0  0  0
    1.3583   -9.0036    0.9764 C   0  0  0  0  0  0  0  0  0  0  0  0
    1.5996   -7.6362    1.1311 C   0  0  0  0  0  0  0  0  0  0  0  0
    1.4830   -7.0928    2.3626 C   0  0  0  0  0  0  0  0  0  0  0  0
    1.1171  -11.3311    1.8661 C   0  0  0  0  0  0  0  0  0  0  0  0
    0.5022  -11.6388    0.6531 C   0  0  0  0  0  0  0  0  0  0  0  0
   -0.5299  -12.4202    0.9357 C   0  0  0  0  0  0  0  0  0  0  0  0
   -0.5271  -13.2041    2.0625 C   0  0  0  0  0  0  0  0  0  0  0  0
    0.3551  -12.8810    3.1724 C   0  0  0  0  0  0  0  0  0  0  0  0
    1.2513  -11.8887    2.9822 C   0  0  0  0  0  0  0  0  0  0  0  0
    1.5593   -5.6461    2.6507 Cl  0  0  0  0  0  0  0  0  0  0  0  0
   -1.2183  -14.4486    2.1830 C   0  0  0  0  0  0  0  0  0  0  0  0
   -0.7323  -15.5808    2.7017 C   0  0  0  0  0  0  0  0  0  0  0  0
   -1.5363  -16.6589    2.9799 C   0  0  0  0  0  0  0  0  0  0  0  0
   -0.8934  -17.7275    3.6766 C   0  0  0  0  0  0  0  0  0  0  0  0
    0.4798  -17.7257    4.0679 C   0  0  0  0  0  0  0  0  0  0  0  0
  3  7  1  0
  6 13  1  0
 10 14  1  0
 14 15  2  3
 15 16  1  0
 16 17  2  3
 17 18  1  0
  1  2  2  0
  2  3  1  0
  3  4  2  0
  4  5  1  0
  5  6  2  0
  1  6  1  0
  7  8  2  0
  8  9  1  0
  9 10  2  0
 10 11  1  0
 11 12  2  0
  7 12  1  0
M  END

$$$$
No_1333-/export/home/yangzhenyu/potential_scad_32_flow//YTHDC2/2024-12-06-03-22-00/
     RDKit          3D

 19 21  0  0  0  0  0  0  0  0999 V2000
    1.1787   -8.0297    3.5154 C   0  0  0  0  0  0  0  0  0  0  0  0
    1.0491   -6.8434    2.9820 C   0  0  0  0  0  0  0  0  0  0  0  0
    1.0690   -9.1150    2.7206 C   0  0  0  0  0  0  0  0  0  0  0  0
    0.9689   -6.6391    1.6260 C   0  0  0  0  0  0  0  0  0  0  0  0
    1.2594  -10.4791    3.3003 C   0  0  0  0  0  0  0  0  0  0  0  0
    0.7929   -7.6539    0.8429 C   0  0  0  0  0  0  0  0  0  0  0  0
    0.9043   -8.9494    1.3181 C   0  0  0  0  0  0  0  0  0  0  0  0
    2.2263  -10.7165    3.9857 N   0  0  0  0  0  0  0  0  0  0  0  0
    0.6211  -11.5365    2.7849 N   0  0  0  0  0  0  0  0  0  0  0  0
    0.8290  -10.0279    0.5166 C   0  0  0  0  0  0  0  0  0  0  0  0
    0.5057  -11.3525    1.3251 C   0  0  0  0  0  0  0  0  0  0  0  0
    0.0909  -12.4820    0.6428 C   0  0  0  0  0  0  0  0  0  0  0  0
   -0.7452  -12.5180   -0.3890 C   0  0  0  0  0  0  0  0  0  0  0  0
   -1.6793  -13.0621   -0.3033 C   0  0  0  0  0  0  0  0  0  0  0  0
   -1.7397  -14.3387    0.3089 C   0  0  0  0  0  0  0  0  0  0  0  0
   -0.7781  -14.5254    1.3959 C   0  0  0  0  0  0  0  0  0  0  0  0
    0.2094  -13.6215    1.5198 C   0  0  0  0  0  0  0  0  0  0  0  0
    0.5929  -10.0322   -0.6877 O   0  0  0  0  0  0  0  0  0  0  0  0
    2.8274   -9.9637    4.2890 H   0  0  0  0  0  0  0  0  0  0  0  0
  3  5  1  0
  5  8  2  0
  5  9  1  0
  7 10  1  0
  9 11  1  0
 10 11  1  0
 11 12  1  0
 10 18  2  0
  1  2  2  0
  2  4  1  0
  4  6  2  0
  6  7  1  0
  3  7  2  0
  1  3  1  0
 12 13  2  0
 13 14  1  0
 14 15  2  0
 15 16  1  0
 16 17  2  0
 12 17  1  0
  8 19  1  0
M  END

$$$$
No_1334-/export/home/yangzhenyu/potential_scad_32_flow//YTHDC2/2024-12-06-03-22-00/
     RDKit          3D

 17 17  0  0  1  0  0  0  0  0999 V2000
    1.1787   -8.0297    3.5154 C   0  0  0  0  0  0  0  0  0  0  0  0
    1.0491   -6.8434    2.9820 C   0  0  0  0  0  0  0  0  0  0  0  0
    0.9905   -9.0774    2.6527 C   0  0  0  0  0  0  0  0  0  0  0  0
    0.7897   -8.9519    1.3691 C   0  0  0  0  0  0  0  0  0  0  0  0
    0.7018   -7.7198    0.7892 C   0  0  0  0  0  0  0  0  0  0  0  0
    0.8918   -6.5957    1.6117 C   0  0  0  0  0  0  0  0  0  0  0  0
    1.0998  -10.4710    3.2437 C   0  0  0  0  0  0  0  0  0  0  0  0
    1.3102  -11.5554    2.5214 C   0  0  0  0  0  0  0  0  0  0  0  0
    1.4257  -12.8124    3.1919 C   0  0  0  0  0  0  0  0  0  0  0  0
    1.4301  -14.0627    2.4374 C   0  0  2  0  0  0  0  0  0  0  0  0
    0.8588   -5.2558    1.2463 C   0  0  0  0  0  0  0  0  0  0  0  0
    2.4123  -14.2023    1.4711 C   0  0  0  0  0  0  0  0  0  0  0  0
    0.0990  -14.4671    1.9204 C   0  0  0  0  0  0  0  0  0  0  0  0
   -0.3392  -15.4543    2.4756 C   0  0  0  0  0  0  0  0  0  0  0  0
   -1.6540  -15.7295    2.4270 C   0  0  0  0  0  0  0  0  0  0  0  0
   -2.4291  -14.9876    1.6737 C   0  0  0  0  0  0  0  0  0  0  0  0
   -1.9203  -13.9202    0.9891 C   0  0  0  0  0  0  0  0  0  0  0  0
  3  7  1  0
  7  8  2  3
  8  9  1  0
  9 10  1  0
  6 11  1  0
 10 12  1  6
 10 13  1  0
 13 14  1  0
 14 15  2  3
 15 16  1  0
 16 17  2  0
  1  2  2  0
  2  6  1  0
  5  6  2  0
  4  5  1  0
  3  4  2  0
  1  3  1  0
M  END

$$$$
No_1335-/export/home/yangzhenyu/potential_scad_32_flow//YTHDC2/2024-12-06-03-22-00/
     RDKit          3D

 19 20  0  0  0  0  0  0  0  0999 V2000
    1.1787   -8.0297    3.5154 C   0  0  0  0  0  0  0  0  0  0  0  0
    1.0491   -6.8434    2.9820 C   0  0  0  0  0  0  0  0  0  0  0  0
    0.9905   -9.0774    2.6527 C   0  0  0  0  0  0  0  0  0  0  0  0
    0.7897   -8.9519    1.3691 C   0  0  0  0  0  0  0  0  0  0  0  0
    0.7018   -7.7198    0.7892 C   0  0  0  0  0  0  0  0  0  0  0  0
    0.8918   -6.5957    1.6117 C   0  0  0  0  0  0  0  0  0  0  0  0
    1.0774  -10.6059    3.3145 C   0  0  0  0  0  0  0  0  0  0  0  0
    2.1444  -11.0408    3.6446 C   0  0  0  0  0  0  0  0  0  0  0  0
   -0.0506  -11.2314    3.3994 C   0  0  0  0  0  0  0  0  0  0  0  0
   -0.1534  -12.4640    3.1550 C   0  0  0  0  0  0  0  0  0  0  0  0
    2.2261  -12.4654    3.8102 C   0  0  0  0  0  0  0  0  0  0  0  0
    1.1433  -13.2141    3.5570 C   0  0  0  0  0  0  0  0  0  0  0  0
    1.2063  -14.5816    3.5996 C   0  0  0  0  0  0  0  0  0  0  0  0
    0.0155  -15.3062    3.3820 O   0  0  0  0  0  0  0  0  0  0  0  0
    2.1943  -15.2695    3.6727 O   0  0  0  0  0  0  0  0  0  0  0  0
    0.7942   -5.2989    1.0522 Cl  0  0  0  0  0  0  0  0  0  0  0  0
    0.6356  -10.0696    0.4246 Cl  0  0  0  0  0  0  0  0  0  0  0  0
    2.1846  -16.6619    3.1536 C   0  0  0  0  0  0  0  0  0  0  0  0
    1.7126  -17.5273    3.6635 C   0  0  0  0  0  0  0  0  0  0  0  0
  3  7  1  0
 12 13  1  0
 13 14  2  0
 13 15  1  0
  6 16  1  0
  4 17  1  0
 15 18  1  0
 18 19  2  0
  1  2  2  0
  2  6  1  0
  5  6  2  0
  4  5  1  0
  3  4  2  0
  1  3  1  0
  7  8  2  0
  8 11  1  0
 11 12  2  0
 10 12  1  0
  9 10  2  0
  7  9  1  0
M  END

$$$$
No_1336-/export/home/yangzhenyu/potential_scad_32_flow//YTHDC2/2024-12-06-03-22-00/
     RDKit          3D

 20 22  0  0  0  0  0  0  0  0999 V2000
    1.1787   -8.0297    3.5154 C   0  0  0  0  0  0  0  0  0  0  0  0
    1.0491   -6.8434    2.9820 C   0  0  0  0  0  0  0  0  0  0  0  0
    0.0950   -8.8404    3.2292 C   0  0  0  0  0  0  0  0  0  0  0  0
   -0.9173   -8.4596    2.5152 C   0  0  0  0  0  0  0  0  0  0  0  0
   -1.0331   -7.2162    2.0653 C   0  0  0  0  0  0  0  0  0  0  0  0
   -0.0105   -6.3168    2.3081 C   0  0  0  0  0  0  0  0  0  0  0  0
    0.1465  -10.2446    3.6981 C   0  0  0  0  0  0  0  0  0  0  0  0
    1.2433  -10.8239    4.0166 C   0  0  0  0  0  0  0  0  0  0  0  0
    1.1033  -12.2936    4.0346 C   0  0  0  0  0  0  0  0  0  0  0  0
    0.0220  -12.9035    3.7006 C   0  0  0  0  0  0  0  0  0  0  0  0
   -1.0373  -12.2681    3.2608 C   0  0  0  0  0  0  0  0  0  0  0  0
   -1.0058  -10.9076    3.2655 C   0  0  0  0  0  0  0  0  0  0  0  0
   -0.1246   -5.0088    1.8408 C   0  0  0  0  0  0  0  0  0  0  0  0
   -0.5976   -4.7075    0.7366 C   0  0  0  0  0  0  0  0  0  0  0  0
   -1.1953   -5.2258    0.0808 C   0  0  0  0  0  0  0  0  0  0  0  0
   -0.4497   -3.1949    0.3448 C   0  0  0  0  0  0  0  0  0  0  0  0
   -1.0715   -2.6151   -0.7811 C   0  0  0  0  0  0  0  0  0  0  0  0
   -1.7547   -3.5256   -1.5297 C   0  0  0  0  0  0  0  0  0  0  0  0
   -1.8906   -4.7793   -1.2191 C   0  0  0  0  0  0  0  0  0  0  0  0
   -2.3549   -2.9513   -2.6942 Cl  0  0  0  0  0  0  0  0  0  0  0  0
  3  7  1  0
  6 13  1  0
 13 14  1  0
 18 20  1  0
  1  2  2  0
  2  6  1  0
  5  6  2  0
  4  5  1  0
  3  4  2  0
  1  3  1  0
  7  8  2  0
  8  9  1  0
  9 10  2  0
 10 11  1  0
 11 12  2  0
  7 12  1  0
 14 15  2  0
 15 19  1  0
 18 19  2  0
 17 18  1  0
 16 17  2  0
 14 16  1  0
M  END

$$$$
No_1337-/export/home/yangzhenyu/potential_scad_32_flow//YTHDC2/2024-12-06-03-22-00/
     RDKit          3D

 18 18  0  0  0  0  0  0  0  0999 V2000
    1.1787   -8.0297    3.5154 C   0  0  0  0  0  0  0  0  0  0  0  0
    1.1048   -9.2215    3.2892 C   0  0  0  0  0  0  0  0  0  0  0  0
    1.2339   -9.7611    2.0189 C   0  0  0  0  0  0  0  0  0  0  0  0
    1.3583   -9.0036    0.9764 C   0  0  0  0  0  0  0  0  0  0  0  0
    1.5996   -7.6362    1.1311 C   0  0  0  0  0  0  0  0  0  0  0  0
    1.4830   -7.0928    2.3626 C   0  0  0  0  0  0  0  0  0  0  0  0
    1.5395   -5.7300    2.6182 C   0  0  0  0  0  0  0  0  0  0  0  0
    1.1775  -11.2233    1.8407 C   0  0  0  0  0  0  0  0  0  0  0  0
    1.9057  -12.1147    2.3397 C   0  0  0  0  0  0  0  0  0  0  0  0
    1.2923  -13.3224    2.7485 C   0  0  0  0  0  0  0  0  0  0  0  0
    1.7772  -14.5584    2.3045 C   0  0  0  0  0  0  0  0  0  0  0  0
    1.2257  -15.7623    2.8117 O   0  0  0  0  0  0  0  0  0  0  0  0
    2.3960  -14.7197    1.3108 O   0  0  0  0  0  0  0  0  0  0  0  0
    0.6192   -4.8950    2.7758 O   0  0  0  0  0  0  0  0  0  0  0  0
    1.5335   -9.4899   -0.3484 C   0  0  0  0  0  0  0  0  0  0  0  0
    0.6397  -10.3359   -0.6597 O   0  0  0  0  0  0  0  0  0  0  0  0
    2.5233   -9.2205   -1.1180 O   0  0  0  0  0  0  0  0  0  0  0  0
    2.6782   -5.1194    2.8361 O   0  0  0  0  0  0  0  0  0  0  0  0
  6  7  1  0
  3  8  1  0
  8  9  1  0
  9 10  1  0
 10 11  1  0
 11 12  1  0
 11 13  2  0
  7 14  2  0
  4 15  1  0
 15 16  2  0
 15 17  1  0
  7 18  1  0
  1  2  2  0
  2  3  1  0
  3  4  2  0
  4  5  1  0
  5  6  2  0
  1  6  1  0
M  END

$$$$
No_1338-/export/home/yangzhenyu/potential_scad_32_flow//YTHDC2/2024-12-06-03-22-00/
     RDKit          3D

 21 22  0  0  1  0  0  0  0  0999 V2000
    1.1787   -8.0297    3.5154 O   0  0  0  0  0  0  0  0  0  0  0  0
    0.9969   -8.9689    3.0048 C   0  0  1  0  0  0  0  0  0  0  0  0
    0.9976   -8.9567    1.6341 C   0  0  0  0  0  0  0  0  0  0  0  0
    0.7663   -7.7728    1.0082 C   0  0  1  0  0  0  0  0  0  0  0  0
    1.1468   -6.5619    1.6541 C   0  0  0  0  0  0  0  0  0  0  0  0
    1.3592   -6.6155    3.0007 C   0  0  0  0  0  0  0  0  0  0  0  0
    0.9781  -10.1276    3.6866 C   0  0  0  0  0  0  0  0  0  0  0  0
    1.9856  -10.9664    3.7361 C   0  0  0  0  0  0  0  0  0  0  0  0
    0.4808   -7.7281   -0.2477 C   0  0  0  0  0  0  0  0  0  0  0  0
   -0.7872   -7.3720   -0.6599 O   0  0  0  0  0  0  0  0  0  0  0  0
    1.2479   -7.7902   -1.2202 O   0  0  0  0  0  0  0  0  0  0  0  0
    1.8232  -12.2942    3.6220 C   0  0  0  0  0  0  0  0  0  0  0  0
    0.5305  -12.8084    3.7335 C   0  0  0  0  0  0  0  0  0  0  0  0
   -0.5278  -12.0017    3.5816 C   0  0  0  0  0  0  0  0  0  0  0  0
   -0.3513  -10.6370    3.6498 C   0  0  0  0  0  0  0  0  0  0  0  0
    0.5100  -14.1868    3.6293 O   0  0  0  0  0  0  0  0  0  0  0  0
    1.5914   -5.5835    3.7358 O   0  0  0  0  0  0  0  0  0  0  0  0
    0.7171  -14.9654    2.6324 C   0  0  0  0  0  0  0  0  0  0  0  0
    0.7462  -14.4536    1.4543 C   0  0  0  0  0  0  0  0  0  0  0  0
   -0.2090  -14.1615    0.7263 C   0  0  0  0  0  0  0  0  0  0  0  0
    0.0515  -13.5219   -0.5502 C   0  0  0  0  0  0  0  0  0  0  0  0
  1  2  1  0
  2  3  1  0
  3  4  1  0
  4  5  1  0
  1  6  1  0
  5  6  1  0
  2  7  1  6
  4  9  1  6
  9 10  1  0
  9 11  2  0
 13 16  1  0
  6 17  2  0
 16 18  1  0
 18 19  1  0
 19 20  2  3
 20 21  1  0
  7  8  2  0
  8 12  1  0
 12 13  2  0
 13 14  1  0
 14 15  2  0
  7 15  1  0
M  END

$$$$
No_1339-/export/home/yangzhenyu/potential_scad_32_flow//YTHDC2/2024-12-06-03-22-00/
     RDKit          3D

 19 19  0  0  1  0  0  0  0  0999 V2000
    1.1787   -8.0297    3.5154 N   0  0  0  0  0  0  0  0  0  0  0  0
    0.8669   -7.0905    2.8589 C   0  0  0  0  0  0  0  0  0  0  0  0
    1.0447   -7.3244    1.4123 C   0  0  0  0  0  0  0  0  0  0  0  0
    1.3746   -8.4389    1.0864 C   0  0  2  0  0  0  0  0  0  0  0  0
    1.6686   -9.1952    2.5608 C   0  0  0  0  0  0  0  0  0  0  0  0
    1.6471   -9.1228   -0.0034 C   0  0  0  0  0  0  0  0  0  0  0  0
    1.9678  -10.2893   -0.0536 O   0  0  0  0  0  0  0  0  0  0  0  0
    1.3642   -8.5662   -1.1139 N   0  0  0  0  0  0  0  0  0  0  0  0
    1.9670  -10.5120    2.8881 C   0  0  0  0  0  0  0  0  0  0  0  0
    1.0772  -11.1619    3.7376 C   0  0  0  0  0  0  0  0  0  0  0  0
    0.1514  -11.9555    2.9499 O   0  0  0  0  0  0  0  0  0  0  0  0
    1.1258  -11.3342    4.9246 O   0  0  0  0  0  0  0  0  0  0  0  0
    0.7213   -5.7490    3.3836 C   0  0  0  0  0  0  0  0  0  0  0  0
    0.7745   -4.5210    2.5818 C   0  0  0  0  0  0  0  0  0  0  0  0
    0.4458   -3.2947    3.2071 C   0  0  0  0  0  0  0  0  0  0  0  0
   -0.3448   -2.8233    3.6733 C   0  0  0  0  0  0  0  0  0  0  0  0
   -0.2273   -1.7785    4.5490 C   0  0  0  0  0  0  0  0  0  0  0  0
    1.1118   -1.2790    4.7164 C   0  0  0  0  0  0  0  0  0  0  0  0
    2.0318   -2.0209    4.0443 C   0  0  0  0  0  0  0  0  0  0  0  0
  1  2  1  0
  2  3  2  0
  3  4  1  0
  1  5  2  0
  4  5  1  0
  4  6  1  6
  6  7  2  0
  6  8  1  0
  5  9  1  0
  9 10  1  0
 10 11  2  0
 10 12  1  0
  2 13  1  0
 13 14  2  3
 14 15  1  0
 15 16  1  0
 16 17  2  3
 17 18  1  0
 18 19  2  0
M  END

$$$$
No_1340-/export/home/yangzhenyu/potential_scad_32_flow//YTHDC2/2024-12-06-03-22-00/
     RDKit          3D

 18 19  0  0  1  0  0  0  0  0999 V2000
    1.1787   -8.0297    3.5154 C   0  0  0  0  0  0  0  0  0  0  0  0
    1.0491   -6.8434    2.9820 C   0  0  1  0  0  0  0  0  0  0  0  0
    1.9985   -8.9840    2.8958 C   0  0  0  0  0  0  0  0  0  0  0  0
    1.1814  -10.1889    2.5497 C   0  0  0  0  0  0  0  0  0  0  0  0
    0.9817  -11.1388    2.8134 C   0  0  1  0  0  0  0  0  0  0  0  0
    1.6854  -11.5768    4.1035 C   0  0  0  0  0  0  0  0  0  0  0  0
    1.8112   -5.8026    3.2097 N   0  0  0  0  0  0  0  0  0  0  0  0
    1.4667   -4.6434    2.5865 C   0  0  0  0  0  0  0  0  0  0  0  0
    0.5126   -4.7460    1.5845 C   0  0  0  0  0  0  0  0  0  0  0  0
    0.2903   -6.2809    1.7072 C   0  0  0  0  0  0  0  0  0  0  0  0
    0.1810  -12.1255    2.4345 C   0  0  0  0  0  0  0  0  0  0  0  0
    0.4215  -13.4781    2.6959 C   0  0  0  0  0  0  0  0  0  0  0  0
    1.6545  -13.9781    2.7966 C   0  0  0  0  0  0  0  0  0  0  0  0
    1.6971  -15.5040    2.8628 C   0  0  0  0  0  0  0  0  0  0  0  0
    0.6092  -16.2144    2.9702 C   0  0  0  0  0  0  0  0  0  0  0  0
   -0.6206  -15.6315    2.8055 C   0  0  0  0  0  0  0  0  0  0  0  0
   -0.7356  -14.2776    2.6900 C   0  0  0  0  0  0  0  0  0  0  0  0
    0.8754   -9.9127    1.0787 O   0  0  0  0  0  0  0  0  0  0  0  0
  2  1  1  6
  1  3  1  0
  3  4  1  0
  4  5  1  0
  5  6  1  1
  2  7  1  0
  7  8  2  0
  8  9  1  0
  2 10  1  0
  9 10  1  0
  5 11  1  0
 11 12  1  0
  4 18  2  0
 12 13  2  0
 13 14  1  0
 14 15  2  0
 15 16  1  0
 16 17  2  0
 12 17  1  0
M  END

$$$$
No_1341-/export/home/yangzhenyu/potential_scad_32_flow//YTHDC2/2024-12-06-03-22-00/
     RDKit          3D

 17 17  0  0  0  0  0  0  0  0999 V2000
    1.1787   -8.0297    3.5154 C   0  0  0  0  0  0  0  0  0  0  0  0
    1.1048   -9.2215    3.2892 C   0  0  0  0  0  0  0  0  0  0  0  0
    1.2339   -9.7611    2.0189 C   0  0  0  0  0  0  0  0  0  0  0  0
    1.3583   -9.0036    0.9764 C   0  0  0  0  0  0  0  0  0  0  0  0
    1.7077   -9.6100   -0.3010 C   0  0  0  0  0  0  0  0  0  0  0  0
    1.3637   -7.1087    2.3226 C   0  0  0  0  0  0  0  0  0  0  0  0
    1.4257   -7.6645    1.0231 C   0  0  0  0  0  0  0  0  0  0  0  0
    1.9364   -8.8976   -1.3212 O   0  0  0  0  0  0  0  0  0  0  0  0
    1.2853  -10.8201   -0.4625 O   0  0  0  0  0  0  0  0  0  0  0  0
    1.1269  -10.2988    4.5792 Cl  0  0  0  0  0  0  0  0  0  0  0  0
    1.3279   -5.6013    2.5513 O   0  0  0  0  0  0  0  0  0  0  0  0
    0.8322   -4.8182    1.7302 C   0  0  0  0  0  0  0  0  0  0  0  0
    1.3290  -11.1681    1.9429 N   0  0  0  0  0  0  0  0  0  0  0  0
    2.5467  -11.9570    1.8361 C   0  0  0  0  0  0  0  0  0  0  0  0
    2.3501  -13.3040    1.9998 C   0  0  0  0  0  0  0  0  0  0  0  0
    1.5252  -13.7625    2.8682 C   0  0  0  0  0  0  0  0  0  0  0  0
    1.3325  -15.2469    2.9135 C   0  0  0  0  0  0  0  0  0  0  0  0
  4  5  1  0
  5  8  2  0
  5  9  1  0
  2 10  1  0
  6 11  1  0
 11 12  1  0
  3 13  1  0
 13 14  1  0
 14 15  1  0
 15 16  1  0
 16 17  2  0
  1  2  2  0
  2  3  1  0
  3  4  2  0
  4  7  1  0
  6  7  2  0
  1  6  1  0
M  END

$$$$
No_1342-/export/home/yangzhenyu/potential_scad_32_flow//YTHDC2/2024-12-06-03-22-00/
     RDKit          3D

 18 19  0  0  1  0  0  0  0  0999 V2000
    1.1787   -8.0297    3.5154 C   0  0  0  0  0  0  0  0  0  0  0  0
    1.1048   -9.2215    3.2892 C   0  0  0  0  0  0  0  0  0  0  0  0
    1.2339   -9.7611    2.0189 C   0  0  1  0  0  0  0  0  0  0  0  0
    1.1954  -11.2312    1.8661 C   0  0  0  0  0  0  0  0  0  0  0  0
    1.5546  -12.1691    2.7931 C   0  0  0  0  0  0  0  0  0  0  0  0
    0.9527   -7.0669    2.3918 C   0  0  2  0  0  0  0  0  0  0  0  0
    1.0618   -7.6392    1.0692 C   0  0  0  0  0  0  0  0  0  0  0  0
    1.2060   -8.9530    0.8578 C   0  0  0  0  0  0  0  0  0  0  0  0
    1.5159  -13.5011    2.3738 C   0  0  0  0  0  0  0  0  0  0  0  0
    1.1409  -13.8990    1.1908 C   0  0  0  0  0  0  0  0  0  0  0  0
    0.9249  -13.0546    0.2183 C   0  0  0  0  0  0  0  0  0  0  0  0
    0.9227  -11.6707    0.5316 C   0  0  0  0  0  0  0  0  0  0  0  0
    1.0078   -5.6071    2.4628 N   0  0  0  0  0  0  0  0  0  0  0  0
    1.2217   -9.3587   -0.3865 O   0  0  0  0  0  0  0  0  0  0  0  0
    1.8704  -14.3826    3.4801 O   0  0  0  0  0  0  0  0  0  0  0  0
    1.1348   -6.7791    0.1021 O   0  0  0  0  0  0  0  0  0  0  0  0
    1.9858   -4.9385    3.1610 C   0  0  0  0  0  0  0  0  0  0  0  0
    1.6645   -3.5009    3.1036 C   0  0  0  0  0  0  0  0  0  0  0  0
  1  2  1  0
  3  4  1  6
  6  7  1  0
  3  8  1  0
  7  8  1  0
  6 13  1  6
  8 14  2  0
  9 15  1  0
  7 16  2  0
 13 17  1  0
 17 18  1  0
  2  3  1  0
  1  6  1  0
  4  5  2  0
  5  9  1  0
  9 10  2  0
 10 11  1  0
 11 12  2  0
  4 12  1  0
M  END

$$$$
No_1343-/export/home/yangzhenyu/potential_scad_32_flow//YTHDC2/2024-12-06-03-22-00/
     RDKit          3D

 19 21  0  0  0  0  0  0  0  0999 V2000
    1.1787   -8.0297    3.5154 C   0  0  0  0  0  0  0  0  0  0  0  0
    1.1048   -9.2215    3.2892 C   0  0  0  0  0  0  0  0  0  0  0  0
    1.3627  -10.1721    4.3044 C   0  0  0  0  0  0  0  0  0  0  0  0
    1.0682  -11.5187    4.0618 C   0  0  0  0  0  0  0  0  0  0  0  0
    0.6332  -11.9655    2.9682 C   0  0  0  0  0  0  0  0  0  0  0  0
    0.4776  -11.1308    1.9203 C   0  0  0  0  0  0  0  0  0  0  0  0
    0.7470   -9.8274    2.0368 C   0  0  0  0  0  0  0  0  0  0  0  0
    1.0387   -7.0301    2.5175 C   0  0  0  0  0  0  0  0  0  0  0  0
    0.9130   -7.5288    1.2013 C   0  0  0  0  0  0  0  0  0  0  0  0
    0.7893   -8.7979    0.9542 C   0  0  0  0  0  0  0  0  0  0  0  0
    0.5241   -9.2578   -0.2817 C   0  0  0  0  0  0  0  0  0  0  0  0
   -0.7560   -9.7391   -0.6285 O   0  0  0  0  0  0  0  0  0  0  0  0
    1.3013   -8.9300   -1.2618 N   0  0  0  0  0  0  0  0  0  0  0  0
    0.5094  -13.3734    2.6882 C   0  0  0  0  0  0  0  0  0  0  0  0
    1.4309  -14.3249    3.2435 C   0  0  0  0  0  0  0  0  0  0  0  0
    1.2105  -15.6765    3.0120 C   0  0  0  0  0  0  0  0  0  0  0  0
    0.3696  -16.1224    2.1988 C   0  0  0  0  0  0  0  0  0  0  0  0
   -0.4799  -15.2775    1.5820 C   0  0  0  0  0  0  0  0  0  0  0  0
   -0.3264  -13.9116    1.8076 C   0  0  0  0  0  0  0  0  0  0  0  0
 10 11  1  0
 11 12  2  0
 11 13  1  0
  5 14  1  0
  2  3  1  0
  3  4  2  0
  4  5  1  0
  5  6  2  0
  6  7  1  0
  1  2  2  0
  2  7  1  0
  7 10  2  0
  9 10  1  0
  8  9  2  0
  1  8  1  0
 14 15  2  0
 15 16  1  0
 16 17  2  0
 17 18  1  0
 18 19  2  0
 14 19  1  0
M  END

$$$$
No_1344-/export/home/yangzhenyu/potential_scad_32_flow//YTHDC2/2024-12-06-03-22-00/
     RDKit          3D

 19 21  0  0  1  0  0  0  0  0999 V2000
    1.1787   -8.0297    3.5154 C   0  0  0  0  0  0  0  0  0  0  0  0
    1.1048   -9.2215    3.2892 C   0  0  0  0  0  0  0  0  0  0  0  0
    1.3627  -10.1721    4.3044 C   0  0  0  0  0  0  0  0  0  0  0  0
    1.7354  -11.4730    3.9023 C   0  0  0  0  0  0  0  0  0  0  0  0
    1.8080  -11.8127    2.7216 C   0  0  0  0  0  0  0  0  0  0  0  0
    1.5854  -11.0021    1.7249 C   0  0  0  0  0  0  0  0  0  0  0  0
    1.3573   -9.7389    1.9287 C   0  0  0  0  0  0  0  0  0  0  0  0
    1.1102   -8.8712    0.9017 C   0  0  0  0  0  0  0  0  0  0  0  0
    0.5299   -7.6926    1.0325 C   0  0  0  0  0  0  0  0  0  0  0  0
    0.7526   -7.0802    2.3301 C   0  0  0  0  0  0  0  0  0  0  0  0
    2.0515  -13.2522    2.4284 C   0  0  0  0  0  0  0  0  0  0  0  0
    1.7501  -14.1995    3.2608 C   0  0  0  0  0  0  0  0  0  0  0  0
    1.8965  -15.5590    2.8196 C   0  0  0  0  0  0  0  0  0  0  0  0
    2.6986  -15.3916    1.5446 C   0  0  0  0  0  0  0  0  0  0  0  0
    2.8708  -14.0268    1.2601 C   0  0  0  0  0  0  0  0  0  0  0  0
    0.4520   -5.4500    2.5833 C   0  0  2  0  0  0  0  0  0  0  0  0
   -0.7007   -5.0669    2.2855 C   0  0  0  0  0  0  0  0  0  0  0  0
   -1.8168   -5.7281    2.5428 C   0  0  0  0  0  0  0  0  0  0  0  0
    1.6369   -4.9041    2.9400 C   0  0  0  0  0  0  0  0  0  0  0  0
  5 11  1  0
 11 12  1  0
 12 13  2  0
 13 14  1  0
 11 15  1  0
 14 15  2  0
 10 16  1  0
 16 17  1  0
 17 18  1  0
 16 19  1  6
  1  2  2  0
  7  8  2  0
  8  9  1  0
  9 10  2  0
  1 10  1  0
  2  3  1  0
  3  4  2  0
  4  5  1  0
  5  6  2  0
  6  7  1  0
  2  7  1  0
M  END

$$$$
No_1345-/export/home/yangzhenyu/potential_scad_32_flow//YTHDC2/2024-12-06-03-22-00/
     RDKit          3D

 19 20  0  0  1  0  0  0  0  0999 V2000
    1.1787   -8.0297    3.5154 C   0  0  0  0  0  0  0  0  0  0  0  0
    1.1048   -9.2215    3.2892 C   0  0  0  0  0  0  0  0  0  0  0  0
    1.3627  -10.1721    4.3044 C   0  0  0  0  0  0  0  0  0  0  0  0
    1.0682  -11.5187    4.0618 C   0  0  0  0  0  0  0  0  0  0  0  0
    0.6332  -11.9655    2.9682 C   0  0  0  0  0  0  0  0  0  0  0  0
    0.4776  -11.1308    1.9203 C   0  0  0  0  0  0  0  0  0  0  0  0
    0.7470   -9.8274    2.0368 C   0  0  0  0  0  0  0  0  0  0  0  0
    1.0387   -7.0301    2.5175 N   0  0  0  0  0  0  0  0  0  0  0  0
    1.0482   -5.6912    2.8349 C   0  0  1  0  0  0  0  0  0  0  0  0
    0.4271  -13.4280    2.7942 C   0  0  0  0  0  0  0  0  0  0  0  0
    1.4074  -14.3297    3.1148 C   0  0  0  0  0  0  0  0  0  0  0  0
    1.1732  -15.6968    2.9983 C   0  0  0  0  0  0  0  0  0  0  0  0
    0.1348  -16.1312    2.5222 C   0  0  0  0  0  0  0  0  0  0  0  0
   -0.8454  -15.3168    2.0509 C   0  0  0  0  0  0  0  0  0  0  0  0
   -0.6393  -13.9539    2.1741 C   0  0  0  0  0  0  0  0  0  0  0  0
    1.6972   -5.2093    3.8775 C   0  0  0  0  0  0  0  0  0  0  0  0
    0.5798   -4.8919    1.8065 C   0  0  0  0  0  0  0  0  0  0  0  0
   -0.1460   -4.1429    1.7155 C   0  0  0  0  0  0  0  0  0  0  0  0
   -0.8719   -3.8452    2.9814 C   0  0  0  0  0  0  0  0  0  0  0  0
  1  2  1  0
  1  8  1  0
  8  9  1  0
  5 10  1  0
  9 16  1  6
  9 17  1  0
 17 18  2  3
 18 19  1  0
  2  3  2  0
  3  4  1  0
  4  5  2  0
  5  6  1  0
  6  7  2  0
  2  7  1  0
 10 11  2  0
 11 12  1  0
 12 13  2  0
 13 14  1  0
 14 15  2  0
 10 15  1  0
M  END

$$$$
No_1346-/export/home/yangzhenyu/potential_scad_32_flow//YTHDC2/2024-12-06-03-22-00/
     RDKit          3D

 19 19  0  0  0  0  0  0  0  0999 V2000
    1.1787   -8.0297    3.5154 C   0  0  0  0  0  0  0  0  0  0  0  0
    1.0491   -6.8434    2.9820 C   0  0  0  0  0  0  0  0  0  0  0  0
    1.9985   -8.9840    2.8958 C   0  0  0  0  0  0  0  0  0  0  0  0
    1.9135  -10.3404    3.6266 C   0  0  0  0  0  0  0  0  0  0  0  0
    1.3291  -11.3908    3.0222 C   0  0  0  0  0  0  0  0  0  0  0  0
    1.2749  -12.5326    3.7562 C   0  0  0  0  0  0  0  0  0  0  0  0
    1.8025   -5.7637    3.3237 C   0  0  0  0  0  0  0  0  0  0  0  0
    0.6991  -13.6717    3.1451 C   0  0  0  0  0  0  0  0  0  0  0  0
    0.4281  -13.6449    1.8407 C   0  0  0  0  0  0  0  0  0  0  0  0
    0.6918  -12.5891    1.0577 C   0  0  0  0  0  0  0  0  0  0  0  0
    1.1654  -11.4578    1.6134 C   0  0  0  0  0  0  0  0  0  0  0  0
    1.3811  -10.4061    0.7517 C   0  0  0  0  0  0  0  0  0  0  0  0
    2.5789   -9.9963    0.2796 O   0  0  0  0  0  0  0  0  0  0  0  0
    0.2617   -9.5932    0.4268 O   0  0  0  0  0  0  0  0  0  0  0  0
    1.5494   -5.3555    4.4443 O   0  0  0  0  0  0  0  0  0  0  0  0
    0.5498  -14.9997    3.9906 O   0  0  0  0  0  0  0  0  0  0  0  0
    0.4451  -16.1277    3.3969 C   0  0  0  0  0  0  0  0  0  0  0  0
    1.8255   -4.6675    2.3647 O   0  0  0  0  0  0  0  0  0  0  0  0
    1.6469  -16.6500    2.8801 C   0  0  0  0  0  0  0  0  0  0  0  0
  1  2  1  0
  1  3  1  0
  3  4  1  0
  4  5  1  0
  2  7  1  0
 11 12  1  0
 12 13  2  0
 12 14  1  0
  7 15  2  0
  8 16  1  0
 16 17  1  0
  7 18  1  0
 17 19  1  0
  5  6  2  0
  6  8  1  0
  8  9  2  0
  9 10  1  0
 10 11  2  0
  5 11  1  0
M  END

$$$$
No_1347-/export/home/yangzhenyu/potential_scad_32_flow//YTHDC2/2024-12-06-03-22-00/
     RDKit          3D

 18 19  0  0  0  0  0  0  0  0999 V2000
    1.1787   -8.0297    3.5154 C   0  0  0  0  0  0  0  0  0  0  0  0
    1.0491   -6.8434    2.9820 C   0  0  0  0  0  0  0  0  0  0  0  0
    0.0950   -8.8404    3.2292 C   0  0  0  0  0  0  0  0  0  0  0  0
   -0.9173   -8.4596    2.5152 C   0  0  0  0  0  0  0  0  0  0  0  0
   -1.0331   -7.2162    2.0653 C   0  0  0  0  0  0  0  0  0  0  0  0
   -0.0105   -6.3168    2.3081 C   0  0  0  0  0  0  0  0  0  0  0  0
    0.1935  -10.3737    3.7416 I   0  0  0  0  0  0  0  0  0  0  0  0
    0.0224   -4.9394    1.9045 C   0  0  0  0  0  0  0  0  0  0  0  0
   -0.7000   -4.1265    2.3431 C   0  0  0  0  0  0  0  0  0  0  0  0
   -0.6466   -2.8137    1.8284 C   0  0  0  0  0  0  0  0  0  0  0  0
    0.0982   -2.4610    0.7767 C   0  0  0  0  0  0  0  0  0  0  0  0
    0.9108   -3.4038    0.1827 C   0  0  0  0  0  0  0  0  0  0  0  0
    0.9030   -4.7118    0.7767 C   0  0  0  0  0  0  0  0  0  0  0  0
    0.1604   -0.9735    0.0721 Cl  0  0  0  0  0  0  0  0  0  0  0  0
   -2.2040   -6.8447    1.3056 O   0  0  0  0  0  0  0  0  0  0  0  0
   -3.3050   -6.7176    1.8570 C   0  0  0  0  0  0  0  0  0  0  0  0
   -4.2136   -6.3261    0.9759 C   0  0  0  0  0  0  0  0  0  0  0  0
   -5.1679   -5.5350    1.3459 O   0  0  0  0  0  0  0  0  0  0  0  0
  3  7  1  0
  6  8  1  0
 11 14  1  0
  5 15  1  0
 15 16  1  0
 16 17  1  0
 17 18  2  0
  1  2  2  0
  2  6  1  0
  5  6  2  0
  4  5  1  0
  3  4  2  0
  1  3  1  0
  8  9  2  0
  9 10  1  0
 10 11  2  0
 11 12  1  0
 12 13  2  0
  8 13  1  0
M  END

$$$$
No_1348-/export/home/yangzhenyu/potential_scad_32_flow//YTHDC2/2024-12-06-03-22-00/
     RDKit          3D

 19 21  0  0  0  0  0  0  0  0999 V2000
    1.1787   -8.0297    3.5154 C   0  0  0  0  0  0  0  0  0  0  0  0
    1.1048   -9.2215    3.2892 C   0  0  0  0  0  0  0  0  0  0  0  0
    1.3627  -10.1721    4.3044 C   0  0  0  0  0  0  0  0  0  0  0  0
    1.0682  -11.5187    4.0618 C   0  0  0  0  0  0  0  0  0  0  0  0
    0.6332  -11.9655    2.9682 C   0  0  0  0  0  0  0  0  0  0  0  0
    0.4719  -13.4293    2.7591 C   0  0  0  0  0  0  0  0  0  0  0  0
    1.1778  -13.9123    1.8627 C   0  0  0  0  0  0  0  0  0  0  0  0
    1.0139   -7.1500    2.3162 F   0  0  0  0  0  0  0  0  0  0  0  0
    1.5425  -15.2773    1.8110 C   0  0  0  0  0  0  0  0  0  0  0  0
    0.9950  -16.1548    2.7976 C   0  0  0  0  0  0  0  0  0  0  0  0
    1.3033  -17.5045    3.0423 C   0  0  0  0  0  0  0  0  0  0  0  0
    0.7479  -11.0349    1.8691 C   0  0  0  0  0  0  0  0  0  0  0  0
    0.9435   -9.7144    2.0130 C   0  0  0  0  0  0  0  0  0  0  0  0
    0.8595  -18.2596    3.9521 C   0  0  0  0  0  0  0  0  0  0  0  0
    0.1467  -17.7057    4.9649 C   0  0  0  0  0  0  0  0  0  0  0  0
   -0.2330  -16.3518    4.9479 C   0  0  0  0  0  0  0  0  0  0  0  0
    0.2662  -15.5482    3.8819 C   0  0  0  0  0  0  0  0  0  0  0  0
    0.0104  -14.1756    3.7480 N   0  0  0  0  0  0  0  0  0  0  0  0
    0.0412   -7.4430    4.1458 F   0  0  0  0  0  0  0  0  0  0  0  0
  1  2  1  0
  5  6  1  0
  1  8  1  0
  1 19  1  0
  6  7  2  0
  7  9  1  0
  9 10  2  0
 17 18  2  0
  6 18  1  0
 10 11  1  0
 11 14  2  0
 14 15  1  0
 15 16  2  0
 16 17  1  0
 10 17  1  0
  2  3  2  0
  3  4  1  0
  4  5  2  0
  5 12  1  0
 12 13  2  0
  2 13  1  0
M  END

$$$$
No_1349-/export/home/yangzhenyu/potential_scad_32_flow//YTHDC2/2024-12-06-03-22-00/
     RDKit          3D

 18 19  0  0  1  0  0  0  0  0999 V2000
    1.1787   -8.0297    3.5154 N   0  0  0  0  0  0  0  0  0  0  0  0
    0.8669   -7.0905    2.8589 C   0  0  0  0  0  0  0  0  0  0  0  0
    0.8842   -5.8387    3.2677 N   0  0  0  0  0  0  0  0  0  0  0  0
    1.2385   -9.3073    2.9821 C   0  0  0  0  0  0  0  0  0  0  0  0
    0.9932   -9.3436    1.6647 C   0  0  1  0  0  0  0  0  0  0  0  0
    0.8857  -10.5757    0.9637 C   0  0  0  0  0  0  0  0  0  0  0  0
    0.7708   -7.1600    1.4358 C   0  0  0  0  0  0  0  0  0  0  0  0
    0.7647   -8.2542    0.8940 C   0  0  0  0  0  0  0  0  0  0  0  0
    2.0054  -11.4257    0.9777 O   0  0  0  0  0  0  0  0  0  0  0  0
    0.6038   -8.3415   -0.3981 O   0  0  0  0  0  0  0  0  0  0  0  0
    1.5908  -10.4005    3.8059 O   0  0  0  0  0  0  0  0  0  0  0  0
    0.4557   -5.8733    0.9027 C   0  0  0  0  0  0  0  0  0  0  0  0
    0.4575   -4.6701    1.5183 C   0  0  0  0  0  0  0  0  0  0  0  0
    0.7131   -4.7252    2.8751 C   0  0  0  0  0  0  0  0  0  0  0  0
    0.1395  -10.7477   -0.1763 O   0  0  0  0  0  0  0  0  0  0  0  0
    0.2365   -3.4150    0.8887 Cl  0  0  0  0  0  0  0  0  0  0  0  0
    0.5818   -3.6579    3.7818 C   0  0  0  0  0  0  0  0  0  0  0  0
   -0.5896   -3.1630    4.3312 C   0  0  0  0  0  0  0  0  0  0  0  0
  1  2  1  0
  1  4  1  0
  4  5  1  0
  5  6  1  1
  5  8  1  0
  7  8  1  0
  6  9  1  0
  8 10  2  0
  4 11  2  0
  6 15  2  0
 13 16  1  0
 14 17  1  0
 17 18  1  0
  2  3  2  0
  3 14  1  0
 13 14  2  0
 12 13  1  0
  7 12  2  0
  2  7  1  0
M  END

$$$$
No_1350-/export/home/yangzhenyu/potential_scad_32_flow//YTHDC2/2024-12-06-03-22-00/
     RDKit          3D

 18 18  0  0  0  0  0  0  0  0999 V2000
    1.1787   -8.0297    3.5154 C   0  0  0  0  0  0  0  0  0  0  0  0
    1.0491   -6.8434    2.9820 C   0  0  0  0  0  0  0  0  0  0  0  0
    0.0950   -8.8404    3.2292 C   0  0  0  0  0  0  0  0  0  0  0  0
   -0.9173   -8.4596    2.5152 C   0  0  0  0  0  0  0  0  0  0  0  0
   -1.0331   -7.2162    2.0653 C   0  0  0  0  0  0  0  0  0  0  0  0
   -0.0105   -6.3168    2.3081 C   0  0  0  0  0  0  0  0  0  0  0  0
    0.1150   -4.9910    1.8495 C   0  0  0  0  0  0  0  0  0  0  0  0
   -0.1376   -4.7952    0.5550 O   0  0  0  0  0  0  0  0  0  0  0  0
    0.8481   -4.0195    2.5027 O   0  0  0  0  0  0  0  0  0  0  0  0
    0.1950  -10.4923    3.7195 C   0  0  0  0  0  0  0  0  0  0  0  0
   -0.9193  -11.1810    3.4704 O   0  0  0  0  0  0  0  0  0  0  0  0
    1.2263  -10.9760    4.3730 N   0  0  0  0  0  0  0  0  0  0  0  0
    1.7931  -12.0442    3.9700 C   0  0  0  0  0  0  0  0  0  0  0  0
    0.8841  -13.1617    3.4525 C   0  0  0  0  0  0  0  0  0  0  0  0
    1.5369  -13.9784    2.4508 C   0  0  0  0  0  0  0  0  0  0  0  0
    1.3454  -15.3127    2.4405 C   0  0  0  0  0  0  0  0  0  0  0  0
    2.2685  -16.1202    1.8980 C   0  0  0  0  0  0  0  0  0  0  0  0
    3.5393  -15.6738    1.7013 C   0  0  0  0  0  0  0  0  0  0  0  0
  6  7  1  0
  7  8  2  0
  7  9  1  0
  3 10  1  0
 10 11  2  0
 10 12  1  0
 12 13  1  0
 13 14  1  0
 14 15  1  0
 15 16  1  0
 16 17  1  0
 17 18  1  0
  1  2  2  0
  2  6  1  0
  5  6  2  0
  4  5  1  0
  3  4  2  0
  1  3  1  0
M  END

$$$$
No_1351-/export/home/yangzhenyu/potential_scad_32_flow//YTHDC2/2024-12-06-03-22-00/
     RDKit          3D

 18 19  0  0  1  0  0  0  0  0999 V2000
    1.1787   -8.0297    3.5154 C   0  0  0  0  0  0  0  0  0  0  0  0
    1.0491   -6.8434    2.9820 C   0  0  2  0  0  0  0  0  0  0  0  0
    0.9905   -9.0774    2.6527 C   0  0  0  0  0  0  0  0  0  0  0  0
    1.1655  -10.4663    3.1286 C   0  0  0  0  0  0  0  0  0  0  0  0
    1.2197  -11.4898    2.5831 C   0  0  0  0  0  0  0  0  0  0  0  0
    1.0589  -11.4458    1.1293 C   0  0  0  0  0  0  0  0  0  0  0  0
    1.0477  -10.5118    0.5234 C   0  0  0  0  0  0  0  0  0  0  0  0
    0.9529   -9.1784    1.1164 C   0  0  0  0  0  0  0  0  0  0  0  0
    0.9419   -7.8916    0.5511 C   0  0  0  0  0  0  0  0  0  0  0  0
    1.0601   -6.6944    1.4434 C   0  0  1  0  0  0  0  0  0  0  0  0
    1.3614  -12.8118    3.1374 C   0  0  0  0  0  0  0  0  0  0  0  0
    0.2593  -13.7447    2.9612 O   0  0  0  0  0  0  0  0  0  0  0  0
    2.3114  -13.1064    3.8894 O   0  0  0  0  0  0  0  0  0  0  0  0
    0.4345   -7.6393   -0.4335 O   0  0  0  0  0  0  0  0  0  0  0  0
    1.3675   -5.4551    3.7256 Cl  0  0  0  0  0  0  0  0  0  0  0  0
    0.9543   -5.4574    0.8979 O   0  0  0  0  0  0  0  0  0  0  0  0
    1.3479  -10.4886    4.6174 O   0  0  0  0  0  0  0  0  0  0  0  0
   -0.1451   -4.6921    0.8415 C   0  0  0  0  0  0  0  0  0  0  0  0
  1  2  1  0
  8  9  1  0
  9 10  1  0
  5 11  1  0
 11 12  2  0
 11 13  1  0
  9 14  2  0
  2 15  1  1
 10 16  1  1
  4 17  1  0
 16 18  1  0
  1  3  1  0
  2 10  1  0
  3  4  2  0
  4  5  1  0
  5  6  2  0
  6  7  1  0
  7  8  2  0
  3  8  1  0
M  END

$$$$
No_1352-/export/home/yangzhenyu/potential_scad_32_flow//YTHDC2/2024-12-06-03-22-00/
     RDKit          3D

 17 19  0  0  0  0  0  0  0  0999 V2000
    1.1787   -8.0297    3.5154 C   0  0  0  0  0  0  0  0  0  0  0  0
    1.1048   -9.2215    3.2892 C   0  0  0  0  0  0  0  0  0  0  0  0
    1.3627  -10.1721    4.3044 C   0  0  0  0  0  0  0  0  0  0  0  0
    1.0682  -11.5187    4.0618 C   0  0  0  0  0  0  0  0  0  0  0  0
    0.6332  -11.9655    2.9682 C   0  0  0  0  0  0  0  0  0  0  0  0
    0.4719  -13.4293    2.7591 C   0  0  0  0  0  0  0  0  0  0  0  0
    1.3208  -14.3288    3.3604 C   0  0  0  0  0  0  0  0  0  0  0  0
    1.0176   -7.1425    2.3239 C   0  0  0  0  0  0  0  0  0  0  0  0
    0.9624   -7.5765    1.1218 C   0  0  0  0  0  0  0  0  0  0  0  0
    1.1530   -8.8505    0.8360 C   0  0  0  0  0  0  0  0  0  0  0  0
    1.2132   -9.7894    1.9052 C   0  0  0  0  0  0  0  0  0  0  0  0
    1.1582  -15.7691    2.9286 C   0  0  0  0  0  0  0  0  0  0  0  0
    0.3614  -16.1230    2.0527 C   0  0  0  0  0  0  0  0  0  0  0  0
   -0.4033  -15.2416    1.4258 C   0  0  0  0  0  0  0  0  0  0  0  0
   -0.2755  -13.8602    1.6907 C   0  0  0  0  0  0  0  0  0  0  0  0
    0.8562  -11.1107    1.7960 N   0  0  0  0  0  0  0  0  0  0  0  0
    1.1221   -9.4987   -0.5466 C   0  0  0  0  0  0  0  0  0  0  0  0
  5  6  1  0
 10 17  1  0
  1  2  2  0
 10 11  2  0
  9 10  1  0
  8  9  2  0
  1  8  1  0
  2  3  1  0
  3  4  2  0
  4  5  1  0
  5 16  2  0
 11 16  1  0
  2 11  1  0
  6  7  2  0
  7 12  1  0
 12 13  2  0
 13 14  1  0
 14 15  2  0
  6 15  1  0
M  END

$$$$
No_1353-/export/home/yangzhenyu/potential_scad_32_flow//YTHDC2/2024-12-06-03-22-00/
     RDKit          3D

 16 17  0  0  1  0  0  0  0  0999 V2000
    1.1787   -8.0297    3.5154 C   0  0  0  0  0  0  0  0  0  0  0  0
    1.1048   -9.2215    3.2892 C   0  0  0  0  0  0  0  0  0  0  0  0
    1.2339   -9.7611    2.0189 C   0  0  0  0  0  0  0  0  0  0  0  0
    1.3583   -9.0036    0.9764 C   0  0  0  0  0  0  0  0  0  0  0  0
    1.5996   -7.6362    1.1311 C   0  0  0  0  0  0  0  0  0  0  0  0
    1.4830   -7.0928    2.3626 C   0  0  0  0  0  0  0  0  0  0  0  0
    1.1171  -11.3311    1.8661 C   0  0  1  0  0  0  0  0  0  0  0  0
    0.5022  -11.6388    0.6531 C   0  0  0  0  0  0  0  0  0  0  0  0
    0.5683  -13.0838    0.5424 C   0  0  0  0  0  0  0  0  0  0  0  0
    1.2318  -13.7226    1.6757 C   0  0  0  0  0  0  0  0  0  0  0  0
    1.8181  -13.2350    2.6727 C   0  0  0  0  0  0  0  0  0  0  0  0
    1.7194  -11.9324    2.9048 C   0  0  0  0  0  0  0  0  0  0  0  0
    1.5210   -5.6594    2.6694 O   0  0  0  0  0  0  0  0  0  0  0  0
    2.4224  -11.3779    3.8409 O   0  0  0  0  0  0  0  0  0  0  0  0
    1.5642   -9.3374   -0.3891 C   0  0  0  0  0  0  0  0  0  0  0  0
    2.3948   -9.7844   -0.8848 O   0  0  0  0  0  0  0  0  0  0  0  0
  7  3  1  6
  7  8  1  0
  9 10  1  0
  7 12  1  0
 11 12  1  0
  6 13  1  0
 12 14  2  0
  4 15  1  0
 15 16  2  0
  8  9  1  0
 10 11  1  0
  1  2  2  0
  2  3  1  0
  3  4  2  0
  4  5  1  0
  5  6  2  0
  1  6  1  0
M  END

$$$$
No_1354-/export/home/yangzhenyu/potential_scad_32_flow//YTHDC2/2024-12-06-03-22-00/
     RDKit          3D

 17 18  0  0  0  0  0  0  0  0999 V2000
    1.1787   -8.0297    3.5154 C   0  0  0  0  0  0  0  0  0  0  0  0
    1.1048   -9.2215    3.2892 N   0  0  0  0  0  0  0  0  0  0  0  0
    1.0346   -9.7785    2.1176 C   0  0  0  0  0  0  0  0  0  0  0  0
    1.2597   -9.0826    1.0431 C   0  0  0  0  0  0  0  0  0  0  0  0
    1.5530   -7.7656    1.0977 C   0  0  0  0  0  0  0  0  0  0  0  0
    1.5300   -7.1323    2.3379 C   0  0  0  0  0  0  0  0  0  0  0  0
    1.6813   -5.7666    2.5762 C   0  0  0  0  0  0  0  0  0  0  0  0
    0.9494  -11.3390    2.1322 C   0  0  0  0  0  0  0  0  0  0  0  0
   -0.2038  -11.8014    1.6977 C   0  0  0  0  0  0  0  0  0  0  0  0
   -0.3498  -13.1818    1.6278 C   0  0  0  0  0  0  0  0  0  0  0  0
    0.7374  -14.0101    2.0260 C   0  0  0  0  0  0  0  0  0  0  0  0
    1.8201  -13.4762    2.5988 C   0  0  0  0  0  0  0  0  0  0  0  0
    1.9018  -12.1176    2.7573 C   0  0  0  0  0  0  0  0  0  0  0  0
    0.5831  -15.4477    2.1227 C   0  0  0  0  0  0  0  0  0  0  0  0
    1.4400  -16.2535    2.6749 C   0  0  0  0  0  0  0  0  0  0  0  0
    1.2669  -17.6104    2.7652 C   0  0  0  0  0  0  0  0  0  0  0  0
    0.2142  -18.1816    2.1470 C   0  0  0  0  0  0  0  0  0  0  0  0
  6  7  1  0
  3  8  1  0
 11 14  1  0
 14 15  2  3
 15 16  1  0
 16 17  2  0
  1  2  2  0
  2  3  1  0
  3  4  2  0
  4  5  1  0
  5  6  2  0
  1  6  1  0
  8  9  2  0
  9 10  1  0
 10 11  2  0
 11 12  1  0
 12 13  2  0
  8 13  1  0
M  END

$$$$
No_1355-/export/home/yangzhenyu/potential_scad_32_flow//YTHDC2/2024-12-06-03-22-00/
     RDKit          3D

 18 18  0  0  1  0  0  0  0  0999 V2000
    1.1787   -8.0297    3.5154 C   0  0  0  0  0  0  0  0  0  0  0  0
    1.1048   -9.2215    3.2892 C   0  0  0  0  0  0  0  0  0  0  0  0
    1.2339   -9.7611    2.0189 C   0  0  0  0  0  0  0  0  0  0  0  0
    1.3583   -9.0036    0.9764 C   0  0  0  0  0  0  0  0  0  0  0  0
    1.5996   -7.6362    1.1311 C   0  0  0  0  0  0  0  0  0  0  0  0
    1.4830   -7.0928    2.3626 C   0  0  0  0  0  0  0  0  0  0  0  0
    1.5395   -5.7300    2.6182 C   0  0  0  0  0  0  0  0  0  0  0  0
    1.1775  -11.2233    1.8407 C   0  0  2  0  0  0  0  0  0  0  0  0
    0.7252  -11.5870    0.5412 C   0  0  0  0  0  0  0  0  0  0  0  0
    0.5994  -13.0100    0.4511 O   0  0  0  0  0  0  0  0  0  0  0  0
    0.3611  -11.1490   -0.4504 O   0  0  0  0  0  0  0  0  0  0  0  0
    1.2580   -4.8064    1.7411 C   0  0  0  0  0  0  0  0  0  0  0  0
    1.2198   -3.3775    1.9559 C   0  0  0  0  0  0  0  0  0  0  0  0
    0.8867  -11.9927    2.8702 C   0  0  0  0  0  0  0  0  0  0  0  0
    2.1198  -12.6442    3.4977 C   0  0  0  0  0  0  0  0  0  0  0  0
    2.2946  -13.8144    2.5274 O   0  0  0  0  0  0  0  0  0  0  0  0
    2.0121   -2.9268    2.9354 C   0  0  0  0  0  0  0  0  0  0  0  0
    2.2495   -3.8446    4.0568 C   0  0  0  0  0  0  0  0  0  0  0  0
  6  7  1  0
  3  8  1  0
  8  9  1  0
  9 10  2  0
  9 11  1  0
  7 12  2  3
 12 13  1  0
  8 14  1  1
 14 15  1  0
 15 16  1  0
 13 17  2  3
 17 18  1  0
  1  2  2  0
  2  3  1  0
  3  4  2  0
  4  5  1  0
  5  6  2  0
  1  6  1  0
M  END

$$$$
No_1356-/export/home/yangzhenyu/potential_scad_32_flow//YTHDC2/2024-12-06-03-22-00/
     RDKit          3D

 19 21  0  0  0  0  0  0  0  0999 V2000
    1.1787   -8.0297    3.5154 C   0  0  0  0  0  0  0  0  0  0  0  0
    1.1048   -9.2215    3.2892 C   0  0  0  0  0  0  0  0  0  0  0  0
    1.3627  -10.1721    4.3044 C   0  0  0  0  0  0  0  0  0  0  0  0
    1.0682  -11.5187    4.0618 C   0  0  0  0  0  0  0  0  0  0  0  0
    0.6332  -11.9655    2.9682 C   0  0  0  0  0  0  0  0  0  0  0  0
    0.4776  -11.1308    1.9203 C   0  0  0  0  0  0  0  0  0  0  0  0
    0.7470   -9.8274    2.0368 C   0  0  0  0  0  0  0  0  0  0  0  0
    1.0387   -7.0301    2.5175 C   0  0  0  0  0  0  0  0  0  0  0  0
    0.9130   -7.5288    1.2013 C   0  0  0  0  0  0  0  0  0  0  0  0
    0.7893   -8.7979    0.9542 C   0  0  0  0  0  0  0  0  0  0  0  0
    0.5241   -9.2578   -0.2817 C   0  0  0  0  0  0  0  0  0  0  0  0
   -0.1121   -8.6523   -1.0898 O   0  0  0  0  0  0  0  0  0  0  0  0
    0.4916  -13.3676    2.6814 C   0  0  0  0  0  0  0  0  0  0  0  0
   -0.7278  -13.8133    2.2836 C   0  0  0  0  0  0  0  0  0  0  0  0
    1.5157  -14.3274    2.9052 C   0  0  0  0  0  0  0  0  0  0  0  0
    1.2329  -15.6704    2.7117 C   0  0  0  0  0  0  0  0  0  0  0  0
   -0.0720  -15.9541    2.5255 C   0  0  0  0  0  0  0  0  0  0  0  0
   -0.3666  -17.3765    2.5474 C   0  0  0  0  0  0  0  0  0  0  0  0
   -1.0243  -15.0833    2.2356 C   0  0  0  0  0  0  0  0  0  0  0  0
 10 11  1  0
 11 12  2  0
  5 13  1  0
 17 18  1  0
  2  3  1  0
  3  4  2  0
  4  5  1  0
  5  6  2  0
  6  7  1  0
 13 14  2  0
 14 19  1  0
 17 19  2  0
 16 17  1  0
 15 16  2  0
 13 15  1  0
  1  2  2  0
  2  7  1  0
  7 10  2  0
  9 10  1  0
  8  9  2  0
  1  8  1  0
M  END

$$$$
No_1357-/export/home/yangzhenyu/potential_scad_32_flow//YTHDC2/2024-12-06-03-22-00/
     RDKit          3D

 17 17  0  0  0  0  0  0  0  0999 V2000
    1.1787   -8.0297    3.5154 C   0  0  0  0  0  0  0  0  0  0  0  0
    1.0491   -6.8434    2.9820 C   0  0  0  0  0  0  0  0  0  0  0  0
    0.0950   -8.8404    3.2292 C   0  0  0  0  0  0  0  0  0  0  0  0
   -0.9173   -8.4596    2.5152 C   0  0  0  0  0  0  0  0  0  0  0  0
   -1.0331   -7.2162    2.0653 C   0  0  0  0  0  0  0  0  0  0  0  0
   -0.0105   -6.3168    2.3081 C   0  0  0  0  0  0  0  0  0  0  0  0
    0.1465  -10.2446    3.6981 C   0  0  0  0  0  0  0  0  0  0  0  0
    0.1907  -11.3369    2.8651 N   0  0  0  0  0  0  0  0  0  0  0  0
    0.4952  -12.6142    3.3024 C   0  0  0  0  0  0  0  0  0  0  0  0
    1.8580  -12.8702    3.5302 C   0  0  0  0  0  0  0  0  0  0  0  0
    0.0531   -4.7722    1.8118 C   0  0  0  0  0  0  0  0  0  0  0  0
    0.8982   -4.0153    2.3800 C   0  0  0  0  0  0  0  0  0  0  0  0
    2.1021  -14.2564    3.0591 C   0  0  0  0  0  0  0  0  0  0  0  0
    1.1654  -15.2334    3.0090 C   0  0  0  0  0  0  0  0  0  0  0  0
    1.4720  -16.5295    2.5986 C   0  0  0  0  0  0  0  0  0  0  0  0
    2.6276  -16.8684    2.1322 C   0  0  0  0  0  0  0  0  0  0  0  0
    0.8157  -17.6555    3.2734 C   0  0  0  0  0  0  0  0  0  0  0  0
  3  7  1  0
  7  8  1  0
  8  9  1  0
  9 10  1  0
  6 11  1  0
 11 12  2  0
 10 13  1  0
 13 14  1  0
 14 15  1  0
 15 16  1  0
 15 17  1  0
  1  2  2  0
  2  6  1  0
  5  6  2  0
  4  5  1  0
  3  4  2  0
  1  3  1  0
M  END

$$$$
No_1358-/export/home/yangzhenyu/potential_scad_32_flow//YTHDC2/2024-12-06-03-22-00/
     RDKit          3D

 19 19  0  0  0  0  0  0  0  0999 V2000
    1.1787   -8.0297    3.5154 C   0  0  0  0  0  0  0  0  0  0  0  0
    1.0491   -6.8434    2.9820 C   0  0  0  0  0  0  0  0  0  0  0  0
    0.9905   -9.0774    2.6527 C   0  0  0  0  0  0  0  0  0  0  0  0
    0.7897   -8.9519    1.3691 C   0  0  0  0  0  0  0  0  0  0  0  0
    0.7018   -7.7198    0.7892 C   0  0  0  0  0  0  0  0  0  0  0  0
    0.8918   -6.5957    1.6117 C   0  0  0  0  0  0  0  0  0  0  0  0
    1.0774  -10.6059    3.3145 C   0  0  0  0  0  0  0  0  0  0  0  0
    1.2215  -11.6205    2.4178 N   0  0  0  0  0  0  0  0  0  0  0  0
    1.8148  -11.6520    1.4485 C   0  0  0  0  0  0  0  0  0  0  0  0
    1.7077  -12.7265    0.5844 O   0  0  0  0  0  0  0  0  0  0  0  0
    0.9803  -10.6901    4.5795 C   0  0  0  0  0  0  0  0  0  0  0  0
    0.7943   -5.2759    1.1174 O   0  0  0  0  0  0  0  0  0  0  0  0
    0.3539   -4.2107    1.8093 C   0  0  0  0  0  0  0  0  0  0  0  0
    2.6515  -10.6143    0.9045 O   0  0  0  0  0  0  0  0  0  0  0  0
   -1.0293   -4.1035    1.8354 C   0  0  0  0  0  0  0  0  0  0  0  0
   -1.5446   -3.9161    3.0941 C   0  0  0  0  0  0  0  0  0  0  0  0
   -1.6771   -4.2390    0.6176 C   0  0  0  0  0  0  0  0  0  0  0  0
   -1.4961   -3.5685   -0.3868 C   0  0  0  0  0  0  0  0  0  0  0  0
   -2.0542   -3.8307   -1.6691 C   0  0  0  0  0  0  0  0  0  0  0  0
  3  7  1  0
  7  8  1  0
  8  9  1  0
  9 10  2  0
  7 11  1  0
  6 12  1  0
 12 13  1  0
  9 14  1  0
 13 15  1  0
 15 16  1  0
 15 17  1  0
 17 18  2  3
 18 19  1  0
  1  2  2  0
  2  6  1  0
  5  6  2  0
  4  5  1  0
  3  4  2  0
  1  3  1  0
M  END

$$$$
No_1359-/export/home/yangzhenyu/potential_scad_32_flow//YTHDC2/2024-12-06-03-22-00/
     RDKit          3D

 16 16  0  0  0  0  0  0  0  0999 V2000
    1.1787   -8.0297    3.5154 N   0  0  0  0  0  0  0  0  0  0  0  0
    0.8669   -7.0905    2.8589 C   0  0  0  0  0  0  0  0  0  0  0  0
    1.0447   -7.3244    1.4123 C   0  0  0  0  0  0  0  0  0  0  0  0
    1.3746   -8.4389    1.0864 C   0  0  0  0  0  0  0  0  0  0  0  0
    1.8493   -9.4093    1.8124 C   0  0  0  0  0  0  0  0  0  0  0  0
    1.7421   -9.2119    3.1541 C   0  0  0  0  0  0  0  0  0  0  0  0
    2.0083  -10.3048    4.0591 C   0  0  0  0  0  0  0  0  0  0  0  0
    1.9680  -11.5379    3.8671 C   0  0  0  0  0  0  0  0  0  0  0  0
    1.6688   -8.7110   -0.4990 C   0  0  0  0  0  0  0  0  0  0  0  0
    0.5916   -8.7493   -1.1028 O   0  0  0  0  0  0  0  0  0  0  0  0
    2.7635   -8.8910   -1.0162 O   0  0  0  0  0  0  0  0  0  0  0  0
    1.0252  -12.0953    3.0855 C   0  0  0  0  0  0  0  0  0  0  0  0
    1.0211  -13.4796    2.7196 C   0  0  0  0  0  0  0  0  0  0  0  0
    0.0253  -14.0439    2.0922 C   0  0  0  0  0  0  0  0  0  0  0  0
   -1.0139  -13.1480    1.7235 C   0  0  0  0  0  0  0  0  0  0  0  0
   -1.0467  -11.8583    1.8872 C   0  0  0  0  0  0  0  0  0  0  0  0
  6  7  1  0
  7  8  2  3
  4  9  1  0
  9 10  2  0
  9 11  1  0
  8 12  1  0
 12 13  2  3
 13 14  1  0
 14 15  2  3
 15 16  1  0
  1  2  2  0
  2  3  1  0
  3  4  2  0
  4  5  1  0
  5  6  2  0
  1  6  1  0
M  END

$$$$
No_1360-/export/home/yangzhenyu/potential_scad_32_flow//YTHDC2/2024-12-06-03-22-00/
     RDKit          3D

 20 20  0  0  1  0  0  0  0  0999 V2000
    1.1787   -8.0297    3.5154 C   0  0  2  0  0  0  0  0  0  0  0  0
    1.0491   -6.8434    2.9820 C   0  0  0  0  0  0  0  0  0  0  0  0
    1.9985   -8.9840    2.8958 F   0  0  0  0  0  0  0  0  0  0  0  0
    0.9777   -6.5940    1.8339 O   0  0  0  0  0  0  0  0  0  0  0  0
    1.8177   -5.7653    3.6690 O   0  0  0  0  0  0  0  0  0  0  0  0
   -0.1887   -8.5577    3.1766 C   0  0  0  0  0  0  0  0  0  0  0  0
   -0.8230   -8.6134    4.4636 C   0  0  0  0  0  0  0  0  0  0  0  0
   -1.4357   -9.7485    4.8107 C   0  0  0  0  0  0  0  0  0  0  0  0
   -2.7235   -9.9151    4.8017 C   0  0  0  0  0  0  0  0  0  0  0  0
   -3.3155  -11.1081    4.3644 C   0  0  0  0  0  0  0  0  0  0  0  0
   -2.5459  -11.9834    3.5467 C   0  0  0  0  0  0  0  0  0  0  0  0
   -1.1538  -11.8121    3.4495 C   0  0  0  0  0  0  0  0  0  0  0  0
   -0.3807  -12.7700    2.7511 C   0  0  0  0  0  0  0  0  0  0  0  0
   -1.0046  -13.7386    2.1502 C   0  0  0  0  0  0  0  0  0  0  0  0
   -2.2819  -13.9841    2.2927 C   0  0  0  0  0  0  0  0  0  0  0  0
   -3.0958  -13.0834    2.9353 C   0  0  0  0  0  0  0  0  0  0  0  0
   -4.6535  -11.2297    4.2990 O   0  0  0  0  0  0  0  0  0  0  0  0
   -0.2236  -14.7808    1.5348 C   0  0  0  0  0  0  0  0  0  0  0  0
    1.1154  -14.9918    1.7358 C   0  0  0  0  0  0  0  0  0  0  0  0
    1.7902  -16.0439    1.2613 C   0  0  0  0  0  0  0  0  0  0  0  0
  1  2  1  0
  1  3  1  6
  2  4  2  0
  2  5  1  0
  1  6  1  0
  6  7  1  0
  7  8  1  0
  8  9  1  0
  9 10  1  0
 10 11  1  0
 10 17  2  0
 14 18  1  0
 18 19  2  3
 19 20  1  0
 11 12  2  0
 12 13  1  0
 13 14  2  0
 14 15  1  0
 15 16  2  0
 11 16  1  0
M  END

$$$$
No_1361-/export/home/yangzhenyu/potential_scad_32_flow//YTHDC2/2024-12-06-03-22-00/
     RDKit          3D

 19 20  0  0  0  0  0  0  0  0999 V2000
    1.1787   -8.0297    3.5154 C   0  0  0  0  0  0  0  0  0  0  0  0
    1.0491   -6.8434    2.9820 N   0  0  0  0  0  0  0  0  0  0  0  0
    1.0164   -9.0814    2.6596 C   0  0  0  0  0  0  0  0  0  0  0  0
    1.2104  -10.4315    3.1393 C   0  0  0  0  0  0  0  0  0  0  0  0
    1.2712  -11.4473    2.5418 C   0  0  0  0  0  0  0  0  0  0  0  0
    1.0698  -11.4099    1.1312 C   0  0  0  0  0  0  0  0  0  0  0  0
    1.0238  -10.4099    0.5392 C   0  0  0  0  0  0  0  0  0  0  0  0
    0.9936   -9.0966    1.2408 C   0  0  0  0  0  0  0  0  0  0  0  0
    1.0670   -7.8514    0.7485 C   0  0  0  0  0  0  0  0  0  0  0  0
    1.1561   -6.7053    1.5645 C   0  0  0  0  0  0  0  0  0  0  0  0
    0.9616   -7.6346   -0.4688 O   0  0  0  0  0  0  0  0  0  0  0  0
    1.3768  -12.7922    3.1396 C   0  0  0  0  0  0  0  0  0  0  0  0
    2.4565  -13.5003    2.9547 O   0  0  0  0  0  0  0  0  0  0  0  0
    0.1570  -13.6585    2.7884 O   0  0  0  0  0  0  0  0  0  0  0  0
    1.1990   -5.4665    1.0918 O   0  0  0  0  0  0  0  0  0  0  0  0
    1.3536  -10.5116    4.6304 O   0  0  0  0  0  0  0  0  0  0  0  0
    1.2593   -5.6747    3.7351 C   0  0  0  0  0  0  0  0  0  0  0  0
    0.2349   -4.6759    3.7702 C   0  0  0  0  0  0  0  0  0  0  0  0
   -0.9922   -4.8928    3.6346 C   0  0  0  0  0  0  0  0  0  0  0  0
  1  2  1  0
  8  9  1  0
  2 10  1  0
  9 10  1  0
  9 11  2  0
  5 12  1  0
 12 13  1  0
 12 14  2  0
 10 15  2  0
  4 16  1  0
  2 17  1  0
 17 18  1  0
 18 19  2  0
  1  3  1  0
  3  4  2  0
  4  5  1  0
  5  6  2  0
  6  7  1  0
  7  8  2  0
  3  8  1  0
M  END

$$$$
No_1362-/export/home/yangzhenyu/potential_scad_32_flow//YTHDC2/2024-12-06-03-22-00/
     RDKit          3D

 19 21  0  0  1  0  0  0  0  0999 V2000
    1.1787   -8.0297    3.5154 C   0  0  0  0  0  0  0  0  0  0  0  0
    1.0491   -6.8434    2.9820 C   0  0  0  0  0  0  0  0  0  0  0  0
    0.2462   -8.9560    3.0873 C   0  0  0  0  0  0  0  0  0  0  0  0
    0.3295   -6.5187    1.9069 C   0  0  0  0  0  0  0  0  0  0  0  0
   -0.5260   -8.7862    2.1368 C   0  0  0  0  0  0  0  0  0  0  0  0
   -0.5458   -7.5614    1.5054 C   0  0  0  0  0  0  0  0  0  0  0  0
    0.3663  -10.3301    3.7373 C   0  0  0  0  0  0  0  0  0  0  0  0
    0.4170  -11.5175    2.8838 C   0  0  0  0  0  0  0  0  0  0  0  0
   -0.3838  -11.9594    2.2729 C   0  0  0  0  0  0  0  0  0  0  0  0
   -0.0461  -13.2053    1.5650 C   0  0  2  0  0  0  0  0  0  0  0  0
    1.3177  -13.7238    1.7175 S   0  0  0  0  0  0  0  0  0  0  0  0
    1.7223  -12.2452    2.8962 C   0  0  0  0  0  0  0  0  0  0  0  0
    0.3608   -5.2521    1.3378 C   0  0  0  0  0  0  0  0  0  0  0  0
   -0.5416   -4.7505    0.5753 C   0  0  0  0  0  0  0  0  0  0  0  0
   -1.1009   -3.6824    0.7591 C   0  0  0  0  0  0  0  0  0  0  0  0
   -0.3607   -2.6603    1.4845 C   0  0  0  0  0  0  0  0  0  0  0  0
    0.6548   -3.0142    2.2634 C   0  0  0  0  0  0  0  0  0  0  0  0
    1.1097   -4.3660    2.2495 C   0  0  0  0  0  0  0  0  0  0  0  0
   -0.8827  -13.8938    0.6779 C   0  0  0  0  0  0  0  0  0  0  0  0
  3  7  1  0
  7  8  1  0
  8  9  2  0
  9 10  1  0
 10 11  1  0
  8 12  1  0
 11 12  1  0
  4 13  1  0
 10 19  1  6
 13 14  2  0
 14 15  1  0
 15 16  2  0
 16 17  1  0
 17 18  2  0
 13 18  1  0
  1  2  2  0
  2  4  1  0
  4  6  2  0
  5  6  1  0
  3  5  2  0
  1  3  1  0
M  END

$$$$
No_1363-/export/home/yangzhenyu/potential_scad_32_flow//YTHDC2/2024-12-06-03-22-00/
     RDKit          3D

 18 18  0  0  0  0  0  0  0  0999 V2000
    1.1787   -8.0297    3.5154 C   0  0  0  0  0  0  0  0  0  0  0  0
    1.0491   -6.8434    2.9820 C   0  0  0  0  0  0  0  0  0  0  0  0
    0.9905   -9.0774    2.6527 C   0  0  0  0  0  0  0  0  0  0  0  0
    1.1655  -10.4663    3.1286 C   0  0  0  0  0  0  0  0  0  0  0  0
    1.2197  -11.4898    2.5831 C   0  0  0  0  0  0  0  0  0  0  0  0
    1.5411  -12.7330    3.1052 C   0  0  0  0  0  0  0  0  0  0  0  0
    0.6212   -6.5301    1.7066 C   0  0  0  0  0  0  0  0  0  0  0  0
    0.4208   -7.5365    0.9144 C   0  0  0  0  0  0  0  0  0  0  0  0
    0.5253   -8.8638    1.3136 C   0  0  0  0  0  0  0  0  0  0  0  0
    1.1045  -13.8685    2.5294 C   0  0  0  0  0  0  0  0  0  0  0  0
    1.6368  -15.1860    3.0329 C   0  0  0  0  0  0  0  0  0  0  0  0
    0.8817  -16.3267    2.8758 C   0  0  0  0  0  0  0  0  0  0  0  0
   -0.4215  -16.1594    2.5871 O   0  0  0  0  0  0  0  0  0  0  0  0
    1.3475  -17.5039    3.3850 O   0  0  0  0  0  0  0  0  0  0  0  0
    0.5267   -5.1993    1.2066 Cl  0  0  0  0  0  0  0  0  0  0  0  0
    1.4809  -10.4759    4.7726 C   0  0  0  0  0  0  0  0  0  0  0  0
    1.1811  -11.5569    1.1879 O   0  0  0  0  0  0  0  0  0  0  0  0
    1.7370  -11.6790    0.3537 C   0  0  0  0  0  0  0  0  0  0  0  0
  3  4  1  0
  4  5  2  3
  5  6  1  0
  6 10  1  0
 10 11  1  0
 11 12  1  0
 12 13  2  0
 12 14  1  0
  7 15  1  0
  4 16  1  0
  5 17  1  0
 17 18  1  0
  1  2  2  0
  2  7  1  0
  7  8  2  0
  8  9  1  0
  3  9  2  0
  1  3  1  0
M  END

$$$$
No_1364-/export/home/yangzhenyu/potential_scad_32_flow//YTHDC2/2024-12-06-03-22-00/
     RDKit          3D

 20 20  0  0  1  0  0  0  0  0999 V2000
    1.1787   -8.0297    3.5154 C   0  0  0  0  0  0  0  0  0  0  0  0
    1.1048   -9.2215    3.2892 C   0  0  0  0  0  0  0  0  0  0  0  0
    1.2339   -9.7611    2.0189 C   0  0  0  0  0  0  0  0  0  0  0  0
    1.1954  -11.2312    1.8661 C   0  0  0  0  0  0  0  0  0  0  0  0
    1.5546  -12.1691    2.7931 C   0  0  0  0  0  0  0  0  0  0  0  0
    0.9527   -7.0669    2.3918 C   0  0  0  0  0  0  0  0  0  0  0  0
    1.0618   -7.6392    1.0692 C   0  0  0  0  0  0  0  0  0  0  0  0
    1.2060   -8.9530    0.8578 C   0  0  0  0  0  0  0  0  0  0  0  0
    0.7976  -13.2804    2.9292 C   0  0  0  0  0  0  0  0  0  0  0  0
    1.4049  -14.5454    2.7697 C   0  0  1  0  0  0  0  0  0  0  0  0
    2.6385  -14.7434    2.3221 C   0  0  0  0  0  0  0  0  0  0  0  0
    0.5057  -15.6572    3.2573 C   0  0  0  0  0  0  0  0  0  0  0  0
    1.2062   -9.4524   -0.3553 C   0  0  0  0  0  0  0  0  0  0  0  0
    0.4158  -10.3929   -0.8063 O   0  0  0  0  0  0  0  0  0  0  0  0
    2.0866   -9.0252   -1.2045 O   0  0  0  0  0  0  0  0  0  0  0  0
    1.0336   -5.6173    2.5302 C   0  0  0  0  0  0  0  0  0  0  0  0
    0.4521   -4.8842    1.6183 O   0  0  0  0  0  0  0  0  0  0  0  0
    1.2869   -5.1279    3.7511 O   0  0  0  0  0  0  0  0  0  0  0  0
    1.1495  -16.9802    3.3162 C   0  0  0  0  0  0  0  0  0  0  0  0
    2.3778  -17.1620    2.8450 C   0  0  0  0  0  0  0  0  0  0  0  0
  3  4  1  0
  4  5  1  0
  5  9  1  0
  9 10  1  0
 10 11  1  1
 10 12  1  0
  8 13  1  0
 13 14  1  0
 13 15  2  0
  6 16  1  0
 16 17  2  0
 16 18  1  0
 12 19  2  3
 19 20  1  0
  1  2  2  0
  2  3  1  0
  3  8  2  0
  7  8  1  0
  6  7  2  0
  1  6  1  0
M  END

$$$$
No_1365-/export/home/yangzhenyu/potential_scad_32_flow//YTHDC2/2024-12-06-03-22-00/
     RDKit          3D

 18 19  0  0  0  0  0  0  0  0999 V2000
    1.1787   -8.0297    3.5154 C   0  0  0  0  0  0  0  0  0  0  0  0
    1.0491   -6.8434    2.9820 C   0  0  0  0  0  0  0  0  0  0  0  0
    1.9985   -8.9840    2.8958 C   0  0  0  0  0  0  0  0  0  0  0  0
    1.9135  -10.3404    3.6266 C   0  0  0  0  0  0  0  0  0  0  0  0
    1.3291  -11.3908    3.0222 C   0  0  0  0  0  0  0  0  0  0  0  0
    1.2749  -12.5326    3.7562 C   0  0  0  0  0  0  0  0  0  0  0  0
    0.4248   -6.6481    1.7861 C   0  0  0  0  0  0  0  0  0  0  0  0
    0.4186   -7.4786    1.0077 C   0  0  0  0  0  0  0  0  0  0  0  0
    0.7923  -13.6634    3.1270 C   0  0  0  0  0  0  0  0  0  0  0  0
    0.4633  -13.6746    1.8523 C   0  0  0  0  0  0  0  0  0  0  0  0
    0.5910  -12.6127    1.0903 C   0  0  0  0  0  0  0  0  0  0  0  0
    1.1058  -11.4527    1.6029 C   0  0  0  0  0  0  0  0  0  0  0  0
    1.1541  -10.3506    0.7757 C   0  0  0  0  0  0  0  0  0  0  0  0
    0.7618   -8.9331    0.3396 C   0  0  0  0  0  0  0  0  0  0  0  0
    0.2302   -9.0731   -0.9346 O   0  0  0  0  0  0  0  0  0  0  0  0
   -0.1135   -5.4871    1.4810 C   0  0  0  0  0  0  0  0  0  0  0  0
    2.2816  -10.5580   -0.0793 O   0  0  0  0  0  0  0  0  0  0  0  0
    0.6075  -14.8588    3.8744 O   0  0  0  0  0  0  0  0  0  0  0  0
  1  2  1  0
  1  3  1  0
  3  4  1  0
  4  5  1  0
  2  7  1  0
  7  8  1  0
 12 13  1  0
  8 14  1  0
 13 14  1  0
 14 15  2  0
  7 16  1  0
 13 17  2  0
  9 18  1  0
  5  6  2  0
  6  9  1  0
  9 10  2  0
 10 11  1  0
 11 12  2  0
  5 12  1  0
M  END

$$$$
No_1366-/export/home/yangzhenyu/potential_scad_32_flow//YTHDC2/2024-12-06-03-22-00/
     RDKit          3D

 19 19  0  0  1  0  0  0  0  0999 V2000
    1.1787   -8.0297    3.5154 C   0  0  0  0  0  0  0  0  0  0  0  0
    1.0491   -6.8434    2.9820 C   0  0  0  0  0  0  0  0  0  0  0  0
    0.9905   -9.0774    2.6527 C   0  0  2  0  0  0  0  0  0  0  0  0
    1.1655  -10.4663    3.1286 C   0  0  2  0  0  0  0  0  0  0  0  0
    1.7409  -10.6480    4.4599 C   0  0  0  0  0  0  0  0  0  0  0  0
    1.0486   -6.3431    1.8833 C   0  0  1  0  0  0  0  0  0  0  0  0
    0.8094   -7.4673    0.8674 C   0  0  0  0  0  0  0  0  0  0  0  0
    0.8523   -8.7792    1.1982 C   0  0  0  0  0  0  0  0  0  0  0  0
    0.9300  -11.4784    2.3258 C   0  0  1  0  0  0  0  0  0  0  0  0
    0.9405  -12.7818    3.0623 Cl  0  0  0  0  0  0  0  0  0  0  0  0
    0.5291  -11.4205    1.1258 C   0  0  0  0  0  0  0  0  0  0  0  0
    0.3024  -12.5239    0.4221 C   0  0  0  0  0  0  0  0  0  0  0  0
   -0.8743  -12.7119   -0.3547 C   0  0  0  0  0  0  0  0  0  0  0  0
   -1.6419  -11.6400   -0.5815 F   0  0  0  0  0  0  0  0  0  0  0  0
   -1.1987  -13.7156   -0.9063 O   0  0  0  0  0  0  0  0  0  0  0  0
    0.9193   -5.0852    1.3129 O   0  0  0  0  0  0  0  0  0  0  0  0
    3.0148  -11.1430    4.5754 N   0  0  0  0  0  0  0  0  0  0  0  0
    1.3212   -4.0913    2.2016 C   0  0  0  0  0  0  0  0  0  0  0  0
    0.7395   -7.1799   -0.3761 O   0  0  0  0  0  0  0  0  0  0  0  0
  1  2  1  0
  3  4  1  0
  4  5  1  6
  6  7  1  0
  3  8  1  6
  7  8  1  0
  4  9  1  0
  9 10  1  1
  9 11  1  0
 11 12  1  0
 12 13  2  3
 13 14  1  0
 13 15  1  0
  6 16  1  1
  5 17  1  0
 16 18  1  0
  7 19  2  0
  2  6  1  0
  1  3  1  0
M  END

$$$$
No_1367-/export/home/yangzhenyu/potential_scad_32_flow//YTHDC2/2024-12-06-03-22-00/
     RDKit          3D

 19 20  0  0  0  0  0  0  0  0999 V2000
    1.1787   -8.0297    3.5154 C   0  0  0  0  0  0  0  0  0  0  0  0
    1.0491   -6.8434    2.9820 C   0  0  0  0  0  0  0  0  0  0  0  0
    0.0950   -8.8404    3.2292 C   0  0  0  0  0  0  0  0  0  0  0  0
   -0.9173   -8.4596    2.5152 C   0  0  0  0  0  0  0  0  0  0  0  0
   -1.0331   -7.2162    2.0653 C   0  0  0  0  0  0  0  0  0  0  0  0
   -0.0105   -6.3168    2.3081 C   0  0  0  0  0  0  0  0  0  0  0  0
    0.1150   -4.9910    1.8495 C   0  0  0  0  0  0  0  0  0  0  0  0
   -0.5774   -4.1593    2.0596 N   0  0  0  0  0  0  0  0  0  0  0  0
    0.1680  -10.2877    3.7012 C   0  0  0  0  0  0  0  0  0  0  0  0
    1.2049  -10.9428    4.1094 C   0  0  0  0  0  0  0  0  0  0  0  0
    1.4999  -12.0960    3.6125 C   0  0  0  0  0  0  0  0  0  0  0  0
    0.8711  -12.6577    2.6836 C   0  0  0  0  0  0  0  0  0  0  0  0
   -0.4124  -12.0192    2.3190 C   0  0  0  0  0  0  0  0  0  0  0  0
   -0.7083  -10.8650    2.7661 C   0  0  0  0  0  0  0  0  0  0  0  0
    1.0365  -14.0683    2.3325 C   0  0  0  0  0  0  0  0  0  0  0  0
    0.5548  -15.0841    2.9494 C   0  0  0  0  0  0  0  0  0  0  0  0
    1.1570  -16.3484    2.7229 C   0  0  0  0  0  0  0  0  0  0  0  0
    2.2679  -16.5230    2.0698 C   0  0  0  0  0  0  0  0  0  0  0  0
    2.9542  -15.4195    1.5626 C   0  0  0  0  0  0  0  0  0  0  0  0
  6  7  1  0
  7  8  1  0
  3  9  1  0
 12 15  1  0
 15 16  1  0
 16 17  2  3
 17 18  1  0
 18 19  2  0
  1  2  2  0
  2  6  1  0
  5  6  2  0
  4  5  1  0
  3  4  2  0
  1  3  1  0
  9 10  2  0
 10 11  1  0
 11 12  2  0
 12 13  1  0
 13 14  2  0
  9 14  1  0
M  END

$$$$
No_1368-/export/home/yangzhenyu/potential_scad_32_flow//YTHDC2/2024-12-06-03-22-00/
     RDKit          3D

 18 19  0  0  0  0  0  0  0  0999 V2000
    1.1787   -8.0297    3.5154 C   0  0  0  0  0  0  0  0  0  0  0  0
    1.1048   -9.2215    3.2892 C   0  0  0  0  0  0  0  0  0  0  0  0
    1.3627  -10.1721    4.3044 C   0  0  0  0  0  0  0  0  0  0  0  0
    1.7354  -11.4730    3.9023 C   0  0  0  0  0  0  0  0  0  0  0  0
    1.8080  -11.8127    2.7216 C   0  0  0  0  0  0  0  0  0  0  0  0
    1.5854  -11.0021    1.7249 C   0  0  0  0  0  0  0  0  0  0  0  0
    1.3573   -9.7389    1.9287 C   0  0  0  0  0  0  0  0  0  0  0  0
    1.1102   -8.8712    0.9017 C   0  0  0  0  0  0  0  0  0  0  0  0
    0.5299   -7.6926    1.0325 C   0  0  0  0  0  0  0  0  0  0  0  0
    0.7526   -7.0802    2.3301 C   0  0  0  0  0  0  0  0  0  0  0  0
    2.1001  -13.4582    2.3997 C   0  0  0  0  0  0  0  0  0  0  0  0
    0.3604   -5.7455    2.5431 C   0  0  0  0  0  0  0  0  0  0  0  0
    0.7634   -4.8397    1.5363 C   0  0  0  0  0  0  0  0  0  0  0  0
    0.4375   -3.4178    1.6897 C   0  0  0  0  0  0  0  0  0  0  0  0
    2.8574  -13.7226    1.6979 O   0  0  0  0  0  0  0  0  0  0  0  0
    1.5890  -14.3323    3.2724 O   0  0  0  0  0  0  0  0  0  0  0  0
   -0.1032   -2.9162    0.5852 C   0  0  0  0  0  0  0  0  0  0  0  0
    0.2447   -1.5708    0.2028 O   0  0  0  0  0  0  0  0  0  0  0  0
  5 11  1  0
 10 12  1  0
 12 13  1  0
 13 14  1  0
 11 15  2  0
 11 16  1  0
 14 17  1  0
 17 18  1  0
  1  2  2  0
  7  8  2  0
  8  9  1  0
  9 10  2  0
  1 10  1  0
  2  3  1  0
  3  4  2  0
  4  5  1  0
  5  6  2  0
  6  7  1  0
  2  7  1  0
M  END

$$$$
No_1369-/export/home/yangzhenyu/potential_scad_32_flow//YTHDC2/2024-12-06-03-22-00/
     RDKit          3D

 20 22  0  0  1  0  0  0  0  0999 V2000
    1.1787   -8.0297    3.5154 C   0  0  0  0  0  0  0  0  0  0  0  0
    1.1048   -9.2215    3.2892 C   0  0  0  0  0  0  0  0  0  0  0  0
    1.3627  -10.1721    4.3044 C   0  0  0  0  0  0  0  0  0  0  0  0
    1.7354  -11.4730    3.9023 C   0  0  0  0  0  0  0  0  0  0  0  0
    1.6166  -11.5515    2.5159 C   0  0  1  0  0  0  0  0  0  0  0  0
    1.4080  -10.1475    2.0704 C   0  0  0  0  0  0  0  0  0  0  0  0
    1.0837   -7.1462    2.2374 C   0  0  0  0  0  0  0  0  0  0  0  0
    1.3901   -7.8684    1.0270 C   0  0  0  0  0  0  0  0  0  0  0  0
    1.5319   -9.2097    0.9492 C   0  0  0  0  0  0  0  0  0  0  0  0
    1.8495  -12.4564    1.7010 C   0  0  0  0  0  0  0  0  0  0  0  0
    1.0228   -5.7222    2.2441 C   0  0  0  0  0  0  0  0  0  0  0  0
    1.1933  -13.3760    1.3776 C   0  0  0  0  0  0  0  0  0  0  0  0
   -0.0744  -13.3791    2.0113 C   0  0  0  0  0  0  0  0  0  0  0  0
   -1.0186  -14.5274    2.0042 C   0  0  0  0  0  0  0  0  0  0  0  0
   -2.1762  -14.3295    2.6558 C   0  0  0  0  0  0  0  0  0  0  0  0
   -2.6141  -13.0112    2.8004 C   0  0  0  0  0  0  0  0  0  0  0  0
   -1.8755  -11.8913    2.7064 C   0  0  0  0  0  0  0  0  0  0  0  0
   -0.5498  -12.0115    2.1858 C   0  0  0  0  0  0  0  0  0  0  0  0
   -2.4016  -10.6973    3.1677 C   0  0  0  0  0  0  0  0  0  0  0  0
   -2.3723  -10.3163    4.5681 C   0  0  0  0  0  0  0  0  0  0  0  0
  2  3  1  0
  3  4  2  0
  4  5  1  0
  5  6  1  0
  5 10  1  6
  7 11  1  0
 10 12  2  3
 12 13  1  0
 17 19  1  0
 19 20  1  0
  1  2  2  0
  2  6  1  0
  6  9  2  0
  8  9  1  0
  7  8  2  0
  1  7  1  0
 13 14  2  0
 14 15  1  0
 15 16  2  0
 16 17  1  0
 17 18  2  0
 13 18  1  0
M  END

$$$$
No_1370-/export/home/yangzhenyu/potential_scad_32_flow//YTHDC2/2024-12-06-03-22-00/
     RDKit          3D

 19 20  0  0  1  0  0  0  0  0999 V2000
    1.1787   -8.0297    3.5154 C   0  0  0  0  0  0  0  0  0  0  0  0
    1.0491   -6.8434    2.9820 C   0  0  0  0  0  0  0  0  0  0  0  0
    0.9905   -9.0774    2.6527 C   0  0  0  0  0  0  0  0  0  0  0  0
    0.7897   -8.9519    1.3691 C   0  0  0  0  0  0  0  0  0  0  0  0
    0.7018   -7.7198    0.7892 C   0  0  0  0  0  0  0  0  0  0  0  0
    0.8918   -6.5957    1.6117 C   0  0  0  0  0  0  0  0  0  0  0  0
    1.0711  -10.4814    3.2282 C   0  0  0  0  0  0  0  0  0  0  0  0
    1.1227  -11.5770    2.4616 C   0  0  0  0  0  0  0  0  0  0  0  0
    1.1500  -12.9052    3.0782 C   0  0  0  0  0  0  0  0  0  0  0  0
    0.6702  -13.9897    2.4998 C   0  0  2  0  0  0  0  0  0  0  0  0
    1.0009  -15.3315    3.2443 C   0  0  0  0  0  0  0  0  0  0  0  0
    0.9853  -16.4905    2.5086 C   0  0  0  0  0  0  0  0  0  0  0  0
    0.8408   -5.2757    1.1542 C   0  0  0  0  0  0  0  0  0  0  0  0
    0.4999  -16.4792    1.3844 C   0  0  0  0  0  0  0  0  0  0  0  0
    0.2314  -15.4027    0.6182 C   0  0  0  0  0  0  0  0  0  0  0  0
    0.2758  -14.1278    1.1255 C   0  0  0  0  0  0  0  0  0  0  0  0
   -0.1188  -15.5401   -0.7137 C   0  0  0  0  0  0  0  0  0  0  0  0
    0.5162  -16.4890   -1.5361 C   0  0  0  0  0  0  0  0  0  0  0  0
    0.0510  -16.6116   -2.8398 C   0  0  0  0  0  0  0  0  0  0  0  0
  3  7  1  0
  7  8  2  3
  8  9  1  0
 10  9  1  6
 10 11  1  0
 11 12  1  0
  6 13  1  0
 12 14  1  0
 14 15  1  0
 10 16  1  0
 15 16  1  0
 15 17  1  0
 17 18  2  3
 18 19  1  0
  1  2  2  0
  2  6  1  0
  5  6  2  0
  4  5  1  0
  3  4  2  0
  1  3  1  0
M  END

$$$$
No_1371-/export/home/yangzhenyu/potential_scad_32_flow//YTHDC2/2024-12-06-03-22-00/
     RDKit          3D

 19 20  0  0  1  0  0  0  0  0999 V2000
    1.1787   -8.0297    3.5154 C   0  0  0  0  0  0  0  0  0  0  0  0
    1.1048   -9.2215    3.2892 C   0  0  0  0  0  0  0  0  0  0  0  0
    1.2339   -9.7611    2.0189 C   0  0  0  0  0  0  0  0  0  0  0  0
    1.3583   -9.0036    0.9764 C   0  0  0  0  0  0  0  0  0  0  0  0
    1.5996   -7.6362    1.1311 C   0  0  0  0  0  0  0  0  0  0  0  0
    1.4830   -7.0928    2.3626 C   0  0  0  0  0  0  0  0  0  0  0  0
    1.1008  -11.2372    1.8542 C   0  0  0  0  0  0  0  0  0  0  0  0
    1.9749  -12.0938    2.2342 C   0  0  0  0  0  0  0  0  0  0  0  0
    1.5180  -13.3509    2.5910 C   0  0  2  0  0  0  0  0  0  0  0  0
    0.4053  -13.4434    3.4089 C   0  0  0  0  0  0  0  0  0  0  0  0
    0.1718  -14.9668    3.4297 C   0  0  0  0  0  0  0  0  0  0  0  0
    0.7637  -15.9833    3.0682 C   0  0  0  0  0  0  0  0  0  0  0  0
    2.0008  -15.7464    2.3840 C   0  0  0  0  0  0  0  0  0  0  0  0
    2.4553  -14.4334    2.1316 C   0  0  0  0  0  0  0  0  0  0  0  0
    1.5649   -5.4749    2.7466 O   0  0  0  0  0  0  0  0  0  0  0  0
    0.1323  -11.5587    0.9221 O   0  0  0  0  0  0  0  0  0  0  0  0
    3.3924  -14.1392    1.3776 O   0  0  0  0  0  0  0  0  0  0  0  0
    1.6319   -9.3991   -0.3135 C   0  0  0  0  0  0  0  0  0  0  0  0
    2.4155   -9.9663   -0.7041 O   0  0  0  0  0  0  0  0  0  0  0  0
  3  7  1  0
  7  8  1  0
  9  8  1  1
  9 10  1  0
 11 12  1  0
  9 14  1  0
 13 14  1  0
  6 15  1  0
  7 16  2  0
 14 17  2  0
  4 18  1  0
 18 19  2  0
 10 11  1  0
 12 13  1  0
  1  2  2  0
  2  3  1  0
  3  4  2  0
  4  5  1  0
  5  6  2  0
  1  6  1  0
M  END

$$$$
No_1372-/export/home/yangzhenyu/potential_scad_32_flow//YTHDC2/2024-12-06-03-22-00/
     RDKit          3D

 22 24  0  0  1  0  0  0  0  0999 V2000
    1.1787   -8.0297    3.5154 C   0  0  0  0  0  0  0  0  0  0  0  0
    1.1048   -9.2215    3.2892 C   0  0  0  0  0  0  0  0  0  0  0  0
    1.2339   -9.7611    2.0189 C   0  0  0  0  0  0  0  0  0  0  0  0
    1.1954  -11.2312    1.8661 C   0  0  2  0  0  0  0  0  0  0  0  0
    1.5546  -12.1691    2.7931 C   0  0  0  0  0  0  0  0  0  0  0  0
    0.9527   -7.0669    2.3918 C   0  0  0  0  0  0  0  0  0  0  0  0
    1.0618   -7.6392    1.0692 C   0  0  0  0  0  0  0  0  0  0  0  0
    1.2060   -8.9530    0.8578 C   0  0  0  0  0  0  0  0  0  0  0  0
    1.5110  -13.5006    2.3856 N   0  0  0  0  0  0  0  0  0  0  0  0
    0.9879   -5.4337    2.4919 C   0  0  1  0  0  0  0  0  0  0  0  0
    1.2395  -13.7067    1.1287 C   0  0  0  0  0  0  0  0  0  0  0  0
    1.0433  -12.1706    0.6247 C   0  0  0  0  0  0  0  0  0  0  0  0
    1.8780  -11.8507    4.0668 O   0  0  0  0  0  0  0  0  0  0  0  0
    1.6943   -5.1432    3.5189 C   0  0  0  0  0  0  0  0  0  0  0  0
    1.4690   -3.6738    3.5705 O   0  0  0  0  0  0  0  0  0  0  0  0
    0.5602   -4.7441    1.5449 C   0  0  0  0  0  0  0  0  0  0  0  0
    0.3685   -3.7627    1.7748 C   0  0  0  0  0  0  0  0  0  0  0  0
   -0.2295   -2.8056    0.6520 C   0  0  0  0  0  0  0  0  0  0  0  0
    0.6397   -2.9335    2.9020 C   0  0  0  0  0  0  0  0  0  0  0  0
   -1.3392   -3.0995   -0.0515 C   0  0  0  0  0  0  0  0  0  0  0  0
   -1.3106   -3.3239   -1.3399 C   0  0  0  0  0  0  0  0  0  0  0  0
   -1.6928   -4.4734   -1.8394 C   0  0  0  0  0  0  0  0  0  0  0  0
  4  3  1  6
  4  5  1  0
  5  9  1  0
 10  6  1  6
  9 11  2  0
  4 12  1  0
 11 12  1  0
  5 13  2  0
 10 14  1  0
 14 15  1  0
 10 16  1  0
 16 17  2  0
 17 18  1  0
 15 19  1  0
 17 19  1  0
 18 20  1  0
 20 21  1  0
 21 22  1  0
  1  2  2  0
  2  3  1  0
  3  8  2  0
  7  8  1  0
  6  7  2  0
  1  6  1  0
M  END

$$$$
No_1373-/export/home/yangzhenyu/potential_scad_32_flow//YTHDC2/2024-12-06-03-22-00/
     RDKit          3D

 19 19  0  0  1  0  0  0  0  0999 V2000
    1.1787   -8.0297    3.5154 C   0  0  0  0  0  0  0  0  0  0  0  0
    1.0491   -6.8434    2.9820 C   0  0  0  0  0  0  0  0  0  0  0  0
    0.0950   -8.8404    3.2292 C   0  0  0  0  0  0  0  0  0  0  0  0
   -0.9173   -8.4596    2.5152 C   0  0  0  0  0  0  0  0  0  0  0  0
   -1.0331   -7.2162    2.0653 C   0  0  0  0  0  0  0  0  0  0  0  0
   -0.0105   -6.3168    2.3081 C   0  0  0  0  0  0  0  0  0  0  0  0
    0.1150   -4.9910    1.8495 C   0  0  0  0  0  0  0  0  0  0  0  0
   -0.1376   -4.7952    0.5550 O   0  0  0  0  0  0  0  0  0  0  0  0
    0.5335   -3.9179    2.6070 O   0  0  0  0  0  0  0  0  0  0  0  0
    0.1741  -10.2931    3.6285 C   0  0  0  0  0  0  0  0  0  0  0  0
    0.3152  -11.3467    2.7856 C   0  0  1  0  0  0  0  0  0  0  0  0
    0.5927  -11.1909    1.7111 C   0  0  0  0  0  0  0  0  0  0  0  0
    2.0339  -10.8223    1.3014 C   0  0  0  0  0  0  0  0  0  0  0  0
    2.2317  -10.0728    0.2274 O   0  0  0  0  0  0  0  0  0  0  0  0
    0.2577  -12.5699    3.4027 C   0  0  0  0  0  0  0  0  0  0  0  0
    0.8767  -13.5375    2.7052 C   0  0  0  0  0  0  0  0  0  0  0  0
    0.3189  -14.5050    2.0245 C   0  0  0  0  0  0  0  0  0  0  0  0
   -0.8860  -14.6259    1.9642 C   0  0  0  0  0  0  0  0  0  0  0  0
   -1.2666  -15.7180    1.1879 O   0  0  0  0  0  0  0  0  0  0  0  0
  6  7  1  0
  7  8  2  0
  7  9  1  0
  3 10  1  0
 11 10  1  1
 11 12  1  0
 12 13  1  0
 13 14  1  0
 11 15  1  0
 15 16  1  0
 16 17  1  0
 17 18  1  0
 18 19  1  0
  1  2  2  0
  2  6  1  0
  5  6  2  0
  4  5  1  0
  3  4  2  0
  1  3  1  0
M  END

$$$$
No_1374-/export/home/yangzhenyu/potential_scad_32_flow//YTHDC2/2024-12-06-03-22-00/
     RDKit          3D

 18 19  0  0  1  0  0  0  0  0999 V2000
    1.1787   -8.0297    3.5154 C   0  0  0  0  0  0  0  0  0  0  0  0
    1.0491   -6.8434    2.9820 C   0  0  0  0  0  0  0  0  0  0  0  0
    0.9905   -9.0774    2.6527 C   0  0  0  0  0  0  0  0  0  0  0  0
    0.7897   -8.9519    1.3691 C   0  0  0  0  0  0  0  0  0  0  0  0
    0.7018   -7.7198    0.7892 C   0  0  0  0  0  0  0  0  0  0  0  0
    0.8918   -6.5957    1.6117 C   0  0  0  0  0  0  0  0  0  0  0  0
    1.0711  -10.4814    3.2282 C   0  0  0  0  0  0  0  0  0  0  0  0
    1.1227  -11.5770    2.4616 C   0  0  1  0  0  0  0  0  0  0  0  0
    1.0412  -11.3415    1.0713 C   0  0  0  0  0  0  0  0  0  0  0  0
    1.0019  -10.1422    0.5249 C   0  0  0  0  0  0  0  0  0  0  0  0
    1.3198  -12.8659    2.9879 C   0  0  0  0  0  0  0  0  0  0  0  0
    2.3980  -13.4966    3.0643 C   0  0  0  0  0  0  0  0  0  0  0  0
    0.7387   -5.0759    1.0420 O   0  0  0  0  0  0  0  0  0  0  0  0
    2.1615  -14.9933    2.8046 N   0  0  0  0  0  0  0  0  0  0  0  0
    1.4195  -15.4441    2.2128 O   0  0  0  0  0  0  0  0  0  0  0  0
    1.0424  -12.3532    0.1869 O   0  0  0  0  0  0  0  0  0  0  0  0
    1.3667   -4.1908    1.7689 C   0  0  0  0  0  0  0  0  0  0  0  0
    0.7830   -9.9527   -0.8175 O   0  0  0  0  0  0  0  0  0  0  0  0
  3  7  1  0
  8  9  1  0
  4 10  1  0
  9 10  1  0
  8 11  1  6
 11 12  1  0
  6 13  1  0
 12 14  1  0
 14 15  2  0
  9 16  2  0
 13 17  1  0
 10 18  2  0
  7  8  1  0
  1  2  2  0
  2  6  1  0
  5  6  2  0
  4  5  1  0
  3  4  2  0
  1  3  1  0
M  END

$$$$
No_1375-/export/home/yangzhenyu/potential_scad_32_flow//YTHDC2/2024-12-06-03-22-00/
     RDKit          3D

 19 21  0  0  0  0  0  0  0  0999 V2000
    1.1787   -8.0297    3.5154 C   0  0  0  0  0  0  0  0  0  0  0  0
    1.0491   -6.8434    2.9820 C   0  0  0  0  0  0  0  0  0  0  0  0
    0.0950   -8.8404    3.2292 C   0  0  0  0  0  0  0  0  0  0  0  0
   -0.9173   -8.4596    2.5152 C   0  0  0  0  0  0  0  0  0  0  0  0
   -1.0331   -7.2162    2.0653 C   0  0  0  0  0  0  0  0  0  0  0  0
   -0.0105   -6.3168    2.3081 C   0  0  0  0  0  0  0  0  0  0  0  0
    0.1465  -10.2446    3.6981 C   0  0  0  0  0  0  0  0  0  0  0  0
   -1.0336  -10.8619    3.9439 C   0  0  0  0  0  0  0  0  0  0  0  0
   -2.1702  -10.4673    3.2991 C   0  0  0  0  0  0  0  0  0  0  0  0
   -2.1358   -9.2084    2.5791 C   0  0  0  0  0  0  0  0  0  0  0  0
   -0.0074   -4.7440    1.7754 C   0  0  0  0  0  0  0  0  0  0  0  0
   -0.8759   -4.0594    2.3036 C   0  0  0  0  0  0  0  0  0  0  0  0
   -2.1050   -4.2234    2.3286 C   0  0  0  0  0  0  0  0  0  0  0  0
   -2.9784   -3.5561    3.1760 C   0  0  0  0  0  0  0  0  0  0  0  0
   -2.3932   -2.3890    3.9581 C   0  0  0  0  0  0  0  0  0  0  0  0
   -1.1001   -2.1509    3.8618 C   0  0  0  0  0  0  0  0  0  0  0  0
   -0.2446   -2.9396    3.1521 C   0  0  0  0  0  0  0  0  0  0  0  0
    1.2982  -10.7145    4.5483 Cl  0  0  0  0  0  0  0  0  0  0  0  0
    1.0698   -2.5540    3.1171 C   0  0  0  0  0  0  0  0  0  0  0  0
  6 11  1  0
 11 12  1  0
  7 18  1  0
 17 19  1  0
 12 13  2  0
 13 14  1  0
 14 15  2  0
 15 16  1  0
 16 17  2  0
 12 17  1  0
  4 10  2  0
  9 10  1  0
  8  9  2  0
  7  8  1  0
  3  7  2  0
  1  2  2  0
  2  6  1  0
  5  6  2  0
  4  5  1  0
  3  4  1  0
  1  3  1  0
M  END

$$$$
No_1376-/export/home/yangzhenyu/potential_scad_32_flow//YTHDC2/2024-12-06-03-22-00/
     RDKit          3D

 17 17  0  0  1  0  0  0  0  0999 V2000
    1.1787   -8.0297    3.5154 C   0  0  0  0  0  0  0  0  0  0  0  0
    1.0491   -6.8434    2.9820 C   0  0  0  0  0  0  0  0  0  0  0  0
    0.9905   -9.0774    2.6527 C   0  0  0  0  0  0  0  0  0  0  0  0
    0.7897   -8.9519    1.3691 C   0  0  0  0  0  0  0  0  0  0  0  0
    0.7018   -7.7198    0.7892 C   0  0  0  0  0  0  0  0  0  0  0  0
    0.8918   -6.5957    1.6117 C   0  0  0  0  0  0  0  0  0  0  0  0
    1.0711  -10.4814    3.2282 C   0  0  1  0  0  0  0  0  0  0  0  0
    2.1432  -11.0138    3.5962 N   0  0  0  0  0  0  0  0  0  0  0  0
   -0.0625  -10.7716    4.0562 C   0  0  0  0  0  0  0  0  0  0  0  0
   -0.3098  -12.0667    4.1502 O   0  0  0  0  0  0  0  0  0  0  0  0
   -0.8592   -9.8737    4.5774 O   0  0  0  0  0  0  0  0  0  0  0  0
    0.8629   -5.2735    1.1218 Cl  0  0  0  0  0  0  0  0  0  0  0  0
    0.6531  -10.1013    0.4327 C   0  0  0  0  0  0  0  0  0  0  0  0
   -0.4261  -10.3631   -0.0555 O   0  0  0  0  0  0  0  0  0  0  0  0
    1.7862  -10.7243    0.1688 O   0  0  0  0  0  0  0  0  0  0  0  0
   -2.2153   -9.8923    4.6236 C   0  0  0  0  0  0  0  0  0  0  0  0
   -2.8787   -9.2187    5.5385 C   0  0  0  0  0  0  0  0  0  0  0  0
  3  7  1  0
  7  8  1  1
  7  9  1  0
  9 10  2  0
  9 11  1  0
  6 12  1  0
  4 13  1  0
 13 14  2  0
 13 15  1  0
 11 16  1  0
 16 17  1  0
  1  2  2  0
  2  6  1  0
  5  6  2  0
  4  5  1  0
  3  4  2  0
  1  3  1  0
M  END

$$$$
No_1377-/export/home/yangzhenyu/potential_scad_32_flow//YTHDC2/2024-12-06-03-22-00/
     RDKit          3D

 17 19  0  0  1  0  0  0  0  0999 V2000
    1.1787   -8.0297    3.5154 C   0  0  0  0  0  0  0  0  0  0  0  0
    1.1048   -9.2215    3.2892 C   0  0  0  0  0  0  0  0  0  0  0  0
    1.4683  -10.2314    4.1915 C   0  0  0  0  0  0  0  0  0  0  0  0
    0.8445   -6.9865    2.5175 C   0  0  0  0  0  0  0  0  0  0  0  0
    0.3587   -7.3973    1.3953 C   0  0  0  0  0  0  0  0  0  0  0  0
    0.1901   -8.6971    1.0711 C   0  0  0  0  0  0  0  0  0  0  0  0
    0.5759   -9.6648    1.9442 C   0  0  0  0  0  0  0  0  0  0  0  0
    0.6934  -11.4709    4.1321 C   0  0  0  0  0  0  0  0  0  0  0  0
    0.3760  -11.9548    2.8946 C   0  0  1  0  0  0  0  0  0  0  0  0
    0.7859  -11.5666    1.8815 N   0  0  0  0  0  0  0  0  0  0  0  0
    0.5111  -10.5251    1.2680 C   0  0  0  0  0  0  0  0  0  0  0  0
    0.0952   -9.3470   -0.0351 N   0  0  0  0  0  0  0  0  0  0  0  0
    0.1491  -10.4967    0.0723 C   0  0  0  0  0  0  0  0  0  0  0  0
    0.3548  -13.4971    3.1836 C   0  0  0  0  0  0  0  0  0  0  0  0
    1.3944  -14.1706    3.8205 O   0  0  0  0  0  0  0  0  0  0  0  0
   -0.5371  -14.2558    2.6525 O   0  0  0  0  0  0  0  0  0  0  0  0
   -0.6353  -11.3720   -0.5864 O   0  0  0  0  0  0  0  0  0  0  0  0
  2  3  1  0
  3  8  1  0
  8  9  1  0
  9 10  1  0
  7 11  1  0
 10 11  1  0
  6 12  1  0
 11 13  1  0
 12 13  1  0
  9 14  1  1
 14 15  2  0
 14 16  1  0
 13 17  2  0
  1  2  2  0
  2  7  1  0
  6  7  2  0
  5  6  1  0
  4  5  2  0
  1  4  1  0
M  END

$$$$
No_1378-/export/home/yangzhenyu/potential_scad_32_flow//YTHDC2/2024-12-06-03-22-00/
     RDKit          3D

 19 20  0  0  0  0  0  0  0  0999 V2000
    1.1787   -8.0297    3.5154 C   0  0  0  0  0  0  0  0  0  0  0  0
    1.0491   -6.8434    2.9820 C   0  0  0  0  0  0  0  0  0  0  0  0
    0.9905   -9.0774    2.6527 C   0  0  0  0  0  0  0  0  0  0  0  0
    0.7897   -8.9519    1.3691 C   0  0  0  0  0  0  0  0  0  0  0  0
    0.7018   -7.7198    0.7892 C   0  0  0  0  0  0  0  0  0  0  0  0
    1.4312   -5.5794    3.7443 Cl  0  0  0  0  0  0  0  0  0  0  0  0
    0.9313   -6.7257    1.5340 C   0  0  0  0  0  0  0  0  0  0  0  0
    1.0338  -10.6940    3.3481 C   0  0  0  0  0  0  0  0  0  0  0  0
   -0.1111  -11.2427    3.4474 C   0  0  0  0  0  0  0  0  0  0  0  0
   -0.1381  -12.5635    3.2547 C   0  0  0  0  0  0  0  0  0  0  0  0
    1.1242  -13.3134    3.1575 C   0  0  0  0  0  0  0  0  0  0  0  0
    2.3289  -12.5654    2.9701 C   0  0  0  0  0  0  0  0  0  0  0  0
    2.2601  -11.2367    2.9742 C   0  0  0  0  0  0  0  0  0  0  0  0
    1.1038  -14.7065    3.1048 C   0  0  0  0  0  0  0  0  0  0  0  0
    2.1188  -15.3936    2.6270 C   0  0  0  0  0  0  0  0  0  0  0  0
    3.0078  -14.9232    1.7487 C   0  0  0  0  0  0  0  0  0  0  0  0
    2.0782  -16.8854    2.6813 C   0  0  0  0  0  0  0  0  0  0  0  0
    3.3052  -17.4948    2.1377 O   0  0  0  0  0  0  0  0  0  0  0  0
    1.2334  -17.6642    3.1993 C   0  0  0  0  0  0  0  0  0  0  0  0
  2  6  1  0
  3  8  1  0
 11 14  1  0
 14 15  1  0
 15 16  2  0
 15 17  1  0
 17 18  2  0
 17 19  1  0
  1  2  2  0
  2  7  1  0
  5  7  2  0
  4  5  1  0
  3  4  2  0
  1  3  1  0
  8  9  2  0
  9 10  1  0
 10 11  2  0
 11 12  1  0
 12 13  2  0
  8 13  1  0
M  END

$$$$
No_1379-/export/home/yangzhenyu/potential_scad_32_flow//YTHDC2/2024-12-06-03-22-00/
     RDKit          3D

 19 20  0  0  0  0  0  0  0  0999 V2000
    1.1787   -8.0297    3.5154 C   0  0  0  0  0  0  0  0  0  0  0  0
    1.0491   -6.8434    2.9820 C   0  0  0  0  0  0  0  0  0  0  0  0
    0.0950   -8.8404    3.2292 C   0  0  0  0  0  0  0  0  0  0  0  0
   -0.9173   -8.4596    2.5152 C   0  0  0  0  0  0  0  0  0  0  0  0
   -1.0331   -7.2162    2.0653 C   0  0  0  0  0  0  0  0  0  0  0  0
   -0.0105   -6.3168    2.3081 C   0  0  0  0  0  0  0  0  0  0  0  0
    0.1465  -10.2446    3.6981 C   0  0  0  0  0  0  0  0  0  0  0  0
   -1.0337  -10.8619    3.9439 C   0  0  0  0  0  0  0  0  0  0  0  0
   -0.8576  -12.3101    4.1964 C   0  0  0  0  0  0  0  0  0  0  0  0
    0.3452  -12.8753    3.9453 C   0  0  0  0  0  0  0  0  0  0  0  0
    1.4894  -12.1495    3.5975 C   0  0  0  0  0  0  0  0  0  0  0  0
    1.3815  -10.8365    3.4146 C   0  0  0  0  0  0  0  0  0  0  0  0
   -0.0044   -4.8015    1.7482 I   0  0  0  0  0  0  0  0  0  0  0  0
    0.4403  -14.2407    4.1336 C   0  0  0  0  0  0  0  0  0  0  0  0
    1.4634  -14.9260    3.3429 O   0  0  0  0  0  0  0  0  0  0  0  0
   -0.2578  -15.0679    4.5666 O   0  0  0  0  0  0  0  0  0  0  0  0
    2.5387  -10.2217    2.8908 Cl  0  0  0  0  0  0  0  0  0  0  0  0
   -2.1959   -6.7978    1.3965 O   0  0  0  0  0  0  0  0  0  0  0  0
   -3.0258   -7.5904    0.9532 C   0  0  0  0  0  0  0  0  0  0  0  0
  3  7  1  0
  6 13  1  0
 10 14  1  0
 14 15  2  0
 14 16  1  0
 12 17  1  0
  5 18  1  0
 18 19  1  0
  1  2  2  0
  2  6  1  0
  5  6  2  0
  4  5  1  0
  3  4  2  0
  1  3  1  0
  7  8  2  0
  8  9  1  0
  9 10  2  0
 10 11  1  0
 11 12  2  0
  7 12  1  0
M  END

$$$$
No_1380-/export/home/yangzhenyu/potential_scad_32_flow//YTHDC2/2024-12-06-03-22-00/
     RDKit          3D

 19 20  0  0  0  0  0  0  0  0999 V2000
    1.1787   -8.0297    3.5154 O   0  0  0  0  0  0  0  0  0  0  0  0
    0.6747   -7.4019    2.7838 C   0  0  0  0  0  0  0  0  0  0  0  0
    0.7594   -8.0032    1.4295 C   0  0  0  0  0  0  0  0  0  0  0  0
    0.3459   -9.1500    1.3581 C   0  0  0  0  0  0  0  0  0  0  0  0
    0.9461   -9.9230    0.3350 C   0  0  0  0  0  0  0  0  0  0  0  0
    0.6395  -11.0790    0.1456 C   0  0  0  0  0  0  0  0  0  0  0  0
   -0.2222  -11.7817    1.0405 C   0  0  0  0  0  0  0  0  0  0  0  0
   -0.7746  -11.0946    2.1431 C   0  0  0  0  0  0  0  0  0  0  0  0
   -0.3992   -9.7826    2.3137 C   0  0  0  0  0  0  0  0  0  0  0  0
    1.2017   -7.0779    0.5663 O   0  0  0  0  0  0  0  0  0  0  0  0
    0.3286   -6.1829    3.1332 O   0  0  0  0  0  0  0  0  0  0  0  0
   -0.5420  -13.1570    0.8738 C   0  0  0  0  0  0  0  0  0  0  0  0
   -1.4094  -13.5671    0.0906 C   0  0  0  0  0  0  0  0  0  0  0  0
   -1.4106  -15.0110   -0.2109 C   0  0  0  0  0  0  0  0  0  0  0  0
   -0.6368  -15.8422    0.4269 C   0  0  0  0  0  0  0  0  0  0  0  0
    0.4056  -15.4604    1.2257 C   0  0  0  0  0  0  0  0  0  0  0  0
    0.5591  -14.1245    1.4827 C   0  0  0  0  0  0  0  0  0  0  0  0
    1.5192  -13.5771    2.3762 C   0  0  0  0  0  0  0  0  0  0  0  0
    1.2378  -13.0301    3.5682 C   0  0  0  0  0  0  0  0  0  0  0  0
  1  2  1  0
  2  3  1  0
  3  4  1  0
  3 10  2  0
  2 11  2  0
  7 12  1  0
 17 18  1  0
 18 19  1  0
 12 13  2  0
 13 14  1  0
 14 15  2  0
 15 16  1  0
 16 17  2  0
 12 17  1  0
  4  5  2  0
  5  6  1  0
  6  7  2  0
  7  8  1  0
  8  9  2  0
  4  9  1  0
M  END

$$$$
No_1381-/export/home/yangzhenyu/potential_scad_32_flow//YTHDC2/2024-12-06-03-22-00/
     RDKit          3D

 20 22  0  0  0  0  0  0  0  0999 V2000
    1.1787   -8.0297    3.5154 C   0  0  0  0  0  0  0  0  0  0  0  0
    1.1048   -9.2215    3.2892 C   0  0  0  0  0  0  0  0  0  0  0  0
    1.3627  -10.1721    4.3044 C   0  0  0  0  0  0  0  0  0  0  0  0
    1.0682  -11.5187    4.0618 C   0  0  0  0  0  0  0  0  0  0  0  0
    0.6332  -11.9655    2.9682 C   0  0  0  0  0  0  0  0  0  0  0  0
    0.4776  -11.1308    1.9203 C   0  0  0  0  0  0  0  0  0  0  0  0
    0.7470   -9.8274    2.0368 C   0  0  0  0  0  0  0  0  0  0  0  0
    1.0387   -7.0301    2.5175 C   0  0  0  0  0  0  0  0  0  0  0  0
    0.9130   -7.5288    1.2013 C   0  0  0  0  0  0  0  0  0  0  0  0
    0.7893   -8.7979    0.9542 C   0  0  0  0  0  0  0  0  0  0  0  0
    0.5241   -9.2578   -0.2817 C   0  0  0  0  0  0  0  0  0  0  0  0
   -0.1121   -8.6523   -1.0898 O   0  0  0  0  0  0  0  0  0  0  0  0
    0.4916  -13.3676    2.6814 C   0  0  0  0  0  0  0  0  0  0  0  0
   -0.7278  -13.8133    2.2836 N   0  0  0  0  0  0  0  0  0  0  0  0
    1.4418  -14.3157    2.9413 C   0  0  0  0  0  0  0  0  0  0  0  0
    1.1198  -15.6988    2.6953 C   0  0  0  0  0  0  0  0  0  0  0  0
    0.0067  -16.1095    2.3002 C   0  0  0  0  0  0  0  0  0  0  0  0
   -0.9247  -15.1128    2.0956 C   0  0  0  0  0  0  0  0  0  0  0  0
    1.4488   -9.9153   -0.9053 O   0  0  0  0  0  0  0  0  0  0  0  0
    1.2836   -5.5901    2.6999 Br  0  0  0  0  0  0  0  0  0  0  0  0
 10 11  1  0
 11 12  2  0
  5 13  1  0
 11 19  1  0
  8 20  1  0
  2  3  1  0
  3  4  2  0
  4  5  1  0
  5  6  2  0
  6  7  1  0
 13 14  2  0
 14 18  1  0
 17 18  2  0
 16 17  1  0
 15 16  2  0
 13 15  1  0
  1  2  2  0
  2  7  1  0
  7 10  2  0
  9 10  1  0
  8  9  2  0
  1  8  1  0
M  END

$$$$
No_1382-/export/home/yangzhenyu/potential_scad_32_flow//YTHDC2/2024-12-06-03-22-00/
     RDKit          3D

 19 20  0  0  0  0  0  0  0  0999 V2000
    1.1787   -8.0297    3.5154 C   0  0  0  0  0  0  0  0  0  0  0  0
    1.0491   -6.8434    2.9820 Cl  0  0  0  0  0  0  0  0  0  0  0  0
    0.9474   -9.1766    2.6032 C   0  0  0  0  0  0  0  0  0  0  0  0
    1.1989  -10.4635    3.1649 C   0  0  0  0  0  0  0  0  0  0  0  0
    1.1749  -11.5856    2.4749 C   0  0  0  0  0  0  0  0  0  0  0  0
    0.8155  -11.5406    1.1731 C   0  0  0  0  0  0  0  0  0  0  0  0
    0.4731  -10.3849    0.5407 C   0  0  0  0  0  0  0  0  0  0  0  0
    0.6108   -9.2026    1.1816 C   0  0  0  0  0  0  0  0  0  0  0  0
    0.3307   -8.0575    0.6014 C   0  0  0  0  0  0  0  0  0  0  0  0
   -0.9774   -7.6800    0.4886 N   0  0  0  0  0  0  0  0  0  0  0  0
   -1.3909   -6.5504   -0.1395 C   0  0  0  0  0  0  0  0  0  0  0  0
   -1.3285   -5.3147    0.5466 C   0  0  0  0  0  0  0  0  0  0  0  0
   -0.8078   -4.1618    0.1796 C   0  0  0  0  0  0  0  0  0  0  0  0
   -0.9436   -4.0537   -1.1877 C   0  0  0  0  0  0  0  0  0  0  0  0
   -1.3062   -5.1180   -2.0202 C   0  0  0  0  0  0  0  0  0  0  0  0
   -1.5678   -6.3294   -1.4718 C   0  0  0  0  0  0  0  0  0  0  0  0
    1.4828  -12.8573    3.1031 C   0  0  0  0  0  0  0  0  0  0  0  0
    0.3745  -13.8713    3.0494 C   0  0  0  0  0  0  0  0  0  0  0  0
    0.8719  -15.2157    3.2503 C   0  0  0  0  0  0  0  0  0  0  0  0
  1  2  1  0
  1  3  1  0
  8  9  1  0
  9 10  1  0
 10 11  1  0
  5 17  1  0
 17 18  1  0
 18 19  1  0
 11 12  2  0
 12 13  1  0
 13 14  2  0
 14 15  1  0
 15 16  2  0
 11 16  1  0
  3  4  2  0
  4  5  1  0
  5  6  2  0
  6  7  1  0
  7  8  2  0
  3  8  1  0
M  END

$$$$
No_1383-/export/home/yangzhenyu/potential_scad_32_flow//YTHDC2/2024-12-06-03-22-00/
     RDKit          3D

 20 21  0  0  0  0  0  0  0  0999 V2000
    1.1787   -8.0297    3.5154 C   0  0  0  0  0  0  0  0  0  0  0  0
    1.1048   -9.2215    3.2892 C   0  0  0  0  0  0  0  0  0  0  0  0
    1.3627  -10.1721    4.3044 C   0  0  0  0  0  0  0  0  0  0  0  0
    1.0682  -11.5187    4.0618 C   0  0  0  0  0  0  0  0  0  0  0  0
    0.6332  -11.9655    2.9682 C   0  0  0  0  0  0  0  0  0  0  0  0
    0.4776  -11.1308    1.9203 C   0  0  0  0  0  0  0  0  0  0  0  0
    0.7470   -9.8274    2.0368 C   0  0  0  0  0  0  0  0  0  0  0  0
    0.5535   -7.1314    2.6861 C   0  0  0  0  0  0  0  0  0  0  0  0
    0.2950   -7.6000    1.3275 C   0  0  0  0  0  0  0  0  0  0  0  0
    0.2693   -8.8631    1.0973 C   0  0  0  0  0  0  0  0  0  0  0  0
   -0.0513   -6.7125    0.4242 C   0  0  0  0  0  0  0  0  0  0  0  0
   -0.2266   -5.3889    0.7493 N   0  0  0  0  0  0  0  0  0  0  0  0
    0.4808  -13.3900    2.7206 C   0  0  0  0  0  0  0  0  0  0  0  0
    1.4369  -14.3035    3.1138 C   0  0  0  0  0  0  0  0  0  0  0  0
    1.4716  -15.5362    2.4881 C   0  0  0  0  0  0  0  0  0  0  0  0
    0.5057  -16.4503    2.6352 N   0  0  0  0  0  0  0  0  0  0  0  0
   -0.3855   -6.8915   -0.8296 O   0  0  0  0  0  0  0  0  0  0  0  0
    2.8164  -16.0907    2.3668 O   0  0  0  0  0  0  0  0  0  0  0  0
    0.6628  -17.7555    2.1575 C   0  0  0  0  0  0  0  0  0  0  0  0
   -0.0481   -5.0724    1.6917 H   0  0  0  0  0  0  0  0  0  0  0  0
  9 11  1  0
 11 12  2  0
  5 13  1  0
 13 14  1  0
 14 15  1  0
 15 16  1  0
 11 17  1  0
 15 18  2  0
 16 19  1  0
  2  3  1  0
  3  4  2  0
  4  5  1  0
  5  6  2  0
  6  7  1  0
  1  2  2  0
  2  7  1  0
  7 10  2  0
  9 10  1  0
  8  9  2  0
  1  8  1  0
 12 20  1  0
M  END

$$$$
No_1384-/export/home/yangzhenyu/potential_scad_32_flow//YTHDC2/2024-12-06-03-22-00/
     RDKit          3D

 18 19  0  0  0  0  0  0  0  0999 V2000
    1.1787   -8.0297    3.5154 C   0  0  0  0  0  0  0  0  0  0  0  0
    1.1048   -9.2215    3.2892 C   0  0  0  0  0  0  0  0  0  0  0  0
    1.2339   -9.7611    2.0189 C   0  0  0  0  0  0  0  0  0  0  0  0
    1.3583   -9.0036    0.9764 C   0  0  0  0  0  0  0  0  0  0  0  0
    1.5996   -7.6362    1.1311 C   0  0  0  0  0  0  0  0  0  0  0  0
    1.4830   -7.0928    2.3626 C   0  0  0  0  0  0  0  0  0  0  0  0
    1.5395   -5.7300    2.6182 C   0  0  0  0  0  0  0  0  0  0  0  0
    1.1775  -11.2233    1.8407 C   0  0  0  0  0  0  0  0  0  0  0  0
    1.9057  -12.1147    2.3397 C   0  0  0  0  0  0  0  0  0  0  0  0
    1.6867  -13.4551    2.0621 C   0  0  0  0  0  0  0  0  0  0  0  0
    0.7025  -13.8511    1.3021 C   0  0  0  0  0  0  0  0  0  0  0  0
   -0.1111  -12.9140    0.6527 C   0  0  0  0  0  0  0  0  0  0  0  0
    0.1535  -11.5434    0.9240 C   0  0  0  0  0  0  0  0  0  0  0  0
    1.6688   -5.1779    3.8866 C   0  0  0  0  0  0  0  0  0  0  0  0
    1.4123   -4.8523    1.5521 O   0  0  0  0  0  0  0  0  0  0  0  0
    2.5131  -14.4237    2.7660 C   0  0  0  0  0  0  0  0  0  0  0  0
    2.2939  -15.8015    2.1881 O   0  0  0  0  0  0  0  0  0  0  0  0
   -0.6861  -10.6914    0.3115 C   0  0  0  0  0  0  0  0  0  0  0  0
  6  7  1  0
  3  8  1  0
  7 14  1  0
  7 15  2  0
 10 16  1  0
 16 17  2  0
 13 18  1  0
  1  2  2  0
  2  3  1  0
  3  4  2  0
  4  5  1  0
  5  6  2  0
  1  6  1  0
  8  9  2  0
  9 10  1  0
 10 11  2  0
 11 12  1  0
 12 13  2  0
  8 13  1  0
M  END

$$$$
No_1385-/export/home/yangzhenyu/potential_scad_32_flow//YTHDC2/2024-12-06-03-22-00/
     RDKit          3D

 20 21  0  0  0  0  0  0  0  0999 V2000
    1.1787   -8.0297    3.5154 C   0  0  0  0  0  0  0  0  0  0  0  0
    1.1048   -9.2215    3.2892 C   0  0  0  0  0  0  0  0  0  0  0  0
    1.2339   -9.7611    2.0189 C   0  0  0  0  0  0  0  0  0  0  0  0
    1.3583   -9.0036    0.9764 C   0  0  0  0  0  0  0  0  0  0  0  0
    1.5996   -7.6362    1.1311 C   0  0  0  0  0  0  0  0  0  0  0  0
    1.4830   -7.0928    2.3626 C   0  0  0  0  0  0  0  0  0  0  0  0
    1.5395   -5.7300    2.6182 C   0  0  0  0  0  0  0  0  0  0  0  0
    1.1775  -11.2233    1.8407 C   0  0  0  0  0  0  0  0  0  0  0  0
    1.9057  -12.1147    2.3397 C   0  0  0  0  0  0  0  0  0  0  0  0
    1.6867  -13.4551    2.0621 C   0  0  0  0  0  0  0  0  0  0  0  0
    0.7025  -13.8511    1.3021 C   0  0  0  0  0  0  0  0  0  0  0  0
   -0.1111  -12.9140    0.6527 C   0  0  0  0  0  0  0  0  0  0  0  0
    0.1535  -11.5434    0.9240 C   0  0  0  0  0  0  0  0  0  0  0  0
    1.2825   -4.8055    1.6933 O   0  0  0  0  0  0  0  0  0  0  0  0
    1.8141   -5.1708    3.8283 O   0  0  0  0  0  0  0  0  0  0  0  0
    2.6260  -14.5797    2.8660 Cl  0  0  0  0  0  0  0  0  0  0  0  0
   -0.7013  -10.6771    0.3300 C   0  0  0  0  0  0  0  0  0  0  0  0
   -1.8580  -10.3386    0.9604 O   0  0  0  0  0  0  0  0  0  0  0  0
   -0.6001  -10.3259   -0.9690 O   0  0  0  0  0  0  0  0  0  0  0  0
    0.8423  -10.1077    4.4052 S   0  0  0  0  0  0  0  0  0  0  0  0
  6  7  1  0
  3  8  1  0
  7 14  2  0
  7 15  1  0
 10 16  1  0
 13 17  1  0
 17 18  1  0
 17 19  2  0
  2 20  1  0
  1  2  2  0
  2  3  1  0
  3  4  2  0
  4  5  1  0
  5  6  2  0
  1  6  1  0
  8  9  2  0
  9 10  1  0
 10 11  2  0
 11 12  1  0
 12 13  2  0
  8 13  1  0
M  END

$$$$
No_1386-/export/home/yangzhenyu/potential_scad_32_flow//YTHDC2/2024-12-06-03-22-00/
     RDKit          3D

 19 19  0  0  1  0  0  0  0  0999 V2000
    1.1787   -8.0297    3.5154 C   0  0  0  0  0  0  0  0  0  0  0  0
    1.1048   -9.2215    3.2892 C   0  0  0  0  0  0  0  0  0  0  0  0
    1.2339   -9.7611    2.0189 C   0  0  0  0  0  0  0  0  0  0  0  0
    1.3583   -9.0036    0.9764 C   0  0  0  0  0  0  0  0  0  0  0  0
    1.5996   -7.6362    1.1311 C   0  0  0  0  0  0  0  0  0  0  0  0
    1.4830   -7.0928    2.3626 C   0  0  0  0  0  0  0  0  0  0  0  0
    1.4898   -5.7274    2.6199 C   0  0  0  0  0  0  0  0  0  0  0  0
    1.1681  -11.2222    1.8390 C   0  0  0  0  0  0  0  0  0  0  0  0
    0.7145  -11.5870    0.5424 O   0  0  0  0  0  0  0  0  0  0  0  0
    2.0067  -12.0298    2.4274 N   0  0  0  0  0  0  0  0  0  0  0  0
    1.5546  -13.3191    2.6469 C   0  0  0  0  0  0  0  0  0  0  0  0
    1.0715  -14.1181    1.6915 C   0  0  1  0  0  0  0  0  0  0  0  0
    2.0203  -14.7062    0.9409 O   0  0  0  0  0  0  0  0  0  0  0  0
    1.6931   -5.1783    3.8640 N   0  0  0  0  0  0  0  0  0  0  0  0
    1.3803   -4.8427    1.6279 O   0  0  0  0  0  0  0  0  0  0  0  0
   -0.0714  -14.4439    1.6173 C   0  0  0  0  0  0  0  0  0  0  0  0
   -0.9181  -14.3061    2.6618 C   0  0  0  0  0  0  0  0  0  0  0  0
   -2.0654  -13.9234    2.6052 C   0  0  0  0  0  0  0  0  0  0  0  0
   -2.7327  -13.7681    1.4303 C   0  0  0  0  0  0  0  0  0  0  0  0
  6  7  1  0
  3  8  1  0
  8  9  2  0
  8 10  1  0
 10 11  1  0
 11 12  1  0
 12 13  1  1
  7 14  1  0
  7 15  2  0
 12 16  1  0
 16 17  1  0
 17 18  2  3
 18 19  1  0
  1  2  2  0
  2  3  1  0
  3  4  2  0
  4  5  1  0
  5  6  2  0
  1  6  1  0
M  END

$$$$
No_1387-/export/home/yangzhenyu/potential_scad_32_flow//YTHDC2/2024-12-06-03-22-00/
     RDKit          3D

 21 22  0  0  0  0  0  0  0  0999 V2000
    1.1787   -8.0297    3.5154 C   0  0  0  0  0  0  0  0  0  0  0  0
    1.1048   -9.2215    3.2892 C   0  0  0  0  0  0  0  0  0  0  0  0
    1.2339   -9.7611    2.0189 C   0  0  0  0  0  0  0  0  0  0  0  0
    1.3583   -9.0036    0.9764 C   0  0  0  0  0  0  0  0  0  0  0  0
    1.5996   -7.6362    1.1311 C   0  0  0  0  0  0  0  0  0  0  0  0
    1.4830   -7.0928    2.3626 C   0  0  0  0  0  0  0  0  0  0  0  0
    1.1008  -11.2372    1.8542 C   0  0  0  0  0  0  0  0  0  0  0  0
    0.4812  -11.6084    0.6459 C   0  0  0  0  0  0  0  0  0  0  0  0
    0.5134  -13.0269    0.4830 C   0  0  0  0  0  0  0  0  0  0  0  0
    1.2057  -13.8685    1.2734 C   0  0  0  0  0  0  0  0  0  0  0  0
    1.9819  -13.3990    2.3594 C   0  0  0  0  0  0  0  0  0  0  0  0
    1.7428  -12.0181    2.7579 C   0  0  0  0  0  0  0  0  0  0  0  0
    2.5321  -11.5923    3.6961 C   0  0  0  0  0  0  0  0  0  0  0  0
    1.5618   -5.6531    2.6439 Br  0  0  0  0  0  0  0  0  0  0  0  0
    1.9103  -11.1636    4.8693 N   0  0  0  0  0  0  0  0  0  0  0  0
    3.8292  -11.8540    3.9654 N   0  0  0  0  0  0  0  0  0  0  0  0
    1.6438   -9.5200   -0.5370 C   0  0  0  0  0  0  0  0  0  0  0  0
    1.8473   -8.8088   -1.2823 O   0  0  0  0  0  0  0  0  0  0  0  0
    1.6377  -10.6609   -0.8058 O   0  0  0  0  0  0  0  0  0  0  0  0
    1.3482  -15.1966    1.0019 Cl  0  0  0  0  0  0  0  0  0  0  0  0
    0.9071  -11.0496    4.8966 H   0  0  0  0  0  0  0  0  0  0  0  0
  3  7  1  0
 12 13  1  0
  6 14  1  0
 13 15  2  0
 13 16  1  0
  4 17  1  0
 17 18  2  0
 17 19  1  0
 10 20  1  0
  1  2  2  0
  2  3  1  0
  3  4  2  0
  4  5  1  0
  5  6  2  0
  1  6  1  0
  7  8  2  0
  8  9  1  0
  9 10  2  0
 10 11  1  0
 11 12  2  0
  7 12  1  0
 15 21  1  0
M  END

$$$$
No_1388-/export/home/yangzhenyu/potential_scad_32_flow//YTHDC2/2024-12-06-03-22-00/
     RDKit          3D

 18 18  0  0  0  0  0  0  0  0999 V2000
    1.1787   -8.0297    3.5154 C   0  0  0  0  0  0  0  0  0  0  0  0
    1.0491   -6.8434    2.9820 C   0  0  0  0  0  0  0  0  0  0  0  0
    0.9905   -9.0774    2.6527 C   0  0  0  0  0  0  0  0  0  0  0  0
    0.7897   -8.9519    1.3691 C   0  0  0  0  0  0  0  0  0  0  0  0
    0.7018   -7.7198    0.7892 C   0  0  0  0  0  0  0  0  0  0  0  0
    0.8918   -6.5957    1.6117 C   0  0  0  0  0  0  0  0  0  0  0  0
    1.0600  -10.5680    3.3321 C   0  0  0  0  0  0  0  0  0  0  0  0
    1.1634  -11.6086    2.5010 C   0  0  0  0  0  0  0  0  0  0  0  0
    1.3344  -12.8974    3.1596 C   0  0  0  0  0  0  0  0  0  0  0  0
    1.1071  -14.0522    2.4564 C   0  0  0  0  0  0  0  0  0  0  0  0
    1.6576  -15.2786    3.1062 O   0  0  0  0  0  0  0  0  0  0  0  0
    0.8454   -5.2628    1.1987 C   0  0  0  0  0  0  0  0  0  0  0  0
    0.1776   -4.3041    2.0011 O   0  0  0  0  0  0  0  0  0  0  0  0
    0.3937  -14.2641    1.4964 O   0  0  0  0  0  0  0  0  0  0  0  0
    0.9069   -3.1900    2.3996 C   0  0  0  0  0  0  0  0  0  0  0  0
    1.9347  -16.4084    2.4812 C   0  0  0  0  0  0  0  0  0  0  0  0
    1.4818  -17.4886    2.6388 C   0  0  0  0  0  0  0  0  0  0  0  0
    0.4836  -17.5534    3.4467 C   0  0  0  0  0  0  0  0  0  0  0  0
  3  7  1  0
  7  8  2  3
  8  9  1  0
  9 10  1  0
 10 11  1  0
  6 12  1  0
 12 13  1  0
 10 14  2  0
 13 15  1  0
 11 16  1  0
 16 17  1  0
 17 18  1  0
  1  2  2  0
  2  6  1  0
  5  6  2  0
  4  5  1  0
  3  4  2  0
  1  3  1  0
M  END

$$$$
No_1389-/export/home/yangzhenyu/potential_scad_32_flow//YTHDC2/2024-12-06-03-22-00/
     RDKit          3D

 18 19  0  0  0  0  0  0  0  0999 V2000
    1.1787   -8.0297    3.5154 C   0  0  0  0  0  0  0  0  0  0  0  0
    1.1048   -9.2215    3.2892 C   0  0  0  0  0  0  0  0  0  0  0  0
    1.3627  -10.1721    4.3044 C   0  0  0  0  0  0  0  0  0  0  0  0
    2.3720  -10.8948    4.2468 C   0  0  0  0  0  0  0  0  0  0  0  0
    0.8234   -7.0464    2.5717 C   0  0  0  0  0  0  0  0  0  0  0  0
    0.4328   -7.4736    1.3042 C   0  0  0  0  0  0  0  0  0  0  0  0
    0.3532   -8.7488    0.9919 C   0  0  0  0  0  0  0  0  0  0  0  0
    0.7039   -9.7094    1.9672 C   0  0  0  0  0  0  0  0  0  0  0  0
    0.6986  -10.9809    1.7122 C   0  0  0  0  0  0  0  0  0  0  0  0
   -0.1824  -11.8267    2.1190 C   0  0  0  0  0  0  0  0  0  0  0  0
   -0.1572  -13.2235    1.7457 C   0  0  0  0  0  0  0  0  0  0  0  0
   -1.1311  -13.8738    1.3863 C   0  0  0  0  0  0  0  0  0  0  0  0
   -2.4692  -13.1052    1.4251 C   0  0  0  0  0  0  0  0  0  0  0  0
   -2.4934  -12.1744    1.8520 C   0  0  0  0  0  0  0  0  0  0  0  0
   -1.4224  -11.2586    2.1824 C   0  0  0  0  0  0  0  0  0  0  0  0
    0.9968   -5.5676    2.7695 C   0  0  0  0  0  0  0  0  0  0  0  0
    3.5771  -10.4872    5.0128 N   0  0  0  0  0  0  0  0  0  0  0  0
    3.3183  -10.0893    6.2743 O   0  0  0  0  0  0  0  0  0  0  0  0
  2  3  1  0
  3  4  1  0
  8  9  1  0
  5 16  1  0
  4 17  1  0
 17 18  2  0
  9 10  1  0
  1  2  2  0
  2  8  1  0
  7  8  2  0
  6  7  1  0
  5  6  2  0
  1  5  1  0
 10 11  2  0
 11 12  1  0
 12 13  2  0
 13 14  1  0
 14 15  2  0
 10 15  1  0
M  END

$$$$
No_1390-/export/home/yangzhenyu/potential_scad_32_flow//YTHDC2/2024-12-06-03-22-00/
     RDKit          3D

 19 20  0  0  1  0  0  0  0  0999 V2000
    1.1787   -8.0297    3.5154 C   0  0  0  0  0  0  0  0  0  0  0  0
    1.0491   -6.8434    2.9820 C   0  0  0  0  0  0  0  0  0  0  0  0
    0.9905   -9.0774    2.6527 C   0  0  0  0  0  0  0  0  0  0  0  0
    0.7897   -8.9519    1.3691 N   0  0  0  0  0  0  0  0  0  0  0  0
    0.8618   -6.5727    1.6755 C   0  0  0  0  0  0  0  0  0  0  0  0
    0.6171   -7.6414    0.8820 C   0  0  0  0  0  0  0  0  0  0  0  0
    1.1208  -10.5010    3.1491 C   0  0  0  0  0  0  0  0  0  0  0  0
    0.6905  -11.4902    2.4316 C   0  0  0  0  0  0  0  0  0  0  0  0
    0.8292  -12.8502    2.9772 C   0  0  0  0  0  0  0  0  0  0  0  0
    1.1106  -13.8479    2.2374 C   0  0  1  0  0  0  0  0  0  0  0  0
    1.4923  -13.5806    0.9564 C   0  0  0  0  0  0  0  0  0  0  0  0
    2.0928  -14.8987    2.8568 C   0  0  0  0  0  0  0  0  0  0  0  0
    0.3839   -7.5042   -0.3640 I   0  0  0  0  0  0  0  0  0  0  0  0
    0.7944   -5.2388    1.2548 O   0  0  0  0  0  0  0  0  0  0  0  0
    1.9939  -16.2733    2.3085 O   0  0  0  0  0  0  0  0  0  0  0  0
    0.9871  -16.9019    2.3973 C   0  0  0  0  0  0  0  0  0  0  0  0
    0.5677  -12.9460    0.2354 C   0  0  0  0  0  0  0  0  0  0  0  0
    0.2584  -11.6097    0.8225 C   0  0  0  0  0  0  0  0  0  0  0  0
    1.0186  -17.9962    1.3867 C   0  0  0  0  0  0  0  0  0  0  0  0
  3  7  1  0
  7  8  2  3
  8  9  1  0
  9 10  1  0
 10 11  1  0
 10 12  1  1
  6 13  1  0
  5 14  1  0
 12 15  1  0
 15 16  1  0
 11 17  1  0
  8 18  1  0
 17 18  1  0
 16 19  1  0
  1  2  2  0
  2  5  1  0
  5  6  2  0
  4  6  1  0
  3  4  2  0
  1  3  1  0
M  END

$$$$
No_1391-/export/home/yangzhenyu/potential_scad_32_flow//YTHDC2/2024-12-06-03-22-00/
     RDKit          3D

 18 19  0  0  0  0  0  0  0  0999 V2000
    1.1787   -8.0297    3.5154 C   0  0  0  0  0  0  0  0  0  0  0  0
    1.1048   -9.2215    3.2892 C   0  0  0  0  0  0  0  0  0  0  0  0
    1.2339   -9.7611    2.0189 C   0  0  0  0  0  0  0  0  0  0  0  0
    1.1954  -11.2312    1.8661 C   0  0  0  0  0  0  0  0  0  0  0  0
    1.5546  -12.1691    2.7931 C   0  0  0  0  0  0  0  0  0  0  0  0
    0.9527   -7.0669    2.3918 C   0  0  0  0  0  0  0  0  0  0  0  0
    1.0618   -7.6392    1.0692 C   0  0  0  0  0  0  0  0  0  0  0  0
    1.2060   -8.9530    0.8578 C   0  0  0  0  0  0  0  0  0  0  0  0
    0.8228  -13.3051    2.8966 C   0  0  0  0  0  0  0  0  0  0  0  0
   -0.0721  -13.6353    2.0317 C   0  0  0  0  0  0  0  0  0  0  0  0
   -0.3541  -12.8159    1.0191 C   0  0  0  0  0  0  0  0  0  0  0  0
    0.2604  -11.6288    0.8923 C   0  0  0  0  0  0  0  0  0  0  0  0
    1.0644   -5.6118    2.4667 C   0  0  0  0  0  0  0  0  0  0  0  0
   -0.6407  -15.1535    2.1918 C   0  0  0  0  0  0  0  0  0  0  0  0
    0.1598  -16.0666    2.6920 C   0  0  0  0  0  0  0  0  0  0  0  0
   -0.3653  -17.2781    2.9415 C   0  0  0  0  0  0  0  0  0  0  0  0
   -1.5743  -17.5543    2.5490 C   0  0  0  0  0  0  0  0  0  0  0  0
   -2.3498  -16.6671    2.0035 C   0  0  0  0  0  0  0  0  0  0  0  0
  3  4  1  0
  6 13  1  0
 10 14  1  0
 14 15  2  3
 15 16  1  0
 16 17  2  3
 17 18  1  0
  1  2  2  0
  2  3  1  0
  3  8  2  0
  7  8  1  0
  6  7  2  0
  1  6  1  0
  4  5  2  0
  5  9  1  0
  9 10  2  0
 10 11  1  0
 11 12  2  0
  4 12  1  0
M  END

$$$$
No_1392-/export/home/yangzhenyu/potential_scad_32_flow//YTHDC2/2024-12-06-03-22-00/
     RDKit          3D

 19 19  0  0  0  0  0  0  0  0999 V2000
    1.1787   -8.0297    3.5154 C   0  0  0  0  0  0  0  0  0  0  0  0
    1.1048   -9.2215    3.2892 C   0  0  0  0  0  0  0  0  0  0  0  0
    1.2339   -9.7611    2.0189 C   0  0  0  0  0  0  0  0  0  0  0  0
    1.1954  -11.2312    1.8661 C   0  0  0  0  0  0  0  0  0  0  0  0
    1.5546  -12.1691    2.7931 C   0  0  0  0  0  0  0  0  0  0  0  0
    0.5849   -7.0929    2.5729 C   0  0  0  0  0  0  0  0  0  0  0  0
    0.5567   -7.6699    1.1955 C   0  0  0  0  0  0  0  0  0  0  0  0
    0.7903   -8.9699    0.9209 C   0  0  0  0  0  0  0  0  0  0  0  0
    0.7806  -13.2965    2.8850 C   0  0  0  0  0  0  0  0  0  0  0  0
    1.4160  -14.5637    2.7831 C   0  0  0  0  0  0  0  0  0  0  0  0
    0.5714  -15.7561    3.0512 O   0  0  0  0  0  0  0  0  0  0  0  0
    0.6042   -5.4554    2.6778 C   0  0  0  0  0  0  0  0  0  0  0  0
    2.6414  -14.7817    2.5698 O   0  0  0  0  0  0  0  0  0  0  0  0
   -0.5581   -4.9872    2.3571 O   0  0  0  0  0  0  0  0  0  0  0  0
    1.4815   -4.8895    3.3049 O   0  0  0  0  0  0  0  0  0  0  0  0
    0.6242   -9.4547   -0.4384 C   0  0  0  0  0  0  0  0  0  0  0  0
   -0.3727   -8.9709   -1.1551 O   0  0  0  0  0  0  0  0  0  0  0  0
    1.6431   -9.8014   -1.0612 O   0  0  0  0  0  0  0  0  0  0  0  0
    1.2284  -16.9715    3.3164 C   0  0  0  0  0  0  0  0  0  0  0  0
  3  4  1  0
  4  5  1  0
  5  9  1  0
  9 10  1  0
 10 11  1  0
  6 12  1  0
 10 13  2  0
 12 14  2  0
 12 15  1  0
  8 16  1  0
 16 17  2  0
 16 18  1  0
 11 19  1  0
  1  2  2  0
  2  3  1  0
  3  8  2  0
  7  8  1  0
  6  7  2  0
  1  6  1  0
M  END

$$$$
No_1393-/export/home/yangzhenyu/potential_scad_32_flow//YTHDC2/2024-12-06-03-22-00/
     RDKit          3D

 17 17  0  0  1  0  0  0  0  0999 V2000
    1.1787   -8.0297    3.5154 C   0  0  0  0  0  0  0  0  0  0  0  0
    1.0491   -6.8434    2.9820 C   0  0  0  0  0  0  0  0  0  0  0  0
    1.9985   -8.9840    2.8958 C   0  0  0  0  0  0  0  0  0  0  0  0
    1.1815  -10.1889    2.5497 C   0  0  2  0  0  0  0  0  0  0  0  0
    0.9817  -11.1388    2.8134 C   0  0  2  0  0  0  0  0  0  0  0  0
    0.1125  -12.0891    2.4837 C   0  0  0  0  0  0  0  0  0  0  0  0
   -0.6446  -11.8250    1.4596 C   0  0  0  0  0  0  0  0  0  0  0  0
   -0.2941  -10.7598    0.6431 C   0  0  1  0  0  0  0  0  0  0  0  0
   -0.9486  -10.5977   -0.6005 C   0  0  0  0  0  0  0  0  0  0  0  0
    0.5703   -9.8589    1.1792 C   0  0  0  0  0  0  0  0  0  0  0  0
   -1.9364   -9.9627   -0.7610 O   0  0  0  0  0  0  0  0  0  0  0  0
   -0.6341  -11.2162   -1.7497 O   0  0  0  0  0  0  0  0  0  0  0  0
    0.3200   -6.8175    1.8062 O   0  0  0  0  0  0  0  0  0  0  0  0
    1.5900   -5.7034    3.2124 O   0  0  0  0  0  0  0  0  0  0  0  0
    1.6040  -11.4707    4.2685 C   0  0  0  0  0  0  0  0  0  0  0  0
    1.1611   -8.8748    0.3013 O   0  0  0  0  0  0  0  0  0  0  0  0
    1.2055   -4.4949    2.5239 C   0  0  0  0  0  0  0  0  0  0  0  0
  1  2  1  0
  1  3  1  0
  4  3  1  6
  4  5  1  0
  6  7  1  0
  8  9  1  1
  4 10  1  0
  8 10  1  0
  9 11  2  0
  9 12  1  0
  2 13  2  0
  2 14  1  0
  5 15  1  1
 10 16  2  0
 14 17  1  0
  5  6  1  0
  7  8  1  0
M  END

$$$$
No_1394-/export/home/yangzhenyu/potential_scad_32_flow//YTHDC2/2024-12-06-03-22-00/
     RDKit          3D

 18 18  0  0  1  0  0  0  0  0999 V2000
    1.1787   -8.0297    3.5154 O   0  0  0  0  0  0  0  0  0  0  0  0
    0.6747   -7.4019    2.7838 C   0  0  0  0  0  0  0  0  0  0  0  0
    0.5570   -6.0797    2.8560 C   0  0  0  0  0  0  0  0  0  0  0  0
   -0.2158   -5.3007    2.0284 C   0  0  0  0  0  0  0  0  0  0  0  0
   -0.8260   -5.9169    1.0290 C   0  0  0  0  0  0  0  0  0  0  0  0
   -0.6925   -7.2407    0.8216 C   0  0  0  0  0  0  0  0  0  0  0  0
    0.1645   -8.0156    1.6621 C   0  0  0  0  0  0  0  0  0  0  0  0
    0.4049   -9.3434    1.4877 C   0  0  0  0  0  0  0  0  0  0  0  0
    0.0670  -10.2565    2.0992 N   0  0  0  0  0  0  0  0  0  0  0  0
    0.8996  -11.2312    2.4648 C   0  0  0  0  0  0  0  0  0  0  0  0
    1.0268  -12.1635    2.1114 C   0  0  0  0  0  0  0  0  0  0  0  0
    1.1546   -9.6666    0.2384 O   0  0  0  0  0  0  0  0  0  0  0  0
    1.7838  -13.3131    2.6126 C   0  0  0  0  0  0  0  0  0  0  0  0
    1.8939  -14.5752    1.9240 C   0  0  0  0  0  0  0  0  0  0  0  0
    1.0773  -15.4564    2.1449 C   0  0  2  0  0  0  0  0  0  0  0  0
    0.0512  -15.3377    2.9043 C   0  0  0  0  0  0  0  0  0  0  0  0
    1.8694  -16.7796    2.5282 C   0  0  0  0  0  0  0  0  0  0  0  0
    1.2214  -17.8490    2.9992 C   0  0  0  0  0  0  0  0  0  0  0  0
  1  2  1  0
  7  8  1  0
  8  9  1  0
  9 10  1  0
 10 11  2  3
  8 12  2  0
 11 13  1  0
 13 14  1  0
 14 15  1  0
 15 16  1  1
 15 17  1  0
 17 18  2  0
  2  3  2  0
  3  4  1  0
  4  5  2  0
  5  6  1  0
  6  7  2  0
  2  7  1  0
M  END

$$$$
No_1395-/export/home/yangzhenyu/potential_scad_32_flow//YTHDC2/2024-12-06-03-22-00/
     RDKit          3D

 18 18  0  0  1  0  0  0  0  0999 V2000
    1.1787   -8.0297    3.5154 C   0  0  0  0  0  0  0  0  0  0  0  0
    1.0491   -6.8434    2.9820 C   0  0  0  0  0  0  0  0  0  0  0  0
    1.9985   -8.9840    2.8958 C   0  0  2  0  0  0  0  0  0  0  0  0
    1.7297   -9.2108    1.6335 C   0  0  0  0  0  0  0  0  0  0  0  0
    1.7343   -8.0566    0.8408 C   0  0  2  0  0  0  0  0  0  0  0  0
    1.0269   -6.8892    1.4456 C   0  0  0  0  0  0  0  0  0  0  0  0
    1.7596   -8.0979   -0.4723 C   0  0  0  0  0  0  0  0  0  0  0  0
    2.7309   -8.8718   -1.0817 C   0  0  0  0  0  0  0  0  0  0  0  0
    1.9232  -10.3958    3.5644 C   0  0  0  0  0  0  0  0  0  0  0  0
    2.8732  -10.7089    4.0295 O   0  0  0  0  0  0  0  0  0  0  0  0
    0.9762  -11.2657    3.4469 N   0  0  0  0  0  0  0  0  0  0  0  0
    1.0627  -12.6202    3.8702 C   0  0  0  0  0  0  0  0  0  0  0  0
    1.0456  -13.5558    2.6697 C   0  0  1  0  0  0  0  0  0  0  0  0
    0.7815  -13.1566    1.5177 C   0  0  0  0  0  0  0  0  0  0  0  0
    1.4295  -14.8467    2.9706 C   0  0  0  0  0  0  0  0  0  0  0  0
    0.8092  -15.5184    3.7145 O   0  0  0  0  0  0  0  0  0  0  0  0
    2.5635  -15.2801    2.2842 O   0  0  0  0  0  0  0  0  0  0  0  0
   -0.4127  -12.6622    1.1719 C   0  0  0  0  0  0  0  0  0  0  0  0
  1  2  1  0
  1  3  1  0
  3  4  1  0
  4  5  1  0
  2  6  1  0
  5  6  1  0
  5  7  1  6
  7  8  1  0
  3  9  1  1
  9 10  2  0
  9 11  1  0
 11 12  1  0
 13 12  1  6
 13 14  1  0
 13 15  1  0
 15 16  2  0
 15 17  1  0
 14 18  1  0
M  END

$$$$
No_1396-/export/home/yangzhenyu/potential_scad_32_flow//YTHDC2/2024-12-06-03-22-00/
     RDKit          3D

 18 19  0  0  0  0  0  0  0  0999 V2000
    1.1787   -8.0297    3.5154 C   0  0  0  0  0  0  0  0  0  0  0  0
    1.0491   -6.8434    2.9820 C   0  0  0  0  0  0  0  0  0  0  0  0
    0.9905   -9.0774    2.6527 C   0  0  0  0  0  0  0  0  0  0  0  0
    0.7897   -8.9519    1.3691 C   0  0  0  0  0  0  0  0  0  0  0  0
    0.7018   -7.7198    0.7892 C   0  0  0  0  0  0  0  0  0  0  0  0
    0.8918   -6.5957    1.6117 C   0  0  0  0  0  0  0  0  0  0  0  0
    1.0711  -10.4814    3.2282 C   0  0  0  0  0  0  0  0  0  0  0  0
   -0.1055  -11.1328    3.5223 C   0  0  0  0  0  0  0  0  0  0  0  0
   -0.1824  -12.4513    3.3816 C   0  0  0  0  0  0  0  0  0  0  0  0
    0.9472  -13.2655    3.1726 C   0  0  0  0  0  0  0  0  0  0  0  0
    2.1715  -12.6012    2.9116 C   0  0  0  0  0  0  0  0  0  0  0  0
    2.2064  -11.2741    2.8264 C   0  0  0  0  0  0  0  0  0  0  0  0
    0.8996  -14.6381    3.2447 C   0  0  0  0  0  0  0  0  0  0  0  0
   -0.1167  -15.3378    3.6297 N   0  0  0  0  0  0  0  0  0  0  0  0
    1.8899  -15.4449    2.6541 C   0  0  0  0  0  0  0  0  0  0  0  0
    3.0027  -14.9884    2.0969 C   0  0  0  0  0  0  0  0  0  0  0  0
    1.6367  -16.8724    2.9654 C   0  0  0  0  0  0  0  0  0  0  0  0
   -0.9343  -14.8775    4.0036 H   0  0  0  0  0  0  0  0  0  0  0  0
  3  7  1  0
 10 13  1  0
 13 14  2  0
 13 15  1  0
 15 16  2  0
 15 17  1  0
  1  2  2  0
  2  6  1  0
  5  6  2  0
  4  5  1  0
  3  4  2  0
  1  3  1  0
  7  8  2  0
  8  9  1  0
  9 10  2  0
 10 11  1  0
 11 12  2  0
  7 12  1  0
 14 18  1  0
M  END

$$$$
No_1397-/export/home/yangzhenyu/potential_scad_32_flow//YTHDC2/2024-12-06-03-22-00/
     RDKit          3D

 18 19  0  0  1  0  0  0  0  0999 V2000
    1.1787   -8.0297    3.5154 C   0  0  0  0  0  0  0  0  0  0  0  0
    1.0491   -6.8434    2.9820 C   0  0  0  0  0  0  0  0  0  0  0  0
    0.0950   -8.8404    3.2292 C   0  0  1  0  0  0  0  0  0  0  0  0
   -0.9173   -8.4596    2.5152 C   0  0  0  0  0  0  0  0  0  0  0  0
   -1.0331   -7.2162    2.0653 C   0  0  1  0  0  0  0  0  0  0  0  0
   -0.0105   -6.3168    2.3081 C   0  0  2  0  0  0  0  0  0  0  0  0
    0.0485   -4.9783    1.8782 C   0  0  0  0  0  0  0  0  0  0  0  0
   -0.4744   -4.1559    2.2381 N   0  0  0  0  0  0  0  0  0  0  0  0
    0.2200  -10.4585    3.7735 Cl  0  0  0  0  0  0  0  0  0  0  0  0
    0.9214   -4.6627    0.8179 O   0  0  0  0  0  0  0  0  0  0  0  0
    1.2357   -3.4291    0.9110 C   0  0  0  0  0  0  0  0  0  0  0  0
    1.1034   -2.4331    1.3285 C   0  0  0  0  0  0  0  0  0  0  0  0
   -0.1235   -2.7711    2.2459 C   0  0  0  0  0  0  0  0  0  0  0  0
   -2.2082   -6.8441    1.2714 O   0  0  0  0  0  0  0  0  0  0  0  0
    2.1763   -5.9779    3.1857 O   0  0  0  0  0  0  0  0  0  0  0  0
   -2.3113   -7.0791    0.0187 C   0  0  0  0  0  0  0  0  0  0  0  0
   -2.5395   -6.0162   -0.7749 C   0  0  0  0  0  0  0  0  0  0  0  0
   -1.9613   -5.9296   -2.0836 C   0  0  0  0  0  0  0  0  0  0  0  0
  1  2  1  0
  3  4  1  0
  2  6  1  0
  5  6  1  0
  6  7  1  6
  7  8  2  0
  3  9  1  6
  7 10  1  0
 10 11  1  0
 11 12  2  0
  8 13  1  0
 12 13  1  0
  5 14  1  6
  2 15  2  0
 14 16  1  0
 16 17  1  0
 17 18  2  0
  1  3  1  0
  4  5  1  0
M  END

$$$$
No_1398-/export/home/yangzhenyu/potential_scad_32_flow//YTHDC2/2024-12-06-03-22-00/
     RDKit          3D

 18 18  0  0  0  0  0  0  0  0999 V2000
    1.1787   -8.0297    3.5154 O   0  0  0  0  0  0  0  0  0  0  0  0
    0.9969   -8.9689    3.0048 C   0  0  0  0  0  0  0  0  0  0  0  0
    1.3055  -10.1056    3.6616 C   0  0  0  0  0  0  0  0  0  0  0  0
    1.1249  -11.3503    3.0941 C   0  0  0  0  0  0  0  0  0  0  0  0
    0.6932  -11.4484    1.8586 C   0  0  0  0  0  0  0  0  0  0  0  0
    0.5498  -10.3736    1.0579 C   0  0  0  0  0  0  0  0  0  0  0  0
    0.7643   -9.1185    1.6383 C   0  0  0  0  0  0  0  0  0  0  0  0
    0.5937   -7.8467    1.0482 C   0  0  0  0  0  0  0  0  0  0  0  0
    1.5294   -7.0230    1.0749 O   0  0  0  0  0  0  0  0  0  0  0  0
   -0.4082   -7.5594    0.2790 O   0  0  0  0  0  0  0  0  0  0  0  0
    1.1857  -12.6455    3.8343 Cl  0  0  0  0  0  0  0  0  0  0  0  0
    0.4467  -12.8352    0.9520 C   0  0  0  0  0  0  0  0  0  0  0  0
    1.5238  -13.6519    0.7970 O   0  0  0  0  0  0  0  0  0  0  0  0
   -0.6521  -13.1903    0.6118 O   0  0  0  0  0  0  0  0  0  0  0  0
    0.2600  -10.4070   -0.5022 C   0  0  0  0  0  0  0  0  0  0  0  0
   -1.1290  -10.7873   -0.6359 O   0  0  0  0  0  0  0  0  0  0  0  0
   -1.8633  -10.1784   -1.5855 C   0  0  0  0  0  0  0  0  0  0  0  0
   -2.8305   -9.5546   -1.2343 C   0  0  0  0  0  0  0  0  0  0  0  0
  1  2  1  0
  7  8  1  0
  8  9  1  0
  8 10  2  0
  4 11  1  0
  5 12  1  0
 12 13  1  0
 12 14  2  0
  6 15  1  0
 15 16  1  0
 16 17  1  0
 17 18  1  0
  2  3  2  0
  3  4  1  0
  4  5  2  0
  5  6  1  0
  6  7  2  0
  2  7  1  0
M  END

$$$$
No_1399-/export/home/yangzhenyu/potential_scad_32_flow//YTHDC2/2024-12-06-03-22-00/
     RDKit          3D

 18 19  0  0  0  0  0  0  0  0999 V2000
    1.1787   -8.0297    3.5154 C   0  0  0  0  0  0  0  0  0  0  0  0
    1.0491   -6.8434    2.9820 C   0  0  0  0  0  0  0  0  0  0  0  0
    1.9985   -8.9840    2.8958 C   0  0  0  0  0  0  0  0  0  0  0  0
    1.9135  -10.3404    3.6266 C   0  0  0  0  0  0  0  0  0  0  0  0
    1.3291  -11.3908    3.0222 C   0  0  0  0  0  0  0  0  0  0  0  0
    1.0344  -11.3281    1.7959 C   0  0  0  0  0  0  0  0  0  0  0  0
    0.5050   -6.6553    1.7492 C   0  0  0  0  0  0  0  0  0  0  0  0
    0.4773  -12.4299    1.1902 C   0  0  0  0  0  0  0  0  0  0  0  0
    0.3762  -13.6506    1.8382 C   0  0  0  0  0  0  0  0  0  0  0  0
    0.8121  -13.6797    3.1961 C   0  0  0  0  0  0  0  0  0  0  0  0
    1.3336  -12.4089    3.8107 C   0  0  0  0  0  0  0  0  0  0  0  0
    0.4039   -5.3081    1.3136 C   0  0  0  0  0  0  0  0  0  0  0  0
    0.9420   -4.2185    2.0271 C   0  0  0  0  0  0  0  0  0  0  0  0
    1.5849   -4.4856    3.2743 C   0  0  0  0  0  0  0  0  0  0  0  0
    1.6553   -5.7293    3.7173 C   0  0  0  0  0  0  0  0  0  0  0  0
    0.8006   -2.7480    1.4017 Cl  0  0  0  0  0  0  0  0  0  0  0  0
    2.5587  -10.3119    4.8181 O   0  0  0  0  0  0  0  0  0  0  0  0
   -0.0059  -14.7991    1.3068 F   0  0  0  0  0  0  0  0  0  0  0  0
  1  2  1  0
  1  3  1  0
  3  4  1  0
  4  5  1  0
 13 16  1  0
  4 17  2  0
  9 18  1  0
  5  6  2  0
  6  8  1  0
  8  9  2  0
  9 10  1  0
 10 11  2  0
  5 11  1  0
  2  7  2  0
  7 12  1  0
 12 13  2  0
 13 14  1  0
 14 15  2  0
  2 15  1  0
M  END

$$$$
No_1400-/export/home/yangzhenyu/potential_scad_32_flow//YTHDC2/2024-12-06-03-22-00/
     RDKit          3D

 19 20  0  0  0  0  0  0  0  0999 V2000
    1.1787   -8.0297    3.5154 C   0  0  0  0  0  0  0  0  0  0  0  0
    1.1048   -9.2215    3.2892 C   0  0  0  0  0  0  0  0  0  0  0  0
    1.3627  -10.1721    4.3044 C   0  0  0  0  0  0  0  0  0  0  0  0
    1.7354  -11.4730    3.9023 C   0  0  0  0  0  0  0  0  0  0  0  0
    1.8080  -11.8127    2.7216 C   0  0  0  0  0  0  0  0  0  0  0  0
    1.5854  -11.0021    1.7249 C   0  0  0  0  0  0  0  0  0  0  0  0
    1.3573   -9.7389    1.9287 C   0  0  0  0  0  0  0  0  0  0  0  0
    1.1102   -8.8712    0.9017 C   0  0  0  0  0  0  0  0  0  0  0  0
    0.5299   -7.6926    1.0325 C   0  0  0  0  0  0  0  0  0  0  0  0
    0.7526   -7.0802    2.3301 C   0  0  0  0  0  0  0  0  0  0  0  0
    2.0528  -13.2563    2.4302 O   0  0  0  0  0  0  0  0  0  0  0  0
    0.5638   -5.7065    2.5407 C   0  0  0  0  0  0  0  0  0  0  0  0
   -0.5266   -5.1061    2.1353 C   0  0  0  0  0  0  0  0  0  0  0  0
   -0.7081   -3.6598    2.2849 C   0  0  0  0  0  0  0  0  0  0  0  0
    2.0379  -13.8232    1.2764 C   0  0  0  0  0  0  0  0  0  0  0  0
   -1.3550   -3.3695    3.3957 C   0  0  0  0  0  0  0  0  0  0  0  0
    1.6672   -4.9266    3.2327 C   0  0  0  0  0  0  0  0  0  0  0  0
    1.2071   -9.2692   -0.4199 C   0  0  0  0  0  0  0  0  0  0  0  0
    0.2577   -9.6417   -1.1373 O   0  0  0  0  0  0  0  0  0  0  0  0
  5 11  1  0
 10 12  1  0
 12 13  2  3
 13 14  1  0
 11 15  1  0
 14 16  1  0
 12 17  1  0
  8 18  1  0
 18 19  2  0
  1  2  2  0
  7  8  2  0
  8  9  1  0
  9 10  2  0
  1 10  1  0
  2  3  1  0
  3  4  2  0
  4  5  1  0
  5  6  2  0
  6  7  1  0
  2  7  1  0
M  END

$$$$
No_1401-/export/home/yangzhenyu/potential_scad_32_flow//YTHDC2/2024-12-06-03-22-00/
     RDKit          3D

 17 17  0  0  0  0  0  0  0  0999 V2000
    1.1787   -8.0297    3.5154 C   0  0  0  0  0  0  0  0  0  0  0  0
    1.1048   -9.2215    3.2892 C   0  0  0  0  0  0  0  0  0  0  0  0
    1.2339   -9.7611    2.0189 C   0  0  0  0  0  0  0  0  0  0  0  0
    1.3583   -9.0036    0.9764 C   0  0  0  0  0  0  0  0  0  0  0  0
    1.5996   -7.6362    1.1311 C   0  0  0  0  0  0  0  0  0  0  0  0
    1.4830   -7.0928    2.3626 C   0  0  0  0  0  0  0  0  0  0  0  0
    1.5395   -5.7300    2.6182 C   0  0  0  0  0  0  0  0  0  0  0  0
    1.1775  -11.2233    1.8407 C   0  0  0  0  0  0  0  0  0  0  0  0
    1.9057  -12.1147    2.3397 C   0  0  0  0  0  0  0  0  0  0  0  0
    1.2923  -13.3224    2.7485 C   0  0  0  0  0  0  0  0  0  0  0  0
    1.7772  -14.5584    2.3045 C   0  0  0  0  0  0  0  0  0  0  0  0
    1.3033  -15.2289    1.6999 C   0  0  0  0  0  0  0  0  0  0  0  0
    0.3184  -14.9233    0.9092 C   0  0  0  0  0  0  0  0  0  0  0  0
    1.6668  -16.6341    1.6623 C   0  0  0  0  0  0  0  0  0  0  0  0
    2.9300  -17.0737    2.2457 O   0  0  0  0  0  0  0  0  0  0  0  0
    1.1606  -17.5512    0.9437 O   0  0  0  0  0  0  0  0  0  0  0  0
   -0.8692  -14.4289    1.2049 C   0  0  0  0  0  0  0  0  0  0  0  0
  6  7  1  0
  3  8  1  0
  8  9  1  0
  9 10  1  0
 10 11  1  0
 11 12  1  0
 12 13  1  0
 12 14  1  0
 14 15  1  0
 14 16  2  0
 13 17  1  0
  1  2  2  0
  2  3  1  0
  3  4  2  0
  4  5  1  0
  5  6  2  0
  1  6  1  0
M  END

$$$$
No_1402-/export/home/yangzhenyu/potential_scad_32_flow//YTHDC2/2024-12-06-03-22-00/
     RDKit          3D

 20 21  0  0  0  0  0  0  0  0999 V2000
    1.1787   -8.0297    3.5154 N   0  0  0  0  0  0  0  0  0  0  0  0
    1.0818   -9.0751    3.2053 C   0  0  0  0  0  0  0  0  0  0  0  0
    0.7576   -9.3725    1.9159 C   0  0  0  0  0  0  0  0  0  0  0  0
    0.7445  -10.8746    1.6491 C   0  0  0  0  0  0  0  0  0  0  0  0
    0.9910  -11.7526    2.6067 C   0  0  0  0  0  0  0  0  0  0  0  0
    1.4405  -11.4331    3.8064 C   0  0  0  0  0  0  0  0  0  0  0  0
    1.4304  -10.0463    4.1669 C   0  0  0  0  0  0  0  0  0  0  0  0
    1.1357   -6.7948    2.7839 C   0  0  0  0  0  0  0  0  0  0  0  0
    1.2086   -5.5150    3.2459 O   0  0  0  0  0  0  0  0  0  0  0  0
    1.2147   -6.8570    1.2815 O   0  0  0  0  0  0  0  0  0  0  0  0
    0.9504  -13.1933    2.2785 C   0  0  0  0  0  0  0  0  0  0  0  0
   -0.2552  -13.7268    2.3733 C   0  0  0  0  0  0  0  0  0  0  0  0
   -0.2825  -15.2137    2.3355 C   0  0  0  0  0  0  0  0  0  0  0  0
    0.8991  -15.9562    2.2563 C   0  0  0  0  0  0  0  0  0  0  0  0
    2.1350  -15.3392    2.3787 C   0  0  0  0  0  0  0  0  0  0  0  0
    2.1761  -13.9105    2.4101 C   0  0  0  0  0  0  0  0  0  0  0  0
    0.8745  -17.3266    2.4078 O   0  0  0  0  0  0  0  0  0  0  0  0
    0.1599  -18.0295    1.8880 C   0  0  0  0  0  0  0  0  0  0  0  0
    0.3871  -11.3321    0.3442 Cl  0  0  0  0  0  0  0  0  0  0  0  0
    3.3411  -15.9324    2.4452 O   0  0  0  0  0  0  0  0  0  0  0  0
  1  2  1  0
  1  8  2  3
  8  9  1  0
  8 10  1  0
  5 11  1  0
 14 17  1  0
 17 18  1  0
  4 19  1  0
 15 20  1  0
 11 12  2  0
 12 13  1  0
 13 14  2  0
 14 15  1  0
 15 16  2  0
 11 16  1  0
  2  3  2  0
  3  4  1  0
  4  5  2  0
  5  6  1  0
  6  7  2  0
  2  7  1  0
M  END

$$$$
No_1403-/export/home/yangzhenyu/potential_scad_32_flow//YTHDC2/2024-12-06-03-22-00/
     RDKit          3D

 16 16  0  0  0  0  0  0  0  0999 V2000
    1.1787   -8.0297    3.5154 C   0  0  0  0  0  0  0  0  0  0  0  0
    1.0491   -6.8434    2.9820 C   0  0  0  0  0  0  0  0  0  0  0  0
    0.9905   -9.0774    2.6527 C   0  0  0  0  0  0  0  0  0  0  0  0
    0.7897   -8.9519    1.3691 C   0  0  0  0  0  0  0  0  0  0  0  0
    0.7018   -7.7198    0.7892 C   0  0  0  0  0  0  0  0  0  0  0  0
    0.8918   -6.5957    1.6117 C   0  0  0  0  0  0  0  0  0  0  0  0
    1.0600  -10.5680    3.3321 C   0  0  0  0  0  0  0  0  0  0  0  0
    2.1422  -11.0089    3.6867 C   0  0  0  0  0  0  0  0  0  0  0  0
    0.8986   -5.2530    1.1685 C   0  0  0  0  0  0  0  0  0  0  0  0
   -0.0562  -11.2191    3.4645 C   0  0  0  0  0  0  0  0  0  0  0  0
   -0.1830  -12.4497    3.1726 O   0  0  0  0  0  0  0  0  0  0  0  0
    2.2015  -10.9460    5.1955 O   0  0  0  0  0  0  0  0  0  0  0  0
   -1.1709  -10.6102    3.9871 O   0  0  0  0  0  0  0  0  0  0  0  0
    0.2322   -4.2147    1.9225 O   0  0  0  0  0  0  0  0  0  0  0  0
   -1.0200   -3.9985    1.4753 C   0  0  0  0  0  0  0  0  0  0  0  0
   -1.2219   -3.9727    0.3007 C   0  0  0  0  0  0  0  0  0  0  0  0
  3  7  1  0
  7  8  1  0
  6  9  1  0
  7 10  1  0
 10 11  1  0
  8 12  1  0
 10 13  2  0
  9 14  1  0
 14 15  1  0
 15 16  1  0
  1  2  2  0
  2  6  1  0
  5  6  2  0
  4  5  1  0
  3  4  2  0
  1  3  1  0
M  END

$$$$
No_1404-/export/home/yangzhenyu/potential_scad_32_flow//YTHDC2/2024-12-06-03-22-00/
     RDKit          3D

 19 21  0  0  0  0  0  0  0  0999 V2000
    1.1787   -8.0297    3.5154 C   0  0  0  0  0  0  0  0  0  0  0  0
    1.1048   -9.2215    3.2892 C   0  0  0  0  0  0  0  0  0  0  0  0
    1.2339   -9.7611    2.0189 C   0  0  0  0  0  0  0  0  0  0  0  0
    1.3583   -9.0036    0.9764 C   0  0  0  0  0  0  0  0  0  0  0  0
    1.5996   -7.6362    1.1311 C   0  0  0  0  0  0  0  0  0  0  0  0
    1.4830   -7.0928    2.3626 C   0  0  0  0  0  0  0  0  0  0  0  0
    1.1008  -11.2372    1.8542 C   0  0  0  0  0  0  0  0  0  0  0  0
    1.9749  -12.0938    2.2342 C   0  0  0  0  0  0  0  0  0  0  0  0
    1.7533  -13.4231    1.8956 C   0  0  0  0  0  0  0  0  0  0  0  0
    0.8624  -13.8318    1.1071 C   0  0  0  0  0  0  0  0  0  0  0  0
   -0.0624  -12.9093    0.5581 C   0  0  0  0  0  0  0  0  0  0  0  0
    0.1157  -11.5285    0.9404 C   0  0  0  0  0  0  0  0  0  0  0  0
    1.5561   -5.6354    2.6426 C   0  0  0  0  0  0  0  0  0  0  0  0
   -0.8094  -10.6544    0.4388 C   0  0  0  0  0  0  0  0  0  0  0  0
   -1.8654  -10.9518   -0.1413 O   0  0  0  0  0  0  0  0  0  0  0  0
   -0.6795   -9.2977    0.5621 N   0  0  0  0  0  0  0  0  0  0  0  0
    0.3299   -9.1376   -0.0072 N   0  0  0  0  0  0  0  0  0  0  0  0
    1.2549   -4.7613    1.6897 O   0  0  0  0  0  0  0  0  0  0  0  0
    1.8488   -5.1129    3.7856 I   0  0  0  0  0  0  0  0  0  0  0  0
  3  7  1  0
  6 13  1  0
 12 14  1  0
 14 15  2  0
 14 16  1  0
  4 17  1  0
 16 17  1  0
 13 18  2  0
 13 19  1  0
  1  2  2  0
  2  3  1  0
  3  4  2  0
  4  5  1  0
  5  6  2  0
  1  6  1  0
  7  8  2  0
  8  9  1  0
  9 10  2  0
 10 11  1  0
 11 12  2  0
  7 12  1  0
M  END

$$$$
No_1405-/export/home/yangzhenyu/potential_scad_32_flow//YTHDC2/2024-12-06-03-22-00/
     RDKit          3D

 19 21  0  0  0  0  0  0  0  0999 V2000
    1.1787   -8.0297    3.5154 C   0  0  0  0  0  0  0  0  0  0  0  0
    1.1048   -9.2215    3.2892 C   0  0  0  0  0  0  0  0  0  0  0  0
    1.3627  -10.1721    4.3044 C   0  0  0  0  0  0  0  0  0  0  0  0
    1.0682  -11.5187    4.0618 C   0  0  0  0  0  0  0  0  0  0  0  0
    0.6332  -11.9655    2.9682 C   0  0  0  0  0  0  0  0  0  0  0  0
    0.4776  -11.1308    1.9203 C   0  0  0  0  0  0  0  0  0  0  0  0
    0.7470   -9.8274    2.0368 C   0  0  0  0  0  0  0  0  0  0  0  0
    1.0387   -7.0301    2.5175 C   0  0  0  0  0  0  0  0  0  0  0  0
    0.9130   -7.5288    1.2013 C   0  0  0  0  0  0  0  0  0  0  0  0
    0.7893   -8.7980    0.9542 C   0  0  0  0  0  0  0  0  0  0  0  0
    0.5241   -9.2578   -0.2817 C   0  0  0  0  0  0  0  0  0  0  0  0
   -0.1121   -8.6523   -1.0898 O   0  0  0  0  0  0  0  0  0  0  0  0
    0.4916  -13.3676    2.6814 C   0  0  0  0  0  0  0  0  0  0  0  0
    0.8930  -13.9924    1.7241 C   0  0  0  0  0  0  0  0  0  0  0  0
    0.3071  -14.6610    0.9482 C   0  0  0  0  0  0  0  0  0  0  0  0
   -0.9539  -15.0964    1.1014 C   0  0  0  0  0  0  0  0  0  0  0  0
   -1.4456  -14.6119    2.4529 C   0  0  0  0  0  0  0  0  0  0  0  0
   -0.7078  -13.8631    3.1718 C   0  0  0  0  0  0  0  0  0  0  0  0
    1.0976  -10.2469   -0.7926 O   0  0  0  0  0  0  0  0  0  0  0  0
 10 11  1  0
 11 12  2  0
  5 13  1  0
 11 19  1  0
  2  3  1  0
  3  4  2  0
  4  5  1  0
  5  6  2  0
  6  7  1  0
 13 14  2  0
 14 15  1  0
 15 16  2  0
 16 17  1  0
 17 18  2  0
 13 18  1  0
  1  2  2  0
  2  7  1  0
  7 10  2  0
  9 10  1  0
  8  9  2  0
  1  8  1  0
M  END

$$$$
No_1406-/export/home/yangzhenyu/potential_scad_32_flow//YTHDC2/2024-12-06-03-22-00/
     RDKit          3D

 19 20  0  0  1  0  0  0  0  0999 V2000
    1.1787   -8.0297    3.5154 C   0  0  0  0  0  0  0  0  0  0  0  0
    1.0491   -6.8434    2.9820 C   0  0  1  0  0  0  0  0  0  0  0  0
    1.9985   -8.9840    2.8958 C   0  0  0  0  0  0  0  0  0  0  0  0
    1.9135  -10.3404    3.6266 C   0  0  0  0  0  0  0  0  0  0  0  0
    0.7479  -10.9191    3.7202 C   0  0  0  0  0  0  0  0  0  0  0  0
    1.8085   -5.7988    3.2380 C   0  0  0  0  0  0  0  0  0  0  0  0
   -0.2979  -10.3849    3.8387 O   0  0  0  0  0  0  0  0  0  0  0  0
    0.7965  -12.2897    3.4411 N   0  0  0  0  0  0  0  0  0  0  0  0
    1.4773   -4.6453    2.4657 C   0  0  0  0  0  0  0  0  0  0  0  0
    0.5481   -4.7174    1.3778 C   0  0  0  0  0  0  0  0  0  0  0  0
    0.0234   -6.2344    1.6615 C   0  0  1  0  0  0  0  0  0  0  0  0
   -0.2493  -13.0852    3.2936 C   0  0  0  0  0  0  0  0  0  0  0  0
   -0.9163  -12.7049    2.0935 C   0  0  0  0  0  0  0  0  0  0  0  0
   -0.2167  -12.5625    0.9611 C   0  0  0  0  0  0  0  0  0  0  0  0
   -0.6419  -11.7479   -0.0652 C   0  0  0  0  0  0  0  0  0  0  0  0
   -1.8844  -11.4023   -0.1302 C   0  0  0  0  0  0  0  0  0  0  0  0
   -2.6939  -11.4987    0.9641 C   0  0  0  0  0  0  0  0  0  0  0  0
   -2.1972  -12.1830    2.0939 C   0  0  0  0  0  0  0  0  0  0  0  0
   -0.7354   -6.9298    1.0481 C   0  0  0  0  0  0  0  0  0  0  0  0
  2  1  1  6
  1  3  1  0
  3  4  1  0
  4  5  1  0
  2  6  1  0
  5  7  2  0
  5  8  1  0
  6  9  2  0
  9 10  1  0
  2 11  1  0
 10 11  1  0
  8 12  1  0
 12 13  1  0
 11 19  1  6
 13 14  2  0
 14 15  1  0
 15 16  2  0
 16 17  1  0
 17 18  2  0
 13 18  1  0
M  END

$$$$
No_1407-/export/home/yangzhenyu/potential_scad_32_flow//YTHDC2/2024-12-06-03-22-00/
     RDKit          3D

 18 19  0  0  1  0  0  0  0  0999 V2000
    1.1787   -8.0297    3.5154 C   0  0  0  0  0  0  0  0  0  0  0  0
    1.0491   -6.8434    2.9820 C   0  0  1  0  0  0  0  0  0  0  0  0
    1.9985   -8.9840    2.8958 C   0  0  2  0  0  0  0  0  0  0  0  0
    1.7297   -9.2108    1.6335 C   0  0  0  0  0  0  0  0  0  0  0  0
    1.7343   -8.0566    0.8408 C   0  0  0  0  0  0  0  0  0  0  0  0
    1.0269   -6.8892    1.4456 C   0  0  2  0  0  0  0  0  0  0  0  0
    1.7596   -8.0979   -0.4723 O   0  0  0  0  0  0  0  0  0  0  0  0
    2.2829  -10.2174    3.6488 C   0  0  0  0  0  0  0  0  0  0  0  0
    1.7832  -11.1599    3.8758 I   0  0  0  0  0  0  0  0  0  0  0  0
    2.3185  -10.1904    0.8497 N   0  0  0  0  0  0  0  0  0  0  0  0
    0.8359   -5.6569    3.4874 C   0  0  0  0  0  0  0  0  0  0  0  0
    1.1893   -4.4653    2.8065 C   0  0  1  0  0  0  0  0  0  0  0  0
    1.1047   -5.7549    0.7064 C   0  0  0  0  0  0  0  0  0  0  0  0
    1.1357   -4.4536    1.4871 C   0  0  0  0  0  0  0  0  0  0  0  0
    1.1550   -3.2531    0.7591 O   0  0  0  0  0  0  0  0  0  0  0  0
    3.7159   -9.9112    4.3581 O   0  0  0  0  0  0  0  0  0  0  0  0
    1.2159   -3.0764    3.6413 C   0  0  0  0  0  0  0  0  0  0  0  0
    2.3891  -10.0628   -0.1497 H   0  0  0  0  0  0  0  0  0  0  0  0
  2  1  1  1
  1  3  1  0
  3  4  1  0
  4  5  1  0
  2  6  1  0
  5  6  1  0
  5  7  2  0
  3  8  1  1
  8  9  1  0
  4 10  2  0
  2 11  1  0
  6 13  1  6
 12 14  1  0
 13 14  1  0
 14 15  2  0
  8 16  2  0
 12 17  1  1
 11 12  1  0
 10 18  1  0
M  END

$$$$
No_1408-/export/home/yangzhenyu/potential_scad_32_flow//YTHDC2/2024-12-06-03-22-00/
     RDKit          3D

 10 10  0  0  0  0  0  0  0  0999 V2000
    1.1787   -8.0297    3.5154 O   0  0  0  0  0  0  0  0  0  0  0  0
    0.6747   -7.4019    2.7838 C   0  0  0  0  0  0  0  0  0  0  0  0
    0.5570   -6.0797    2.8560 C   0  0  0  0  0  0  0  0  0  0  0  0
    1.1189   -5.2588    2.0517 C   0  0  0  0  0  0  0  0  0  0  0  0
    1.5632   -5.9381    0.9725 C   0  0  0  0  0  0  0  0  0  0  0  0
    1.7798   -7.2538    0.7416 C   0  0  0  0  0  0  0  0  0  0  0  0
    2.3552   -7.9049   -0.3831 C   0  0  0  0  0  0  0  0  0  0  0  0
    1.3754   -8.1312    1.7743 C   0  0  0  0  0  0  0  0  0  0  0  0
    2.8465   -7.6026   -1.2024 O   0  0  0  0  0  0  0  0  0  0  0  0
    1.7363   -9.1626   -0.6160 O   0  0  0  0  0  0  0  0  0  0  0  0
  1  2  1  0
  6  7  1  0
  7  9  2  0
  7 10  1  0
  2  3  2  0
  3  4  1  0
  4  5  2  0
  5  6  1  0
  6  8  2  0
  2  8  1  0
M  END

$$$$
No_1409-/export/home/yangzhenyu/potential_scad_32_flow//YTHDC2/2024-12-06-03-22-00/
     RDKit          3D

 19 20  0  0  1  0  0  0  0  0999 V2000
    1.1787   -8.0297    3.5154 C   0  0  0  0  0  0  0  0  0  0  0  0
    1.0491   -6.8434    2.9820 C   0  0  0  0  0  0  0  0  0  0  0  0
    1.9985   -8.9840    2.8958 C   0  0  2  0  0  0  0  0  0  0  0  0
    1.7297   -9.2108    1.6335 C   0  0  0  0  0  0  0  0  0  0  0  0
    1.7343   -8.0566    0.8408 C   0  0  2  0  0  0  0  0  0  0  0  0
    1.0269   -6.8892    1.4456 C   0  0  0  0  0  0  0  0  0  0  0  0
    2.0740   -7.9416   -0.3682 C   0  0  0  0  0  0  0  0  0  0  0  0
    3.0714   -8.7358   -0.8759 C   0  0  0  0  0  0  0  0  0  0  0  0
    2.8803  -10.0717   -0.6832 I   0  0  0  0  0  0  0  0  0  0  0  0
    1.9618  -10.3322    3.5920 C   0  0  0  0  0  0  0  0  0  0  0  0
    1.2875  -11.4091    3.3671 O   0  0  0  0  0  0  0  0  0  0  0  0
    3.0260  -10.5474    4.5274 O   0  0  0  0  0  0  0  0  0  0  0  0
    0.7007   -5.8522    0.8821 O   0  0  0  0  0  0  0  0  0  0  0  0
    0.9111   -5.7154    3.5527 C   0  0  0  0  0  0  0  0  0  0  0  0
   -0.2568   -5.0766    3.5977 C   0  0  0  0  0  0  0  0  0  0  0  0
   -0.3652   -3.6710    3.5048 C   0  0  0  0  0  0  0  0  0  0  0  0
    0.8607   -2.9090    3.3095 C   0  0  0  0  0  0  0  0  0  0  0  0
    2.1491   -3.5879    3.2699 C   0  0  0  0  0  0  0  0  0  0  0  0
    2.1725   -4.8923    3.3804 C   0  0  0  0  0  0  0  0  0  0  0  0
  1  2  1  0
  1  3  1  0
  3  4  1  0
  4  5  1  0
  2  6  1  0
  5  6  1  0
  5  7  1  6
  7  8  1  0
  8  9  1  0
  3 10  1  1
 10 11  2  0
 10 12  1  0
  6 13  2  0
  2 14  1  0
 14 15  2  0
 15 16  1  0
 16 17  2  0
 17 18  1  0
 18 19  2  0
 14 19  1  0
M  END

$$$$
No_1410-/export/home/yangzhenyu/potential_scad_32_flow//YTHDC2/2024-12-06-03-22-00/
     RDKit          3D

 18 18  0  0  1  0  0  0  0  0999 V2000
    1.1787   -8.0297    3.5154 C   0  0  0  0  0  0  0  0  0  0  0  0
    1.1048   -9.2215    3.2892 C   0  0  0  0  0  0  0  0  0  0  0  0
    1.2339   -9.7611    2.0189 C   0  0  0  0  0  0  0  0  0  0  0  0
    1.3583   -9.0036    0.9764 C   0  0  0  0  0  0  0  0  0  0  0  0
    1.5996   -7.6362    1.1311 C   0  0  0  0  0  0  0  0  0  0  0  0
    1.4830   -7.0928    2.3626 C   0  0  0  0  0  0  0  0  0  0  0  0
    1.1008  -11.2372    1.8542 C   0  0  1  0  0  0  0  0  0  0  0  0
    0.4812  -11.6084    0.6459 C   0  0  0  0  0  0  0  0  0  0  0  0
    0.5134  -13.0269    0.4830 O   0  0  0  0  0  0  0  0  0  0  0  0
   -0.3265  -10.9546   -0.0091 O   0  0  0  0  0  0  0  0  0  0  0  0
    1.5926   -5.4720    2.7531 Cl  0  0  0  0  0  0  0  0  0  0  0  0
    1.8215  -12.0133    2.6009 C   0  0  0  0  0  0  0  0  0  0  0  0
    1.0823  -12.6912    3.6399 C   0  0  0  0  0  0  0  0  0  0  0  0
    0.8869  -14.0718    3.3695 O   0  0  0  0  0  0  0  0  0  0  0  0
    2.1159  -14.8222    3.1728 C   0  0  0  0  0  0  0  0  0  0  0  0
    1.9478  -16.2092    2.7586 C   0  0  0  0  0  0  0  0  0  0  0  0
    0.9403  -16.7602    3.2604 C   0  0  0  0  0  0  0  0  0  0  0  0
    0.7163  -17.7031    3.6731 C   0  0  0  0  0  0  0  0  0  0  0  0
  3  7  1  0
  7  8  1  0
  8  9  2  0
  8 10  1  0
  6 11  1  0
  7 12  1  6
 12 13  1  0
 13 14  1  0
 14 15  1  0
 15 16  1  0
 16 17  1  0
 17 18  2  0
  1  2  2  0
  2  3  1  0
  3  4  2  0
  4  5  1  0
  5  6  2  0
  1  6  1  0
M  END

$$$$
No_1411-/export/home/yangzhenyu/potential_scad_32_flow//YTHDC2/2024-12-06-03-22-00/
     RDKit          3D

 19 20  0  0  0  0  0  0  0  0999 V2000
    1.1787   -8.0297    3.5154 C   0  0  0  0  0  0  0  0  0  0  0  0
    1.0491   -6.8434    2.9820 C   0  0  0  0  0  0  0  0  0  0  0  0
    0.9905   -9.0774    2.6527 C   0  0  0  0  0  0  0  0  0  0  0  0
    0.7897   -8.9519    1.3691 C   0  0  0  0  0  0  0  0  0  0  0  0
    0.7018   -7.7198    0.7892 C   0  0  0  0  0  0  0  0  0  0  0  0
    0.8918   -6.5957    1.6117 C   0  0  0  0  0  0  0  0  0  0  0  0
    1.0998  -10.4710    3.2437 C   0  0  0  0  0  0  0  0  0  0  0  0
    2.1917  -10.8879    3.7399 C   0  0  0  0  0  0  0  0  0  0  0  0
    0.8624   -5.2493    1.2482 C   0  0  0  0  0  0  0  0  0  0  0  0
   -0.0161  -11.2304    3.3728 C   0  0  0  0  0  0  0  0  0  0  0  0
   -0.0817  -12.5026    3.1756 C   0  0  0  0  0  0  0  0  0  0  0  0
    1.2096  -13.1342    2.9620 C   0  0  0  0  0  0  0  0  0  0  0  0
    2.4137  -12.2564    3.3890 C   0  0  0  0  0  0  0  0  0  0  0  0
    1.3786  -14.4918    3.1755 F   0  0  0  0  0  0  0  0  0  0  0  0
    0.2088   -4.2868    2.0441 O   0  0  0  0  0  0  0  0  0  0  0  0
   -0.9990   -3.9388    1.5560 C   0  0  0  0  0  0  0  0  0  0  0  0
   -1.7083   -3.2834    2.2585 C   0  0  0  0  0  0  0  0  0  0  0  0
   -1.7782   -3.7917    3.5434 C   0  0  0  0  0  0  0  0  0  0  0  0
   -0.9260   -3.3037    4.3927 C   0  0  0  0  0  0  0  0  0  0  0  0
  3  7  1  0
  6  9  1  0
 12 14  1  0
  9 15  1  0
 15 16  1  0
 16 17  1  0
 17 18  1  0
 18 19  1  0
  7  8  2  0
  8 13  1  0
 12 13  2  0
 11 12  1  0
 10 11  2  0
  7 10  1  0
  1  2  2  0
  2  6  1  0
  5  6  2  0
  4  5  1  0
  3  4  2  0
  1  3  1  0
M  END

$$$$
No_1412-/export/home/yangzhenyu/potential_scad_32_flow//YTHDC2/2024-12-06-03-22-00/
     RDKit          3D

 18 19  0  0  0  0  0  0  0  0999 V2000
    1.1787   -8.0297    3.5154 O   0  0  0  0  0  0  0  0  0  0  0  0
    0.9969   -8.9689    3.0048 C   0  0  0  0  0  0  0  0  0  0  0  0
    0.9976   -8.9567    1.6341 C   0  0  0  0  0  0  0  0  0  0  0  0
    1.6062   -9.9071    0.9292 C   0  0  0  0  0  0  0  0  0  0  0  0
    2.1191  -10.9757    1.6503 N   0  0  0  0  0  0  0  0  0  0  0  0
    2.0886  -10.9867    2.9870 C   0  0  0  0  0  0  0  0  0  0  0  0
    2.6103  -12.0234    3.7045 C   0  0  0  0  0  0  0  0  0  0  0  0
    1.5299   -9.8736    3.5799 C   0  0  0  0  0  0  0  0  0  0  0  0
    0.4993   -7.8090    0.9642 O   0  0  0  0  0  0  0  0  0  0  0  0
    1.9860  -13.3545    3.3168 C   0  0  0  0  0  0  0  0  0  0  0  0
    2.6575  -14.2797    2.5804 N   0  0  0  0  0  0  0  0  0  0  0  0
    2.0290  -15.1719    1.9767 C   0  0  0  0  0  0  0  0  0  0  0  0
    0.8112  -15.2136    2.1749 C   0  0  0  0  0  0  0  0  0  0  0  0
    0.0837  -14.3156    2.8050 C   0  0  0  0  0  0  0  0  0  0  0  0
    0.6683  -13.3319    3.3564 C   0  0  0  0  0  0  0  0  0  0  0  0
   -1.3399  -14.4077    2.8570 C   0  0  0  0  0  0  0  0  0  0  0  0
   -1.9871  -14.5477    1.8295 O   0  0  0  0  0  0  0  0  0  0  0  0
   -2.1161  -13.7993    3.7375 O   0  0  0  0  0  0  0  0  0  0  0  0
  1  2  1  0
  6  7  1  0
  3  9  1  0
  7 10  1  0
 14 16  1  0
 16 17  2  0
 16 18  1  0
  2  3  2  0
  3  4  1  0
  4  5  2  0
  5  6  1  0
  6  8  2  0
  2  8  1  0
 10 11  2  0
 11 12  1  0
 12 13  2  0
 13 14  1  0
 14 15  2  0
 10 15  1  0
M  END

$$$$
No_1413-/export/home/yangzhenyu/potential_scad_32_flow//YTHDC2/2024-12-06-03-22-00/
     RDKit          3D

 18 19  0  0  0  0  0  0  0  0999 V2000
    1.1787   -8.0297    3.5154 C   0  0  0  0  0  0  0  0  0  0  0  0
    1.1048   -9.2215    3.2892 C   0  0  0  0  0  0  0  0  0  0  0  0
    1.2339   -9.7611    2.0189 C   0  0  0  0  0  0  0  0  0  0  0  0
    1.3583   -9.0036    0.9764 C   0  0  0  0  0  0  0  0  0  0  0  0
    1.5996   -7.6362    1.1311 C   0  0  0  0  0  0  0  0  0  0  0  0
    1.4830   -7.0928    2.3626 C   0  0  0  0  0  0  0  0  0  0  0  0
    1.1008  -11.2372    1.8542 C   0  0  0  0  0  0  0  0  0  0  0  0
    0.5178  -11.9759    2.3445 C   0  0  0  0  0  0  0  0  0  0  0  0
    0.4575  -13.3705    2.1281 C   0  0  0  0  0  0  0  0  0  0  0  0
   -0.4455  -13.9844    1.5572 C   0  0  0  0  0  0  0  0  0  0  0  0
   -0.4380  -15.3839    1.3068 C   0  0  0  0  0  0  0  0  0  0  0  0
    0.7051  -16.0983    1.9315 C   0  0  0  0  0  0  0  0  0  0  0  0
    1.6299  -15.5240    2.5820 C   0  0  0  0  0  0  0  0  0  0  0  0
    1.5398  -14.1300    2.8462 C   0  0  0  0  0  0  0  0  0  0  0  0
    1.5712   -5.6593    2.6510 Br  0  0  0  0  0  0  0  0  0  0  0  0
    1.4857   -9.4556   -0.3875 Br  0  0  0  0  0  0  0  0  0  0  0  0
    0.6676  -17.5008    1.7676 O   0  0  0  0  0  0  0  0  0  0  0  0
    1.9223  -18.0320    2.1366 C   0  0  0  0  0  0  0  0  0  0  0  0
  3  7  1  0
  7  8  2  3
  8  9  1  0
  6 15  1  0
  4 16  1  0
 12 17  1  0
 17 18  1  0
  1  2  2  0
  2  3  1  0
  3  4  2  0
  4  5  1  0
  5  6  2  0
  1  6  1  0
  9 10  2  0
 10 11  1  0
 11 12  2  0
 12 13  1  0
 13 14  2  0
  9 14  1  0
M  END

$$$$
No_1414-/export/home/yangzhenyu/potential_scad_32_flow//YTHDC2/2024-12-06-03-22-00/
     RDKit          3D

 19 21  0  0  0  0  0  0  0  0999 V2000
    1.1787   -8.0297    3.5154 C   0  0  0  0  0  0  0  0  0  0  0  0
    1.0491   -6.8434    2.9820 C   0  0  0  0  0  0  0  0  0  0  0  0
    0.0950   -8.8404    3.2292 C   0  0  0  0  0  0  0  0  0  0  0  0
   -0.9173   -8.4596    2.5152 C   0  0  0  0  0  0  0  0  0  0  0  0
   -1.0331   -7.2162    2.0653 C   0  0  0  0  0  0  0  0  0  0  0  0
   -0.0105   -6.3168    2.3081 C   0  0  0  0  0  0  0  0  0  0  0  0
    0.1465  -10.2446    3.6981 N   0  0  0  0  0  0  0  0  0  0  0  0
    0.2885  -11.3162    3.0428 C   0  0  0  0  0  0  0  0  0  0  0  0
    0.9857  -12.4037    3.6485 C   0  0  0  0  0  0  0  0  0  0  0  0
    1.2642  -13.5165    2.7883 C   0  0  0  0  0  0  0  0  0  0  0  0
    1.1434  -13.6025    1.5755 C   0  0  0  0  0  0  0  0  0  0  0  0
    1.5438  -14.7893    0.8609 C   0  0  0  0  0  0  0  0  0  0  0  0
    0.9314  -14.9664   -0.2677 C   0  0  0  0  0  0  0  0  0  0  0  0
   -0.1082  -14.0560   -0.7859 C   0  0  0  0  0  0  0  0  0  0  0  0
   -0.4774  -12.9928   -0.1201 C   0  0  0  0  0  0  0  0  0  0  0  0
    0.1434  -12.7533    1.1839 C   0  0  0  0  0  0  0  0  0  0  0  0
   -0.2892  -11.6224    1.8982 N   0  0  0  0  0  0  0  0  0  0  0  0
    0.0401   -4.9489    1.8503 O   0  0  0  0  0  0  0  0  0  0  0  0
   -0.7934   -4.4974    1.0328 C   0  0  0  0  0  0  0  0  0  0  0  0
  3  7  1  0
  7  8  1  0
  6 18  1  0
 18 19  1  0
 11 12  1  0
 12 13  2  0
 13 14  1  0
 14 15  2  0
 15 16  1  0
  1  2  2  0
  2  6  1  0
  5  6  2  0
  4  5  1  0
  3  4  2  0
  1  3  1  0
  8  9  2  0
  9 10  1  0
 10 11  2  0
 11 16  1  0
 16 17  2  0
  8 17  1  0
M  END

$$$$
No_1415-/export/home/yangzhenyu/potential_scad_32_flow//YTHDC2/2024-12-06-03-22-00/
     RDKit          3D

 17 18  0  0  0  0  0  0  0  0999 V2000
    1.1787   -8.0297    3.5154 C   0  0  0  0  0  0  0  0  0  0  0  0
    1.0491   -6.8434    2.9820 C   0  0  0  0  0  0  0  0  0  0  0  0
    0.9905   -9.0774    2.6527 C   0  0  0  0  0  0  0  0  0  0  0  0
    0.7897   -8.9519    1.3691 C   0  0  0  0  0  0  0  0  0  0  0  0
    0.7018   -7.7198    0.7892 C   0  0  0  0  0  0  0  0  0  0  0  0
    0.8918   -6.5957    1.6117 C   0  0  0  0  0  0  0  0  0  0  0  0
    1.0998  -10.4710    3.2437 C   0  0  0  0  0  0  0  0  0  0  0  0
    1.3102  -11.5554    2.5214 C   0  0  0  0  0  0  0  0  0  0  0  0
    1.4257  -12.8124    3.1919 C   0  0  0  0  0  0  0  0  0  0  0  0
    0.9222  -13.9339    2.5039 C   0  0  0  0  0  0  0  0  0  0  0  0
   -0.1904  -14.0081    1.9344 C   0  0  0  0  0  0  0  0  0  0  0  0
    0.8519   -5.2583    1.2471 C   0  0  0  0  0  0  0  0  0  0  0  0
   -0.5829  -15.0683    1.6012 C   0  0  0  0  0  0  0  0  0  0  0  0
    0.0600  -16.2833    1.5744 C   0  0  0  0  0  0  0  0  0  0  0  0
    1.2879  -16.3141    2.2454 C   0  0  0  0  0  0  0  0  0  0  0  0
    1.8378  -15.1295    2.7287 C   0  0  0  0  0  0  0  0  0  0  0  0
    1.5385   -4.3448    1.9015 O   0  0  0  0  0  0  0  0  0  0  0  0
  3  7  1  0
  7  8  2  3
  8  9  1  0
  9 10  1  0
  6 12  1  0
 12 17  2  0
  1  2  2  0
  2  6  1  0
  5  6  2  0
  4  5  1  0
  3  4  2  0
  1  3  1  0
 10 11  2  0
 11 13  1  0
 13 14  2  0
 14 15  1  0
 15 16  2  0
 10 16  1  0
M  END

$$$$
No_1416-/export/home/yangzhenyu/potential_scad_32_flow//YTHDC2/2024-12-06-03-22-00/
     RDKit          3D

 18 19  0  0  0  0  0  0  0  0999 V2000
    1.1787   -8.0297    3.5154 C   0  0  0  0  0  0  0  0  0  0  0  0
    1.1048   -9.2215    3.2892 C   0  0  0  0  0  0  0  0  0  0  0  0
    1.2339   -9.7611    2.0189 C   0  0  0  0  0  0  0  0  0  0  0  0
    1.3583   -9.0036    0.9764 C   0  0  0  0  0  0  0  0  0  0  0  0
    1.5996   -7.6362    1.1311 C   0  0  0  0  0  0  0  0  0  0  0  0
    1.4830   -7.0928    2.3626 C   0  0  0  0  0  0  0  0  0  0  0  0
    1.3121   -5.7497    2.5440 C   0  0  0  0  0  0  0  0  0  0  0  0
    1.1998  -11.2296    1.8484 N   0  0  0  0  0  0  0  0  0  0  0  0
    0.4699  -11.6810    0.7971 C   0  0  0  0  0  0  0  0  0  0  0  0
   -0.5647  -12.2586    1.1410 C   0  0  0  0  0  0  0  0  0  0  0  0
   -1.7201  -11.8546    0.7879 C   0  0  0  0  0  0  0  0  0  0  0  0
   -2.8758  -12.2113    1.4566 C   0  0  0  0  0  0  0  0  0  0  0  0
   -2.8457  -13.1806    2.4264 C   0  0  0  0  0  0  0  0  0  0  0  0
   -1.6169  -13.6419    2.9023 C   0  0  0  0  0  0  0  0  0  0  0  0
   -0.4649  -13.2472    2.2825 C   0  0  0  0  0  0  0  0  0  0  0  0
    0.7709  -13.7578    2.6651 C   0  0  0  0  0  0  0  0  0  0  0  0
    1.4800  -14.4752    1.9142 C   0  0  0  0  0  0  0  0  0  0  0  0
    1.8192  -15.5058    1.8804 C   0  0  0  0  0  0  0  0  0  0  0  0
  6  7  1  0
  3  8  1  0
  8  9  1  0
  9 10  1  0
 15 16  1  0
 16 17  1  0
 17 18  2  0
  1  2  2  0
  2  3  1  0
  3  4  2  0
  4  5  1  0
  5  6  2  0
  1  6  1  0
 10 11  2  0
 11 12  1  0
 12 13  2  0
 13 14  1  0
 14 15  2  0
 10 15  1  0
M  END

$$$$
No_1417-/export/home/yangzhenyu/potential_scad_32_flow//YTHDC2/2024-12-06-03-22-00/
     RDKit          3D

 18 19  0  0  1  0  0  0  0  0999 V2000
    1.1787   -8.0297    3.5154 C   0  0  0  0  0  0  0  0  0  0  0  0
    1.0491   -6.8434    2.9820 C   0  0  0  0  0  0  0  0  0  0  0  0
    0.0950   -8.8404    3.2292 C   0  0  0  0  0  0  0  0  0  0  0  0
   -0.9173   -8.4596    2.5152 C   0  0  0  0  0  0  0  0  0  0  0  0
   -1.0331   -7.2162    2.0653 C   0  0  0  0  0  0  0  0  0  0  0  0
   -0.0105   -6.3168    2.3081 C   0  0  0  0  0  0  0  0  0  0  0  0
    0.1150   -4.9910    1.8495 C   0  0  2  0  0  0  0  0  0  0  0  0
   -0.1376   -4.7952    0.5550 C   0  0  0  0  0  0  0  0  0  0  0  0
   -0.2146   -3.3857    0.2341 C   0  0  0  0  0  0  0  0  0  0  0  0
    0.5012   -2.6512    1.3246 C   0  0  2  0  0  0  0  0  0  0  0  0
    0.5804   -3.6794    2.3214 C   0  0  2  0  0  0  0  0  0  0  0  0
    0.1839  -10.2497    3.7372 Cl  0  0  0  0  0  0  0  0  0  0  0  0
   -0.4308   -2.7105   -0.9506 Cl  0  0  0  0  0  0  0  0  0  0  0  0
    1.1004   -3.5571    3.6543 C   0  0  0  0  0  0  0  0  0  0  0  0
    0.6078   -1.4395    1.5698 C   0  0  0  0  0  0  0  0  0  0  0  0
   -0.4769   -0.6694    2.0546 C   0  0  0  0  0  0  0  0  0  0  0  0
   -1.0910   -1.1133    2.9460 C   0  0  0  0  0  0  0  0  0  0  0  0
   -0.2662    0.8946    1.9914 C   0  0  0  0  0  0  0  0  0  0  0  0
  7  6  1  6
  7  8  1  0
  8  9  2  0
  9 10  1  0
  7 11  1  0
 10 11  1  0
  3 12  1  0
  9 13  1  0
 11 14  1  6
 10 15  1  1
 15 16  1  0
 16 17  1  0
 16 18  1  0
  1  2  2  0
  2  6  1  0
  5  6  2  0
  4  5  1  0
  3  4  2  0
  1  3  1  0
M  END

$$$$
No_1418-/export/home/yangzhenyu/potential_scad_32_flow//YTHDC2/2024-12-06-03-22-00/
     RDKit          3D

 17 17  0  0  0  0  0  0  0  0999 V2000
    1.1787   -8.0297    3.5154 N   0  0  0  0  0  0  0  0  0  0  0  0
    1.0818   -9.0751    3.2053 C   0  0  0  0  0  0  0  0  0  0  0  0
    0.7576   -9.3725    1.9159 C   0  0  0  0  0  0  0  0  0  0  0  0
    0.8823   -8.4917    1.0547 C   0  0  0  0  0  0  0  0  0  0  0  0
    1.4631   -7.3107    1.2451 C   0  0  0  0  0  0  0  0  0  0  0  0
    1.6470   -6.9326    2.5669 C   0  0  0  0  0  0  0  0  0  0  0  0
    0.8161  -10.1250    4.2446 C   0  0  0  0  0  0  0  0  0  0  0  0
    1.7171  -11.0988    4.2929 N   0  0  0  0  0  0  0  0  0  0  0  0
   -0.3450  -10.2704    4.8476 O   0  0  0  0  0  0  0  0  0  0  0  0
    0.8355   -8.9231   -0.4042 C   0  0  0  0  0  0  0  0  0  0  0  0
   -0.4970   -9.0769   -0.7270 O   0  0  0  0  0  0  0  0  0  0  0  0
    1.5113   -8.6241   -1.3264 O   0  0  0  0  0  0  0  0  0  0  0  0
    1.8755   -5.4690    3.0969 Cl  0  0  0  0  0  0  0  0  0  0  0  0
    2.8025  -11.2358    3.5907 C   0  0  0  0  0  0  0  0  0  0  0  0
    2.5213  -12.0901    2.6453 C   0  0  0  0  0  0  0  0  0  0  0  0
    2.0110  -13.4554    2.8470 C   0  0  0  0  0  0  0  0  0  0  0  0
    1.7508  -14.3759    1.8950 C   0  0  0  0  0  0  0  0  0  0  0  0
  2  7  1  0
  7  8  1  0
  7  9  2  0
  4 10  1  0
 10 11  2  0
 10 12  1  0
  6 13  1  0
  8 14  1  0
 14 15  1  0
 15 16  1  0
 16 17  1  0
  1  2  2  0
  2  3  1  0
  3  4  2  0
  4  5  1  0
  5  6  2  0
  1  6  1  0
M  END

$$$$
No_1419-/export/home/yangzhenyu/potential_scad_32_flow//YTHDC2/2024-12-06-03-22-00/
     RDKit          3D

 18 20  0  0  1  0  0  0  0  0999 V2000
    1.1787   -8.0297    3.5154 C   0  0  0  0  0  0  0  0  0  0  0  0
    1.0491   -6.8434    2.9820 C   0  0  0  0  0  0  0  0  0  0  0  0
    1.9985   -8.9840    2.8958 C   0  0  1  0  0  0  0  0  0  0  0  0
    1.9135  -10.3404    3.6266 C   0  0  0  0  0  0  0  0  0  0  0  0
    1.3291  -11.3908    3.0222 C   0  0  0  0  0  0  0  0  0  0  0  0
    1.2749  -12.5326    3.7562 C   0  0  0  0  0  0  0  0  0  0  0  0
    1.8025   -5.7637    3.3237 C   0  0  0  0  0  0  0  0  0  0  0  0
    0.6991  -13.6717    3.1451 N   0  0  0  0  0  0  0  0  0  0  0  0
    1.0963  -11.4004    1.7161 C   0  0  0  0  0  0  0  0  0  0  0  0
    1.3756  -10.3025    0.8177 C   0  0  0  0  0  0  0  0  0  0  0  0
    1.7439   -9.0437    1.5253 C   0  0  0  0  0  0  0  0  0  0  0  0
    1.7462   -8.0829    0.7657 O   0  0  0  0  0  0  0  0  0  0  0  0
    1.5102   -4.5456    2.6414 N   0  0  0  0  0  0  0  0  0  0  0  0
    0.7219  -12.5397    1.0570 C   0  0  0  0  0  0  0  0  0  0  0  0
    0.6126  -13.7851    1.9484 C   0  0  0  0  0  0  0  0  0  0  0  0
    1.1559  -10.3186   -0.3719 O   0  0  0  0  0  0  0  0  0  0  0  0
    1.1880   -4.7953    1.3352 C   0  0  0  0  0  0  0  0  0  0  0  0
    0.6406   -6.1768    1.6464 N   0  0  0  0  0  0  0  0  0  0  0  0
  1  2  1  0
  3  1  1  1
  3  4  1  0
  4  5  1  0
  2  7  1  0
  9 10  1  0
  3 11  1  0
 10 11  1  0
 11 12  2  0
  7 13  1  0
 10 16  2  0
 13 17  1  0
  2 18  2  0
 17 18  1  0
  5  6  2  0
  6  8  1  0
  8 15  2  0
 14 15  1  0
  9 14  2  0
  5  9  1  0
M  END

$$$$
No_1420-/export/home/yangzhenyu/potential_scad_32_flow//YTHDC2/2024-12-06-03-22-00/
     RDKit          3D

 17 17  0  0  0  0  0  0  0  0999 V2000
    1.1787   -8.0297    3.5154 N   0  0  0  0  0  0  0  0  0  0  0  0
    0.8669   -7.0905    2.8589 C   0  0  0  0  0  0  0  0  0  0  0  0
    1.0447   -7.3244    1.4123 C   0  0  0  0  0  0  0  0  0  0  0  0
    1.3746   -8.4389    1.0864 C   0  0  0  0  0  0  0  0  0  0  0  0
    1.6686   -9.1952    2.5608 C   0  0  0  0  0  0  0  0  0  0  0  0
    2.0321  -10.4919    2.7987 C   0  0  0  0  0  0  0  0  0  0  0  0
    2.0841  -10.9682    3.9936 C   0  0  0  0  0  0  0  0  0  0  0  0
    1.6734   -9.1115   -0.0210 C   0  0  0  0  0  0  0  0  0  0  0  0
    1.9591   -8.5403   -1.0674 O   0  0  0  0  0  0  0  0  0  0  0  0
    1.8534  -10.4887   -0.1179 O   0  0  0  0  0  0  0  0  0  0  0  0
    1.2773  -11.7205    4.3399 O   0  0  0  0  0  0  0  0  0  0  0  0
    3.1507  -10.7101    4.8344 O   0  0  0  0  0  0  0  0  0  0  0  0
    0.6177   -5.8343    3.4575 C   0  0  0  0  0  0  0  0  0  0  0  0
    0.7622   -4.6702    2.6819 C   0  0  0  0  0  0  0  0  0  0  0  0
    1.3618   -4.6615    1.4942 C   0  0  0  0  0  0  0  0  0  0  0  0
    0.4261   -3.3581    3.5842 C   0  0  0  0  0  0  0  0  0  0  0  0
    1.4509   -2.5020    3.7772 C   0  0  0  0  0  0  0  0  0  0  0  0
  1  2  1  0
  2  3  2  0
  3  4  1  0
  1  5  1  0
  4  5  2  0
  5  6  1  0
  6  7  1  0
  4  8  1  0
  8  9  2  0
  8 10  1  0
  7 11  1  0
  7 12  2  0
  2 13  1  0
 13 14  2  3
 14 15  1  0
 14 16  1  0
 16 17  1  0
M  END

$$$$
No_1421-/export/home/yangzhenyu/potential_scad_32_flow//YTHDC2/2024-12-06-03-22-00/
     RDKit          3D

 19 20  0  0  1  0  0  0  0  0999 V2000
    1.1787   -8.0297    3.5154 C   0  0  0  0  0  0  0  0  0  0  0  0
    1.1048   -9.2215    3.2892 C   0  0  0  0  0  0  0  0  0  0  0  0
    1.0240   -9.7790    2.0239 C   0  0  0  0  0  0  0  0  0  0  0  0
    1.1393   -9.0211    0.9686 C   0  0  0  0  0  0  0  0  0  0  0  0
    1.4051   -7.6500    1.1251 C   0  0  0  0  0  0  0  0  0  0  0  0
    1.4868   -7.1041    2.3534 C   0  0  0  0  0  0  0  0  0  0  0  0
    1.5562   -5.7208    2.5782 C   0  0  0  0  0  0  0  0  0  0  0  0
    0.8750  -11.2135    1.9117 C   0  0  2  0  0  0  0  0  0  0  0  0
    1.8912  -12.0349    2.0516 N   0  0  0  0  0  0  0  0  0  0  0  0
    1.7409  -13.3208    1.7640 C   0  0  0  0  0  0  0  0  0  0  0  0
    1.0433  -13.7134    0.8005 C   0  0  0  0  0  0  0  0  0  0  0  0
   -0.0404  -12.9185    0.3896 C   0  0  0  0  0  0  0  0  0  0  0  0
   -0.0082  -11.5243    0.9117 C   0  0  0  0  0  0  0  0  0  0  0  0
    1.5229   -5.2368    3.8109 O   0  0  0  0  0  0  0  0  0  0  0  0
    1.1177   -4.9034    1.6439 O   0  0  0  0  0  0  0  0  0  0  0  0
    2.7665  -14.1983    2.2312 O   0  0  0  0  0  0  0  0  0  0  0  0
   -1.2600  -11.0947    1.1722 O   0  0  0  0  0  0  0  0  0  0  0  0
    1.1560   -9.4403   -0.4210 C   0  0  0  0  0  0  0  0  0  0  0  0
    2.0457   -9.9358   -1.0653 O   0  0  0  0  0  0  0  0  0  0  0  0
  6  7  1  0
  8  3  1  6
  8  9  1  0
  9 10  1  0
 10 11  1  0
  8 13  1  0
 12 13  1  0
  7 14  1  0
  7 15  2  0
 10 16  2  0
 13 17  2  0
  4 18  1  0
 18 19  2  0
 11 12  1  0
  1  2  2  0
  2  3  1  0
  3  4  2  0
  4  5  1  0
  5  6  2  0
  1  6  1  0
M  END

$$$$
No_1422-/export/home/yangzhenyu/potential_scad_32_flow//YTHDC2/2024-12-06-03-22-00/
     RDKit          3D

 19 21  0  0  0  0  0  0  0  0999 V2000
    1.1787   -8.0297    3.5154 C   0  0  0  0  0  0  0  0  0  0  0  0
    1.1048   -9.2215    3.2892 C   0  0  0  0  0  0  0  0  0  0  0  0
    1.3627  -10.1721    4.3044 C   0  0  0  0  0  0  0  0  0  0  0  0
    1.0682  -11.5187    4.0618 C   0  0  0  0  0  0  0  0  0  0  0  0
    0.6332  -11.9655    2.9682 C   0  0  0  0  0  0  0  0  0  0  0  0
    0.4776  -11.1308    1.9203 C   0  0  0  0  0  0  0  0  0  0  0  0
    0.7470   -9.8274    2.0368 C   0  0  0  0  0  0  0  0  0  0  0  0
    0.5535   -7.1314    2.6861 C   0  0  0  0  0  0  0  0  0  0  0  0
    0.2950   -7.6000    1.3276 C   0  0  0  0  0  0  0  0  0  0  0  0
    0.2692   -8.8631    1.0973 C   0  0  0  0  0  0  0  0  0  0  0  0
   -0.0514   -6.7125    0.4242 C   0  0  0  0  0  0  0  0  0  0  0  0
   -0.2267   -5.3889    0.7493 N   0  0  0  0  0  0  0  0  0  0  0  0
    0.4808  -13.3900    2.7206 C   0  0  0  0  0  0  0  0  0  0  0  0
    1.4369  -14.3035    3.1138 C   0  0  0  0  0  0  0  0  0  0  0  0
    1.0530  -15.6561    2.9405 C   0  0  0  0  0  0  0  0  0  0  0  0
    0.0999  -16.0850    2.2792 C   0  0  0  0  0  0  0  0  0  0  0  0
   -0.7378  -15.2490    1.7396 C   0  0  0  0  0  0  0  0  0  0  0  0
   -0.5032  -13.8817    1.9275 C   0  0  0  0  0  0  0  0  0  0  0  0
   -0.0889   -5.0801    1.7010 H   0  0  0  0  0  0  0  0  0  0  0  0
  9 11  1  0
 11 12  2  0
  5 13  1  0
  2  3  1  0
  3  4  2  0
  4  5  1  0
  5  6  2  0
  6  7  1  0
 13 14  2  0
 14 15  1  0
 15 16  2  0
 16 17  1  0
 17 18  2  0
 13 18  1  0
  1  2  2  0
  2  7  1  0
  7 10  2  0
  9 10  1  0
  8  9  2  0
  1  8  1  0
 12 19  1  0
M  END

$$$$
No_1423-/export/home/yangzhenyu/potential_scad_32_flow//YTHDC2/2024-12-06-03-22-00/
     RDKit          3D

 21 22  0  0  1  0  0  0  0  0999 V2000
    1.1787   -8.0297    3.5154 C   0  0  0  0  0  0  0  0  0  0  0  0
    1.0491   -6.8434    2.9820 C   0  0  0  0  0  0  0  0  0  0  0  0
    0.0950   -8.8404    3.2292 C   0  0  0  0  0  0  0  0  0  0  0  0
   -0.9173   -8.4596    2.5152 C   0  0  0  0  0  0  0  0  0  0  0  0
   -1.0331   -7.2162    2.0653 C   0  0  0  0  0  0  0  0  0  0  0  0
   -0.0105   -6.3168    2.3081 C   0  0  0  0  0  0  0  0  0  0  0  0
    0.1935  -10.3737    3.7416 C   0  0  0  0  0  0  0  0  0  0  0  0
    1.2406  -10.8901    4.0986 C   0  0  0  0  0  0  0  0  0  0  0  0
    1.1186  -12.3145    4.4006 C   0  0  0  0  0  0  0  0  0  0  0  0
    0.1013  -12.9075    3.8532 C   0  0  0  0  0  0  0  0  0  0  0  0
   -0.9044  -12.4076    3.3546 C   0  0  0  0  0  0  0  0  0  0  0  0
   -0.9318  -11.0156    3.2558 C   0  0  0  0  0  0  0  0  0  0  0  0
   -0.1401   -5.0294    1.8030 Cl  0  0  0  0  0  0  0  0  0  0  0  0
    0.1624  -14.3508    4.0178 O   0  0  0  0  0  0  0  0  0  0  0  0
    0.3779  -15.1664    2.9154 C   0  0  0  0  0  0  0  0  0  0  0  0
    0.8916  -14.6193    1.8899 C   0  0  1  0  0  0  0  0  0  0  0  0
    2.3552  -14.5234    1.7866 C   0  0  0  0  0  0  0  0  0  0  0  0
    2.8932  -13.7709    0.7737 N   0  0  0  0  0  0  0  0  0  0  0  0
    0.1555  -14.1741    0.8216 C   0  0  0  0  0  0  0  0  0  0  0  0
   -1.1228  -14.5235    0.7193 C   0  0  0  0  0  0  0  0  0  0  0  0
    2.2867  -13.2977    0.1192 H   0  0  0  0  0  0  0  0  0  0  0  0
  3  7  1  0
  6 13  1  0
 10 14  1  0
 14 15  1  0
 16 15  1  6
 16 17  1  0
 17 18  2  0
 16 19  1  0
 19 20  1  0
  1  2  2  0
  2  6  1  0
  5  6  2  0
  4  5  1  0
  3  4  2  0
  1  3  1  0
  7  8  2  0
  8  9  1  0
  9 10  2  0
 10 11  1  0
 11 12  2  0
  7 12  1  0
 18 21  1  0
M  END

$$$$
No_1424-/export/home/yangzhenyu/potential_scad_32_flow//YTHDC2/2024-12-06-03-22-00/
     RDKit          3D

 11 11  0  0  0  0  0  0  0  0999 V2000
    1.1787   -8.0297    3.5154 C   0  0  0  0  0  0  0  0  0  0  0  0
    1.1048   -9.2215    3.2892 C   0  0  0  0  0  0  0  0  0  0  0  0
    1.2339   -9.7611    2.0189 C   0  0  0  0  0  0  0  0  0  0  0  0
    1.3583   -9.0036    0.9764 C   0  0  0  0  0  0  0  0  0  0  0  0
    1.5996   -7.6362    1.1311 C   0  0  0  0  0  0  0  0  0  0  0  0
    1.4830   -7.0928    2.3626 C   0  0  0  0  0  0  0  0  0  0  0  0
    1.1008  -11.2372    1.8542 C   0  0  0  0  0  0  0  0  0  0  0  0
    0.4812  -11.6084    0.6459 O   0  0  0  0  0  0  0  0  0  0  0  0
    1.6571  -12.0577    2.5947 O   0  0  0  0  0  0  0  0  0  0  0  0
    1.5579   -5.4613    2.6991 N   0  0  0  0  0  0  0  0  0  0  0  0
    1.0433   -4.6937    1.8454 O   0  0  0  0  0  0  0  0  0  0  0  0
  3  7  1  0
  7  8  1  0
  7  9  2  0
  6 10  1  0
 10 11  2  0
  1  2  2  0
  2  3  1  0
  3  4  2  0
  4  5  1  0
  5  6  2  0
  1  6  1  0
M  END

$$$$
No_1425-/export/home/yangzhenyu/potential_scad_32_flow//YTHDC2/2024-12-06-03-22-00/
     RDKit          3D

 19 21  0  0  1  0  0  0  0  0999 V2000
    1.1787   -8.0297    3.5154 C   0  0  0  0  0  0  0  0  0  0  0  0
    1.0491   -6.8434    2.9820 C   0  0  1  0  0  0  0  0  0  0  0  0
    1.9985   -8.9840    2.8958 C   0  0  0  0  0  0  0  0  0  0  0  0
    1.9135  -10.3404    3.6266 C   0  0  0  0  0  0  0  0  0  0  0  0
    0.7479  -10.9191    3.7202 C   0  0  0  0  0  0  0  0  0  0  0  0
    1.8085   -5.7988    3.2380 C   0  0  0  0  0  0  0  0  0  0  0  0
    0.2524  -11.5736    2.6428 N   0  0  0  0  0  0  0  0  0  0  0  0
    1.4848   -4.6377    2.4996 C   0  0  0  0  0  0  0  0  0  0  0  0
    0.4777   -5.0084    1.3986 C   0  0  0  0  0  0  0  0  0  0  0  0
    0.2671   -6.4524    1.6916 C   0  0  0  0  0  0  0  0  0  0  0  0
   -0.9179  -11.6183    2.4409 C   0  0  0  0  0  0  0  0  0  0  0  0
   -1.5021  -12.4616    1.5506 C   0  0  0  0  0  0  0  0  0  0  0  0
   -0.5563  -13.1652    0.8040 C   0  0  0  0  0  0  0  0  0  0  0  0
    0.8864  -12.7362    1.3450 C   0  0  0  0  0  0  0  0  0  0  0  0
   -0.4222   -7.1412    0.9715 C   0  0  1  0  0  0  0  0  0  0  0  0
   -0.0878   -8.2850    0.2140 N   0  0  0  0  0  0  0  0  0  0  0  0
   -1.0244   -9.1182   -0.3472 C   0  0  0  0  0  0  0  0  0  0  0  0
   -2.1912   -8.5944   -0.0767 N   0  0  0  0  0  0  0  0  0  0  0  0
   -1.8787   -7.3699    0.6602 C   0  0  0  0  0  0  0  0  0  0  0  0
  2  1  1  6
  1  3  1  0
  3  4  1  0
  4  5  1  0
  2  6  1  0
  5  7  1  0
  6  8  2  0
  8  9  1  0
  2 10  1  0
  9 10  1  0
  7 11  1  0
 11 12  2  0
 12 13  1  0
  7 14  1  0
 13 14  1  0
 15 10  1  1
 15 16  1  0
 16 17  2  0
 17 18  1  0
 15 19  1  0
 18 19  1  0
M  END

$$$$
No_1426-/export/home/yangzhenyu/potential_scad_32_flow//YTHDC2/2024-12-06-03-22-00/
     RDKit          3D

 20 22  0  0  1  0  0  0  0  0999 V2000
    1.1787   -8.0297    3.5154 C   0  0  0  0  0  0  0  0  0  0  0  0
    1.1048   -9.2215    3.2892 C   0  0  0  0  0  0  0  0  0  0  0  0
    1.3627  -10.1721    4.3044 C   0  0  0  0  0  0  0  0  0  0  0  0
    1.7354  -11.4730    3.9023 C   0  0  0  0  0  0  0  0  0  0  0  0
    1.8080  -11.8127    2.7216 C   0  0  0  0  0  0  0  0  0  0  0  0
    1.5854  -11.0021    1.7249 C   0  0  0  0  0  0  0  0  0  0  0  0
    1.3573   -9.7389    1.9287 C   0  0  0  0  0  0  0  0  0  0  0  0
    1.1102   -8.8712    0.9017 C   0  0  0  0  0  0  0  0  0  0  0  0
    1.5724   -9.1697   -0.3048 O   0  0  0  0  0  0  0  0  0  0  0  0
    0.1869   -7.8867    0.8800 C   0  0  0  0  0  0  0  0  0  0  0  0
    0.3584   -7.1741    2.5562 C   0  0  2  0  0  0  0  0  0  0  0  0
    2.1594  -13.4380    2.3198 Cl  0  0  0  0  0  0  0  0  0  0  0  0
    0.0583   -5.8868    2.6435 C   0  0  1  0  0  0  0  0  0  0  0  0
    1.0378   -4.9185    2.6648 C   0  0  0  0  0  0  0  0  0  0  0  0
   -1.2158   -5.3712    2.5769 C   0  0  0  0  0  0  0  0  0  0  0  0
   -1.4526   -3.9932    2.6238 C   0  0  0  0  0  0  0  0  0  0  0  0
   -0.3790   -3.1476    2.5703 C   0  0  0  0  0  0  0  0  0  0  0  0
    0.8739   -3.6285    2.5840 C   0  0  1  0  0  0  0  0  0  0  0  0
    1.9470   -2.6904    2.6284 C   0  0  0  0  0  0  0  0  0  0  0  0
    2.3766   -5.4089    2.6869 O   0  0  0  0  0  0  0  0  0  0  0  0
  1  2  1  0
  7  8  1  0
  8  9  2  0
  8 10  1  0
 11  1  1  6
 10 11  1  0
  5 12  1  0
 11 13  1  0
 13 14  1  0
 13 15  1  6
 16 17  1  0
 14 18  1  0
 17 18  1  0
 18 19  1  1
 14 20  2  0
 15 16  1  0
  2  3  2  0
  3  4  1  0
  4  5  2  0
  5  6  1  0
  6  7  2  0
  2  7  1  0
M  END

$$$$
No_1427-/export/home/yangzhenyu/potential_scad_32_flow//YTHDC2/2024-12-06-03-22-00/
     RDKit          3D

 16 17  0  0  0  0  0  0  0  0999 V2000
    1.1787   -8.0297    3.5154 C   0  0  0  0  0  0  0  0  0  0  0  0
    1.1048   -9.2215    3.2892 C   0  0  0  0  0  0  0  0  0  0  0  0
    1.2339   -9.7611    2.0189 C   0  0  0  0  0  0  0  0  0  0  0  0
    1.1954  -11.2312    1.8661 C   0  0  0  0  0  0  0  0  0  0  0  0
    1.5546  -12.1691    2.7931 C   0  0  0  0  0  0  0  0  0  0  0  0
    0.5849   -7.0929    2.5729 C   0  0  0  0  0  0  0  0  0  0  0  0
    0.5567   -7.6699    1.1955 C   0  0  0  0  0  0  0  0  0  0  0  0
    0.7903   -8.9699    0.9209 C   0  0  0  0  0  0  0  0  0  0  0  0
    1.5479  -13.4950    2.3568 C   0  0  0  0  0  0  0  0  0  0  0  0
    1.2456  -13.9001    1.1648 C   0  0  0  0  0  0  0  0  0  0  0  0
    1.0233  -13.0589    0.1983 C   0  0  0  0  0  0  0  0  0  0  0  0
    0.9548  -11.6626    0.4956 C   0  0  0  0  0  0  0  0  0  0  0  0
    0.6175   -5.4409    2.6606 C   0  0  0  0  0  0  0  0  0  0  0  0
    1.7159   -4.9469    3.1881 C   0  0  0  0  0  0  0  0  0  0  0  0
    1.9596  -14.4031    3.4101 O   0  0  0  0  0  0  0  0  0  0  0  0
    1.4862   -3.5121    3.2601 C   0  0  0  0  0  0  0  0  0  0  0  0
  3  4  1  0
  6 13  1  0
 13 14  1  0
  9 15  1  0
 14 16  2  0
  1  2  2  0
  2  3  1  0
  3  8  2  0
  7  8  1  0
  6  7  2  0
  1  6  1  0
  4  5  2  0
  5  9  1  0
  9 10  2  0
 10 11  1  0
 11 12  2  0
  4 12  1  0
M  END

$$$$
No_1428-/export/home/yangzhenyu/potential_scad_32_flow//YTHDC2/2024-12-06-03-22-00/
     RDKit          3D

 18 19  0  0  1  0  0  0  0  0999 V2000
    1.1787   -8.0297    3.5154 C   0  0  0  0  0  0  0  0  0  0  0  0
    1.1048   -9.2215    3.2892 C   0  0  0  0  0  0  0  0  0  0  0  0
    1.2339   -9.7611    2.0189 C   0  0  0  0  0  0  0  0  0  0  0  0
    1.3583   -9.0036    0.9764 C   0  0  0  0  0  0  0  0  0  0  0  0
    1.5996   -7.6362    1.1311 C   0  0  0  0  0  0  0  0  0  0  0  0
    1.4830   -7.0928    2.3626 C   0  0  0  0  0  0  0  0  0  0  0  0
    1.5395   -5.7300    2.6182 C   0  0  0  0  0  0  0  0  0  0  0  0
    1.1775  -11.2233    1.8407 C   0  0  1  0  0  0  0  0  0  0  0  0
    0.7252  -11.5870    0.5412 C   0  0  0  0  0  0  0  0  0  0  0  0
   -0.5181  -12.2492    0.6137 C   0  0  0  0  0  0  0  0  0  0  0  0
   -1.4841  -11.7416   -0.0226 C   0  0  0  0  0  0  0  0  0  0  0  0
   -1.3318  -10.7913   -0.8181 C   0  0  0  0  0  0  0  0  0  0  0  0
   -1.8391  -10.4240   -1.8280 C   0  0  0  0  0  0  0  0  0  0  0  0
   -1.5811   -9.1731   -2.6852 C   0  0  0  0  0  0  0  0  0  0  0  0
   -0.5380   -8.4843   -1.9355 C   0  0  0  0  0  0  0  0  0  0  0  0
   -0.0250   -8.7026   -0.7823 C   0  0  0  0  0  0  0  0  0  0  0  0
   -0.1931   -9.8766   -0.2504 C   0  0  0  0  0  0  0  0  0  0  0  0
    2.0809  -11.9070    2.5671 C   0  0  0  0  0  0  0  0  0  0  0  0
  6  7  1  0
  3  8  1  0
  8  9  1  0
  9 10  1  0
 10 11  1  0
 11 12  1  0
  8 18  1  6
 12 13  2  0
 13 14  1  0
 14 15  2  0
 15 16  1  0
 16 17  2  0
 12 17  1  0
  1  2  2  0
  2  3  1  0
  3  4  2  0
  4  5  1  0
  5  6  2  0
  1  6  1  0
M  END

$$$$
No_1429-/export/home/yangzhenyu/potential_scad_32_flow//YTHDC2/2024-12-06-03-22-00/
     RDKit          3D

 19 20  0  0  1  0  0  0  0  0999 V2000
    1.1787   -8.0297    3.5154 C   0  0  0  0  0  0  0  0  0  0  0  0
    1.1048   -9.2215    3.2892 C   0  0  0  0  0  0  0  0  0  0  0  0
    1.3627  -10.1721    4.3044 C   0  0  0  0  0  0  0  0  0  0  0  0
    1.0682  -11.5187    4.0618 C   0  0  0  0  0  0  0  0  0  0  0  0
    0.6332  -11.9655    2.9682 C   0  0  0  0  0  0  0  0  0  0  0  0
    0.6698  -11.3145    2.0035 C   0  0  0  0  0  0  0  0  0  0  0  0
    0.9069   -9.8966    2.0084 C   0  0  0  0  0  0  0  0  0  0  0  0
    1.0124   -7.0534    2.4581 C   0  0  0  0  0  0  0  0  0  0  0  0
    0.9325   -7.6170    1.1269 P   0  0  1  0  0  0  0  0  0  0  0  0
    0.9077   -9.0324    1.0150 C   0  0  0  0  0  0  0  0  0  0  0  0
   -0.4048   -7.0932    0.4922 O   0  0  0  0  0  0  0  0  0  0  0  0
    1.9101   -7.0631    0.1089 O   0  0  0  0  0  0  0  0  0  0  0  0
    0.8579   -9.5864   -0.3280 C   0  0  0  0  0  0  0  0  0  0  0  0
    1.7128   -9.5474   -1.0115 O   0  0  0  0  0  0  0  0  0  0  0  0
   -0.4161   -9.9534   -0.7096 O   0  0  0  0  0  0  0  0  0  0  0  0
    0.6165  -13.4446    2.8183 C   0  0  0  0  0  0  0  0  0  0  0  0
    1.5302  -14.3343    3.3473 C   0  0  0  0  0  0  0  0  0  0  0  0
    1.3065  -15.6972    3.1795 N   0  0  0  0  0  0  0  0  0  0  0  0
    0.0237  -15.9047    3.1686 O   0  0  0  0  0  0  0  0  0  0  0  0
  1  2  1  0
  1  8  2  0
  8  9  1  0
  7 10  1  0
  9 10  1  0
  9 11  1  6
  9 12  2  0
 10 13  1  0
 13 14  1  0
 13 15  2  0
  5 16  1  0
 16 17  1  0
 17 18  1  0
 18 19  2  0
  2  3  2  0
  3  4  1  0
  4  5  2  0
  5  6  1  0
  6  7  2  0
  2  7  1  0
M  END

$$$$
No_1430-/export/home/yangzhenyu/potential_scad_32_flow//YTHDC2/2024-12-06-03-22-00/
     RDKit          3D

 17 17  0  0  0  0  0  0  0  0999 V2000
    1.1787   -8.0297    3.5154 C   0  0  0  0  0  0  0  0  0  0  0  0
    1.0491   -6.8434    2.9820 C   0  0  0  0  0  0  0  0  0  0  0  0
    0.0950   -8.8404    3.2292 C   0  0  0  0  0  0  0  0  0  0  0  0
   -0.9173   -8.4596    2.5152 C   0  0  0  0  0  0  0  0  0  0  0  0
   -1.0331   -7.2162    2.0653 C   0  0  0  0  0  0  0  0  0  0  0  0
   -0.0105   -6.3168    2.3081 C   0  0  0  0  0  0  0  0  0  0  0  0
    0.0485   -4.9783    1.8782 C   0  0  0  0  0  0  0  0  0  0  0  0
   -0.6974   -4.6139    0.8644 N   0  0  0  0  0  0  0  0  0  0  0  0
    1.1225   -4.1435    2.1836 O   0  0  0  0  0  0  0  0  0  0  0  0
    0.1681  -10.2798    3.6512 C   0  0  0  0  0  0  0  0  0  0  0  0
    1.2250  -10.9398    4.0881 C   0  0  0  0  0  0  0  0  0  0  0  0
    1.1545  -12.3248    3.9985 C   0  0  0  0  0  0  0  0  0  0  0  0
    0.0463  -12.9372    3.6617 C   0  0  0  0  0  0  0  0  0  0  0  0
    0.1811  -14.4089    3.4658 C   0  0  0  0  0  0  0  0  0  0  0  0
   -0.9793  -15.0294    3.0838 C   0  0  0  0  0  0  0  0  0  0  0  0
   -2.0784  -14.3392    2.7176 C   0  0  0  0  0  0  0  0  0  0  0  0
   -2.1893  -13.0014    2.8869 C   0  0  0  0  0  0  0  0  0  0  0  0
  6  7  1  0
  7  8  1  0
  7  9  2  0
  3 10  1  0
 10 11  1  0
 11 12  2  3
 12 13  1  0
 13 14  1  0
 14 15  2  3
 15 16  1  0
 16 17  2  0
  1  2  2  0
  2  6  1  0
  5  6  2  0
  4  5  1  0
  3  4  2  0
  1  3  1  0
M  END

$$$$
No_1431-/export/home/yangzhenyu/potential_scad_32_flow//YTHDC2/2024-12-06-03-22-00/
     RDKit          3D

 19 19  0  0  1  0  0  0  0  0999 V2000
    1.1787   -8.0297    3.5154 C   0  0  0  0  0  0  0  0  0  0  0  0
    1.0491   -6.8434    2.9820 C   0  0  1  0  0  0  0  0  0  0  0  0
    0.9905   -9.0774    2.6527 C   0  0  1  0  0  0  0  0  0  0  0  0
    0.7897   -8.9519    1.3691 C   0  0  0  0  0  0  0  0  0  0  0  0
    0.7018   -7.7198    0.7892 C   0  0  0  0  0  0  0  0  0  0  0  0
    1.4312   -5.5794    3.7443 C   0  0  0  0  0  0  0  0  0  0  0  0
    0.9426   -6.6664    1.5322 C   0  0  0  0  0  0  0  0  0  0  0  0
    0.9192   -5.4040    1.0793 O   0  0  0  0  0  0  0  0  0  0  0  0
    1.1057  -10.5084    3.1751 C   0  0  1  0  0  0  0  0  0  0  0  0
    0.0562  -11.1853    3.4926 C   0  0  0  0  0  0  0  0  0  0  0  0
   -1.0563  -10.4824    3.8932 O   0  0  0  0  0  0  0  0  0  0  0  0
    0.0215  -12.4300    3.9781 O   0  0  0  0  0  0  0  0  0  0  0  0
    2.3212  -11.1025    3.1836 C   0  0  0  0  0  0  0  0  0  0  0  0
    3.0224  -11.0392    4.3720 O   0  0  0  0  0  0  0  0  0  0  0  0
    2.7120   -5.3753    4.0954 O   0  0  0  0  0  0  0  0  0  0  0  0
    0.6010   -4.7452    3.9929 N   0  0  0  0  0  0  0  0  0  0  0  0
    0.9299   -3.4491    4.4347 C   0  0  0  0  0  0  0  0  0  0  0  0
    0.2525   -2.2433    3.7056 C   0  0  0  0  0  0  0  0  0  0  0  0
    0.6618   -2.2789    2.3987 C   0  0  0  0  0  0  0  0  0  0  0  0
  1  2  1  0
  3  4  1  6
  2  6  1  6
  2  7  1  0
  5  7  1  0
  7  8  2  0
  3  9  1  0
  9 10  1  0
 10 11  1  0
 10 12  2  0
  9 13  1  6
 13 14  1  0
  6 15  2  0
  6 16  1  0
 16 17  1  0
 17 18  1  0
 18 19  1  0
  1  3  1  0
  4  5  1  0
M  END

$$$$
No_1432-/export/home/yangzhenyu/potential_scad_32_flow//YTHDC2/2024-12-06-03-22-00/
     RDKit          3D

 18 19  0  0  0  0  0  0  0  0999 V2000
    1.1787   -8.0297    3.5154 C   0  0  0  0  0  0  0  0  0  0  0  0
    1.1048   -9.2215    3.2892 C   0  0  0  0  0  0  0  0  0  0  0  0
    1.3627  -10.1721    4.3044 C   0  0  0  0  0  0  0  0  0  0  0  0
    1.0682  -11.5187    4.0618 C   0  0  0  0  0  0  0  0  0  0  0  0
    0.6332  -11.9655    2.9682 C   0  0  0  0  0  0  0  0  0  0  0  0
    0.4776  -11.1308    1.9203 C   0  0  0  0  0  0  0  0  0  0  0  0
    0.7470   -9.8274    2.0368 C   0  0  0  0  0  0  0  0  0  0  0  0
    1.0387   -7.0301    2.5175 C   0  0  0  0  0  0  0  0  0  0  0  0
    0.9130   -7.5288    1.2013 C   0  0  0  0  0  0  0  0  0  0  0  0
    0.7893   -8.7979    0.9542 C   0  0  0  0  0  0  0  0  0  0  0  0
    0.3998  -13.3695    2.7114 N   0  0  0  0  0  0  0  0  0  0  0  0
    0.9229  -14.0714    1.9191 C   0  0  0  0  0  0  0  0  0  0  0  0
    0.6440  -15.4760    1.9163 C   0  0  0  0  0  0  0  0  0  0  0  0
   -0.5653  -15.8740    1.9861 C   0  0  0  0  0  0  0  0  0  0  0  0
    0.4518   -9.2867   -0.3786 C   0  0  0  0  0  0  0  0  0  0  0  0
   -0.8118   -9.6969   -0.6536 O   0  0  0  0  0  0  0  0  0  0  0  0
    1.1838   -8.8854   -1.3267 O   0  0  0  0  0  0  0  0  0  0  0  0
   -0.8978  -17.0028    2.6780 C   0  0  0  0  0  0  0  0  0  0  0  0
  5 11  1  0
 11 12  1  0
 12 13  1  0
 13 14  1  0
 10 15  1  0
 15 16  1  0
 15 17  2  0
 14 18  2  0
  2  3  1  0
  3  4  2  0
  4  5  1  0
  5  6  2  0
  6  7  1  0
  1  2  2  0
  2  7  1  0
  7 10  2  0
  9 10  1  0
  8  9  2  0
  1  8  1  0
M  END

$$$$
No_1433-/export/home/yangzhenyu/potential_scad_32_flow//YTHDC2/2024-12-06-03-22-00/
     RDKit          3D

 17 17  0  0  1  0  0  0  0  0999 V2000
    1.1787   -8.0297    3.5154 C   0  0  0  0  0  0  0  0  0  0  0  0
    1.0491   -6.8434    2.9820 C   0  0  0  0  0  0  0  0  0  0  0  0
    1.9985   -8.9840    2.8958 C   0  0  0  0  0  0  0  0  0  0  0  0
    1.9135  -10.3404    3.6266 C   0  0  0  0  0  0  0  0  0  0  0  0
    1.3291  -11.3908    3.0222 C   0  0  0  0  0  0  0  0  0  0  0  0
    1.2749  -12.5326    3.7562 C   0  0  0  0  0  0  0  0  0  0  0  0
    0.4248   -6.6481    1.7861 C   0  0  2  0  0  0  0  0  0  0  0  0
    0.4186   -7.4786    1.0077 C   0  0  0  0  0  0  0  0  0  0  0  0
    0.7923  -13.6634    3.1270 C   0  0  0  0  0  0  0  0  0  0  0  0
    0.4633  -13.6746    1.8523 C   0  0  0  0  0  0  0  0  0  0  0  0
    0.7576  -12.3696    1.3758 C   0  0  0  0  0  0  0  0  0  0  0  0
    1.0846  -11.3004    1.7699 C   0  0  0  0  0  0  0  0  0  0  0  0
    0.0599   -5.3023    1.5228 C   0  0  0  0  0  0  0  0  0  0  0  0
    0.8952   -4.1936    1.6682 O   0  0  0  0  0  0  0  0  0  0  0  0
   -1.0922   -4.9341    0.9777 O   0  0  0  0  0  0  0  0  0  0  0  0
    0.2142  -14.8666    1.2348 C   0  0  0  0  0  0  0  0  0  0  0  0
   -0.9439  -14.8229    0.4629 C   0  0  0  0  0  0  0  0  0  0  0  0
  1  2  1  0
  1  3  1  0
  3  4  1  0
  4  5  1  0
  2  7  1  0
  7  8  1  6
  7 13  1  0
 13 14  2  0
 13 15  1  0
 10 16  1  0
 16 17  1  0
  5  6  2  0
  6  9  1  0
  9 10  2  0
 10 11  1  0
 11 12  2  0
  5 12  1  0
M  END

$$$$
No_1434-/export/home/yangzhenyu/potential_scad_32_flow//YTHDC2/2024-12-06-03-22-00/
     RDKit          3D

 20 21  0  0  0  0  0  0  0  0999 V2000
    1.1787   -8.0297    3.5154 C   0  0  0  0  0  0  0  0  0  0  0  0
    1.1048   -9.2215    3.2892 C   0  0  0  0  0  0  0  0  0  0  0  0
    1.3627  -10.1721    4.3044 C   0  0  0  0  0  0  0  0  0  0  0  0
    1.0682  -11.5187    4.0618 C   0  0  0  0  0  0  0  0  0  0  0  0
    0.6332  -11.9655    2.9682 C   0  0  0  0  0  0  0  0  0  0  0  0
    0.4776  -11.1308    1.9203 C   0  0  0  0  0  0  0  0  0  0  0  0
    0.7470   -9.8274    2.0368 C   0  0  0  0  0  0  0  0  0  0  0  0
    1.0387   -7.0301    2.5175 C   0  0  0  0  0  0  0  0  0  0  0  0
    0.9130   -7.5288    1.2013 C   0  0  0  0  0  0  0  0  0  0  0  0
    0.7893   -8.7979    0.9542 C   0  0  0  0  0  0  0  0  0  0  0  0
    0.5241   -9.2578   -0.2817 C   0  0  0  0  0  0  0  0  0  0  0  0
   -0.7560   -9.7391   -0.6285 O   0  0  0  0  0  0  0  0  0  0  0  0
    1.1160   -8.6749   -1.3392 O   0  0  0  0  0  0  0  0  0  0  0  0
    0.5047  -13.3701    2.6851 N   0  0  0  0  0  0  0  0  0  0  0  0
    0.9244  -14.2538    3.5366 C   0  0  0  0  0  0  0  0  0  0  0  0
    1.3740  -15.5778    2.8171 C   0  0  0  0  0  0  0  0  0  0  0  0
    0.9199  -16.6965    3.2285 C   0  0  0  0  0  0  0  0  0  0  0  0
    1.5276  -17.9139    2.7999 C   0  0  0  0  0  0  0  0  0  0  0  0
    2.5840  -17.7794    1.7915 C   0  0  0  0  0  0  0  0  0  0  0  0
    3.1102  -16.5486    1.5902 C   0  0  0  0  0  0  0  0  0  0  0  0
 10 11  1  0
 11 12  2  0
 11 13  1  0
  5 14  1  0
 14 15  1  0
 15 16  1  0
 16 17  1  0
 17 18  2  3
 18 19  1  0
 19 20  2  0
  2  3  1  0
  3  4  2  0
  4  5  1  0
  5  6  2  0
  6  7  1  0
  1  2  2  0
  2  7  1  0
  7 10  2  0
  9 10  1  0
  8  9  2  0
  1  8  1  0
M  END

$$$$
No_1435-/export/home/yangzhenyu/potential_scad_32_flow//YTHDC2/2024-12-06-03-22-00/
     RDKit          3D

 19 20  0  0  0  0  0  0  0  0999 V2000
    1.1787   -8.0297    3.5154 N   0  0  0  0  0  0  0  0  0  0  0  0
    1.0818   -9.0751    3.2053 C   0  0  0  0  0  0  0  0  0  0  0  0
    1.5216  -10.1164    3.9747 C   0  0  0  0  0  0  0  0  0  0  0  0
    1.7650  -11.2320    3.5712 C   0  0  0  0  0  0  0  0  0  0  0  0
    1.4277  -11.6899    2.3702 C   0  0  0  0  0  0  0  0  0  0  0  0
    1.0443  -10.7313    1.4783 C   0  0  0  0  0  0  0  0  0  0  0  0
    0.9294   -9.4471    1.8469 C   0  0  0  0  0  0  0  0  0  0  0  0
    0.3366   -8.5108    1.0081 C   0  0  0  0  0  0  0  0  0  0  0  0
    0.8384   -8.4333   -0.2510 O   0  0  0  0  0  0  0  0  0  0  0  0
   -0.1001   -7.2708    1.3643 O   0  0  0  0  0  0  0  0  0  0  0  0
    1.6078  -13.0999    1.9457 C   0  0  0  0  0  0  0  0  0  0  0  0
    2.0192  -14.0346    2.8612 C   0  0  0  0  0  0  0  0  0  0  0  0
    2.2168  -15.3977    2.3022 C   0  0  0  0  0  0  0  0  0  0  0  0
    1.1173  -16.0565    1.7806 C   0  0  0  0  0  0  0  0  0  0  0  0
   -0.0297  -15.6159    2.0376 C   0  0  0  0  0  0  0  0  0  0  0  0
   -0.6896  -15.9033    3.1676 C   0  0  0  0  0  0  0  0  0  0  0  0
    0.0744  -16.8987    3.9899 C   0  0  0  0  0  0  0  0  0  0  0  0
    0.5294  -17.8744    3.6130 C   0  0  0  0  0  0  0  0  0  0  0  0
    1.6076  -17.4115    2.3887 C   0  0  0  0  0  0  0  0  0  0  0  0
  1  2  1  0
  7  8  1  0
  8  9  2  0
  8 10  1  0
  5 11  1  0
 11 12  1  0
 12 13  1  0
 13 14  1  0
 14 15  1  0
 15 16  1  0
 16 17  1  0
 17 18  1  0
 14 19  1  0
 18 19  1  0
  2  3  2  0
  3  4  1  0
  4  5  2  0
  5  6  1  0
  6  7  2  0
  2  7  1  0
M  END

$$$$
No_1436-/export/home/yangzhenyu/potential_scad_32_flow//YTHDC2/2024-12-06-03-22-00/
     RDKit          3D

 20 20  0  0  0  0  0  0  0  0999 V2000
    1.1787   -8.0297    3.5154 C   0  0  0  0  0  0  0  0  0  0  0  0
    1.0491   -6.8434    2.9820 C   0  0  0  0  0  0  0  0  0  0  0  0
    0.0950   -8.8404    3.2292 C   0  0  0  0  0  0  0  0  0  0  0  0
   -0.9173   -8.4596    2.5152 C   0  0  0  0  0  0  0  0  0  0  0  0
   -1.0331   -7.2162    2.0653 C   0  0  0  0  0  0  0  0  0  0  0  0
   -0.0105   -6.3168    2.3081 C   0  0  0  0  0  0  0  0  0  0  0  0
    0.1150   -4.9910    1.8495 C   0  0  0  0  0  0  0  0  0  0  0  0
   -0.5774   -4.1593    2.0596 N   0  0  0  0  0  0  0  0  0  0  0  0
    0.2075  -10.4620    3.7828 C   0  0  0  0  0  0  0  0  0  0  0  0
    1.2477  -10.9958    4.1839 C   0  0  0  0  0  0  0  0  0  0  0  0
    1.8030  -11.7865    3.2339 C   0  0  0  0  0  0  0  0  0  0  0  0
    1.4493  -13.0859    3.0627 C   0  0  0  0  0  0  0  0  0  0  0  0
    1.7820  -13.9605    2.1567 C   0  0  0  0  0  0  0  0  0  0  0  0
    1.5291  -15.4169    2.3804 O   0  0  0  0  0  0  0  0  0  0  0  0
    2.1246  -13.6686    1.0331 O   0  0  0  0  0  0  0  0  0  0  0  0
   -0.3257   -2.9741    2.7103 C   0  0  0  0  0  0  0  0  0  0  0  0
    0.0531   -2.0052    2.1998 C   0  0  0  0  0  0  0  0  0  0  0  0
    0.9067   -1.6403    1.6867 C   0  0  0  0  0  0  0  0  0  0  0  0
    1.4378   -4.6135    1.2979 O   0  0  0  0  0  0  0  0  0  0  0  0
    1.0649   -1.4535    0.2249 C   0  0  0  0  0  0  0  0  0  0  0  0
  6  7  1  0
  7  8  1  0
  3  9  1  0
  9 10  1  0
 10 11  1  0
 11 12  1  0
 12 13  1  0
 13 14  1  0
 13 15  2  0
  8 16  1  0
 16 17  2  3
 17 18  1  0
  7 19  2  0
 18 20  1  0
  1  2  2  0
  2  6  1  0
  5  6  2  0
  4  5  1  0
  3  4  2  0
  1  3  1  0
M  END

$$$$
No_1437-/export/home/yangzhenyu/potential_scad_32_flow//YTHDC2/2024-12-06-03-22-00/
     RDKit          3D

 20 21  0  0  1  0  0  0  0  0999 V2000
    1.1787   -8.0297    3.5154 C   0  0  0  0  0  0  0  0  0  0  0  0
    1.1048   -9.2215    3.2892 C   0  0  0  0  0  0  0  0  0  0  0  0
    1.2339   -9.7611    2.0189 C   0  0  0  0  0  0  0  0  0  0  0  0
    1.3583   -9.0036    0.9764 C   0  0  0  0  0  0  0  0  0  0  0  0
    1.5996   -7.6362    1.1311 C   0  0  0  0  0  0  0  0  0  0  0  0
    1.4830   -7.0928    2.3626 C   0  0  0  0  0  0  0  0  0  0  0  0
    1.1008  -11.2372    1.8542 C   0  0  0  0  0  0  0  0  0  0  0  0
    0.4812  -11.6084    0.6459 C   0  0  0  0  0  0  0  0  0  0  0  0
   -0.3691  -10.9312    0.0124 C   0  0  0  0  0  0  0  0  0  0  0  0
   -1.0102  -11.3797   -1.1447 C   0  0  0  0  0  0  0  0  0  0  0  0
   -2.0579  -11.2792   -1.3634 C   0  0  0  0  0  0  0  0  0  0  0  0
   -2.8708  -10.2995   -0.6253 C   0  0  0  0  0  0  0  0  0  0  0  0
   -2.3455   -9.7789    0.4878 C   0  0  0  0  0  0  0  0  0  0  0  0
   -1.0852  -10.1180    0.8811 C   0  0  0  0  0  0  0  0  0  0  0  0
    1.4969   -5.5116    2.6824 C   0  0  1  0  0  0  0  0  0  0  0  0
    1.6075   -5.0787    3.7756 C   0  0  0  0  0  0  0  0  0  0  0  0
    1.4392   -4.8170    1.4703 C   0  0  0  0  0  0  0  0  0  0  0  0
    1.4510   -3.6748    3.7334 N   0  0  0  0  0  0  0  0  0  0  0  0
    1.2195   -3.4879    1.5375 C   0  0  0  0  0  0  0  0  0  0  0  0
    1.1970   -2.7091    0.2529 C   0  0  0  0  0  0  0  0  0  0  0  0
  3  7  1  0
  7  8  1  0
  6 15  1  0
 15 16  1  6
 15 17  1  0
 16 18  1  0
 17 19  2  3
 19 20  1  0
  8  9  1  0
  1  2  2  0
  2  3  1  0
  3  4  2  0
  4  5  1  0
  5  6  2  0
  1  6  1  0
  9 10  2  0
 10 11  1  0
 11 12  2  0
 12 13  1  0
 13 14  2  0
  9 14  1  0
M  END

$$$$
No_1438-/export/home/yangzhenyu/potential_scad_32_flow//YTHDC2/2024-12-06-03-22-00/
     RDKit          3D

 18 18  0  0  0  0  0  0  0  0999 V2000
    1.1787   -8.0297    3.5154 C   0  0  0  0  0  0  0  0  0  0  0  0
    1.1048   -9.2215    3.2892 C   0  0  0  0  0  0  0  0  0  0  0  0
    1.2339   -9.7611    2.0189 C   0  0  0  0  0  0  0  0  0  0  0  0
    1.3583   -9.0036    0.9764 C   0  0  0  0  0  0  0  0  0  0  0  0
    1.5996   -7.6362    1.1311 C   0  0  0  0  0  0  0  0  0  0  0  0
    1.4830   -7.0928    2.3626 C   0  0  0  0  0  0  0  0  0  0  0  0
    1.1008  -11.2372    1.8542 C   0  0  0  0  0  0  0  0  0  0  0  0
    0.5178  -11.9759    2.3445 N   0  0  0  0  0  0  0  0  0  0  0  0
   -0.6981  -11.7161    2.7817 C   0  0  0  0  0  0  0  0  0  0  0  0
    1.2779  -12.8592    3.3733 C   0  0  0  0  0  0  0  0  0  0  0  0
    1.6238   -5.4612    2.6658 C   0  0  0  0  0  0  0  0  0  0  0  0
    1.8586  -14.1049    2.7233 C   0  0  0  0  0  0  0  0  0  0  0  0
    1.1990  -15.2243    2.6483 O   0  0  0  0  0  0  0  0  0  0  0  0
    3.0643  -14.0347    2.3347 O   0  0  0  0  0  0  0  0  0  0  0  0
    1.2114   -4.7548    1.6250 C   0  0  0  0  0  0  0  0  0  0  0  0
    1.4507   -3.3762    1.6426 C   0  0  0  0  0  0  0  0  0  0  0  0
    2.1603   -2.8230    2.6765 C   0  0  0  0  0  0  0  0  0  0  0  0
    2.3498   -3.6271    3.8142 C   0  0  0  0  0  0  0  0  0  0  0  0
  3  7  1  0
  7  8  1  0
  8  9  1  0
  8 10  1  0
  6 11  1  0
 10 12  1  0
 12 13  2  0
 12 14  1  0
 11 15  1  0
 15 16  2  3
 16 17  1  0
 17 18  2  0
  1  2  2  0
  2  3  1  0
  3  4  2  0
  4  5  1  0
  5  6  2  0
  1  6  1  0
M  END

$$$$
No_1439-/export/home/yangzhenyu/potential_scad_32_flow//YTHDC2/2024-12-06-03-22-00/
     RDKit          3D

 17 19  0  0  0  0  0  0  0  0999 V2000
    1.1787   -8.0297    3.5154 C   0  0  0  0  0  0  0  0  0  0  0  0
    1.0491   -6.8434    2.9820 C   0  0  0  0  0  0  0  0  0  0  0  0
    0.9905   -9.0774    2.6527 C   0  0  0  0  0  0  0  0  0  0  0  0
    1.1655  -10.4663    3.1286 C   0  0  0  0  0  0  0  0  0  0  0  0
    1.2197  -11.4898    2.5831 C   0  0  0  0  0  0  0  0  0  0  0  0
    1.0589  -11.4458    1.1293 C   0  0  0  0  0  0  0  0  0  0  0  0
    0.9638  -10.3069    0.4651 C   0  0  0  0  0  0  0  0  0  0  0  0
    0.9191   -9.0789    1.1942 C   0  0  0  0  0  0  0  0  0  0  0  0
    0.9198   -7.8339    0.6158 C   0  0  0  0  0  0  0  0  0  0  0  0
    1.0184   -6.6904    1.4953 C   0  0  0  0  0  0  0  0  0  0  0  0
    1.3841  -13.0355    3.2102 C   0  0  0  0  0  0  0  0  0  0  0  0
    1.2478  -14.0562    2.2290 C   0  0  0  0  0  0  0  0  0  0  0  0
    0.0680  -14.6853    2.0080 C   0  0  0  0  0  0  0  0  0  0  0  0
   -0.0525  -15.7718    2.6759 C   0  0  0  0  0  0  0  0  0  0  0  0
    1.1357  -16.5831    3.1519 C   0  0  0  0  0  0  0  0  0  0  0  0
    2.3872  -15.8545    3.2468 C   0  0  0  0  0  0  0  0  0  0  0  0
    2.5245  -14.6152    2.6578 C   0  0  0  0  0  0  0  0  0  0  0  0
  5 11  1  0
 11 12  1  0
 12 13  2  0
 13 14  1  0
 14 15  2  0
 15 16  1  0
 16 17  2  0
 12 17  1  0
  1  2  2  0
  2 10  1  0
  9 10  2  0
  8  9  1  0
  1  3  1  0
  3  4  2  0
  4  5  1  0
  5  6  2  0
  6  7  1  0
  7  8  2  0
  3  8  1  0
M  END

$$$$
No_1440-/export/home/yangzhenyu/potential_scad_32_flow//YTHDC2/2024-12-06-03-22-00/
     RDKit          3D

 18 19  0  0  1  0  0  0  0  0999 V2000
    1.1787   -8.0297    3.5154 C   0  0  0  0  0  0  0  0  0  0  0  0
    1.0491   -6.8434    2.9820 C   0  0  0  0  0  0  0  0  0  0  0  0
    0.9905   -9.0774    2.6527 C   0  0  1  0  0  0  0  0  0  0  0  0
    0.7897   -8.9519    1.3691 C   0  0  0  0  0  0  0  0  0  0  0  0
    0.7018   -7.7198    0.7892 C   0  0  0  0  0  0  0  0  0  0  0  0
    0.8918   -6.5957    1.6117 C   0  0  0  0  0  0  0  0  0  0  0  0
    1.0998  -10.4710    3.2437 C   0  0  0  0  0  0  0  0  0  0  0  0
    2.1917  -10.8879    3.7399 C   0  0  0  0  0  0  0  0  0  0  0  0
    0.8983   -5.2566    1.2088 O   0  0  0  0  0  0  0  0  0  0  0  0
   -0.0200  -11.2248    3.3627 C   0  0  0  0  0  0  0  0  0  0  0  0
   -0.0780  -12.5021    3.1735 N   0  0  0  0  0  0  0  0  0  0  0  0
    2.2822  -12.3140    4.0251 N   0  0  0  0  0  0  0  0  0  0  0  0
    1.2438  -13.0260    3.6880 C   0  0  0  0  0  0  0  0  0  0  0  0
    1.3171  -14.3645    3.8061 O   0  0  0  0  0  0  0  0  0  0  0  0
    0.6300   -9.9763    0.3625 C   0  0  0  0  0  0  0  0  0  0  0  0
    1.7269  -10.7816    0.1587 O   0  0  0  0  0  0  0  0  0  0  0  0
   -0.4027  -10.3240   -0.2175 N   0  0  0  0  0  0  0  0  0  0  0  0
   -0.7186  -11.3827   -1.0393 C   0  0  0  0  0  0  0  0  0  0  0  0
  1  2  1  0
  3  4  1  0
  2  6  1  0
  5  6  1  0
  3  7  1  6
  7  8  1  0
  6  9  2  0
  7 10  1  0
  8 12  1  0
 11 13  1  0
 12 13  1  0
 13 14  2  0
  4 15  1  0
 15 16  2  0
 15 17  1  0
 17 18  1  0
 10 11  1  0
  1  3  1  0
  4  5  1  0
M  END

$$$$
No_1441-/export/home/yangzhenyu/potential_scad_32_flow//YTHDC2/2024-12-06-03-22-00/
     RDKit          3D

 18 19  0  0  0  0  0  0  0  0999 V2000
    1.1787   -8.0297    3.5154 C   0  0  0  0  0  0  0  0  0  0  0  0
    1.1048   -9.2215    3.2892 C   0  0  0  0  0  0  0  0  0  0  0  0
    1.2339   -9.7611    2.0189 C   0  0  0  0  0  0  0  0  0  0  0  0
    1.3583   -9.0036    0.9764 C   0  0  0  0  0  0  0  0  0  0  0  0
    1.5996   -7.6362    1.1311 C   0  0  0  0  0  0  0  0  0  0  0  0
    1.4830   -7.0928    2.3626 C   0  0  0  0  0  0  0  0  0  0  0  0
    1.4898   -5.7274    2.6199 C   0  0  0  0  0  0  0  0  0  0  0  0
    1.1681  -11.2222    1.8390 C   0  0  0  0  0  0  0  0  0  0  0  0
    0.5014  -11.9760    2.2068 C   0  0  0  0  0  0  0  0  0  0  0  0
    0.4167  -13.3685    2.0527 C   0  0  0  0  0  0  0  0  0  0  0  0
    1.5984  -14.1574    2.4634 C   0  0  0  0  0  0  0  0  0  0  0  0
    1.8283  -15.3606    2.3190 C   0  0  0  0  0  0  0  0  0  0  0  0
    0.9181  -16.1655    1.7275 C   0  0  0  0  0  0  0  0  0  0  0  0
   -0.2543  -15.6194    1.3332 C   0  0  0  0  0  0  0  0  0  0  0  0
   -0.4812  -14.2719    1.4803 C   0  0  0  0  0  0  0  0  0  0  0  0
    1.2514   -4.8473    1.6234 C   0  0  0  0  0  0  0  0  0  0  0  0
    1.1735   -3.3870    1.8611 O   0  0  0  0  0  0  0  0  0  0  0  0
   -1.6316  -13.7199    0.9376 C   0  0  0  0  0  0  0  0  0  0  0  0
  6  7  1  0
  3  8  1  0
  8  9  2  3
  9 10  1  0
  7 16  2  3
 16 17  1  0
 15 18  1  0
  1  2  2  0
  2  3  1  0
  3  4  2  0
  4  5  1  0
  5  6  2  0
  1  6  1  0
 10 11  2  0
 11 12  1  0
 12 13  2  0
 13 14  1  0
 14 15  2  0
 10 15  1  0
M  END

$$$$
No_1442-/export/home/yangzhenyu/potential_scad_32_flow//YTHDC2/2024-12-06-03-22-00/
     RDKit          3D

 20 21  0  0  0  0  0  0  0  0999 V2000
    1.1787   -8.0297    3.5154 C   0  0  0  0  0  0  0  0  0  0  0  0
    1.1048   -9.2215    3.2892 C   0  0  0  0  0  0  0  0  0  0  0  0
    1.3627  -10.1721    4.3044 C   0  0  0  0  0  0  0  0  0  0  0  0
    1.0682  -11.5187    4.0618 C   0  0  0  0  0  0  0  0  0  0  0  0
    0.6332  -11.9655    2.9682 C   0  0  0  0  0  0  0  0  0  0  0  0
    0.4776  -11.1308    1.9203 C   0  0  0  0  0  0  0  0  0  0  0  0
    0.7470   -9.8274    2.0368 C   0  0  0  0  0  0  0  0  0  0  0  0
    1.0387   -7.0301    2.5175 N   0  0  0  0  0  0  0  0  0  0  0  0
    0.9298   -7.5514    1.2672 C   0  0  0  0  0  0  0  0  0  0  0  0
    0.7824   -8.7713    0.9713 C   0  0  0  0  0  0  0  0  0  0  0  0
    1.3127   -9.1754   -0.2238 C   0  0  0  0  0  0  0  0  0  0  0  0
    0.4683   -9.3295   -1.2076 O   0  0  0  0  0  0  0  0  0  0  0  0
    2.5718   -9.2573   -0.5811 O   0  0  0  0  0  0  0  0  0  0  0  0
    0.4632  -13.6311    2.7146 C   0  0  0  0  0  0  0  0  0  0  0  0
    0.8713  -14.1183    1.7131 O   0  0  0  0  0  0  0  0  0  0  0  0
   -0.0015  -14.2833    3.6549 O   0  0  0  0  0  0  0  0  0  0  0  0
    1.0255   -6.6222    0.3145 Cl  0  0  0  0  0  0  0  0  0  0  0  0
    0.2407  -15.6689    3.6018 C   0  0  0  0  0  0  0  0  0  0  0  0
    1.6296  -16.0452    3.6917 C   0  0  0  0  0  0  0  0  0  0  0  0
    1.7919  -17.5172    3.5977 O   0  0  0  0  0  0  0  0  0  0  0  0
 10 11  1  0
 11 12  2  0
 11 13  1  0
  5 14  1  0
 14 15  2  0
 14 16  1  0
  9 17  1  0
 16 18  1  0
 18 19  1  0
 19 20  1  0
  2  3  1  0
  3  4  2  0
  4  5  1  0
  5  6  2  0
  6  7  1  0
  1  2  2  0
  2  7  1  0
  7 10  2  0
  9 10  1  0
  8  9  2  0
  1  8  1  0
M  END

$$$$
No_1443-/export/home/yangzhenyu/potential_scad_32_flow//YTHDC2/2024-12-06-03-22-00/
     RDKit          3D

 19 21  0  0  0  0  0  0  0  0999 V2000
    1.1787   -8.0297    3.5154 C   0  0  0  0  0  0  0  0  0  0  0  0
    1.0491   -6.8434    2.9820 C   0  0  0  0  0  0  0  0  0  0  0  0
    0.0950   -8.8404    3.2292 C   0  0  0  0  0  0  0  0  0  0  0  0
   -0.9173   -8.4596    2.5152 C   0  0  0  0  0  0  0  0  0  0  0  0
   -1.0331   -7.2162    2.0653 C   0  0  0  0  0  0  0  0  0  0  0  0
   -0.0105   -6.3168    2.3081 C   0  0  0  0  0  0  0  0  0  0  0  0
    0.0485   -4.9783    1.8782 C   0  0  0  0  0  0  0  0  0  0  0  0
    0.9625   -4.1072    2.3252 C   0  0  0  0  0  0  0  0  0  0  0  0
    0.1722  -10.4518    3.7515 C   0  0  0  0  0  0  0  0  0  0  0  0
    0.3912  -11.4627    2.8384 C   0  0  0  0  0  0  0  0  0  0  0  0
   -0.0933  -11.5668    1.9055 C   0  0  0  0  0  0  0  0  0  0  0  0
    0.7026  -11.3044    0.8207 C   0  0  0  0  0  0  0  0  0  0  0  0
    2.0075  -11.6871    0.9325 C   0  0  0  0  0  0  0  0  0  0  0  0
    2.4924  -11.7668    2.0899 C   0  0  0  0  0  0  0  0  0  0  0  0
    1.7351  -11.8638    3.1823 C   0  0  0  0  0  0  0  0  0  0  0  0
   -0.6601   -4.4974    0.7738 C   0  0  0  0  0  0  0  0  0  0  0  0
   -0.6760   -3.2030    0.4380 C   0  0  0  0  0  0  0  0  0  0  0  0
    0.3181   -2.3204    0.9969 C   0  0  0  0  0  0  0  0  0  0  0  0
    1.1489   -2.8053    1.9489 C   0  0  0  0  0  0  0  0  0  0  0  0
  6  7  1  0
  3  9  1  0
  9 10  1  0
 10 11  1  0
 11 12  1  0
 12 13  1  0
 13 14  1  0
 10 15  1  0
 14 15  1  0
  7  8  2  0
  8 19  1  0
 18 19  2  0
 17 18  1  0
 16 17  2  0
  7 16  1  0
  1  2  2  0
  2  6  1  0
  5  6  2  0
  4  5  1  0
  3  4  2  0
  1  3  1  0
M  END

$$$$
No_1444-/export/home/yangzhenyu/potential_scad_32_flow//YTHDC2/2024-12-06-03-22-00/
     RDKit          3D

 19 19  0  0  0  0  0  0  0  0999 V2000
    1.1787   -8.0297    3.5154 C   0  0  0  0  0  0  0  0  0  0  0  0
    1.1048   -9.2215    3.2892 C   0  0  0  0  0  0  0  0  0  0  0  0
    1.2339   -9.7611    2.0189 C   0  0  0  0  0  0  0  0  0  0  0  0
    1.3583   -9.0036    0.9764 C   0  0  0  0  0  0  0  0  0  0  0  0
    1.5996   -7.6362    1.1311 C   0  0  0  0  0  0  0  0  0  0  0  0
    1.4830   -7.0928    2.3626 C   0  0  0  0  0  0  0  0  0  0  0  0
    1.5395   -5.7300    2.6182 C   0  0  0  0  0  0  0  0  0  0  0  0
    1.1775  -11.2234    1.8407 C   0  0  0  0  0  0  0  0  0  0  0  0
    0.5085  -11.9762    2.1989 C   0  0  0  0  0  0  0  0  0  0  0  0
   -0.6094  -11.4837    3.2079 C   0  0  0  0  0  0  0  0  0  0  0  0
    0.4345  -13.3944    1.9229 C   0  0  0  0  0  0  0  0  0  0  0  0
    1.5586  -14.1738    2.3978 N   0  0  0  0  0  0  0  0  0  0  0  0
    1.9189  -15.2716    1.8949 C   0  0  0  0  0  0  0  0  0  0  0  0
    1.2027  -16.2931    1.6957 C   0  0  0  0  0  0  0  0  0  0  0  0
    1.5804  -17.5890    1.3400 C   0  0  0  0  0  0  0  0  0  0  0  0
   -0.4848  -14.0330    1.3227 O   0  0  0  0  0  0  0  0  0  0  0  0
    1.0577  -18.4279    0.7308 C   0  0  0  0  0  0  0  0  0  0  0  0
   -0.1408  -18.2621    0.2579 C   0  0  0  0  0  0  0  0  0  0  0  0
   -0.7473  -16.9808    0.5705 C   0  0  0  0  0  0  0  0  0  0  0  0
  6  7  1  0
  3  8  1  0
  8  9  2  3
  9 10  1  0
  9 11  1  0
 11 12  1  0
 12 13  1  0
 13 14  2  3
 14 15  1  0
 11 16  2  0
 15 17  2  3
 17 18  1  0
 18 19  2  0
  1  2  2  0
  2  3  1  0
  3  4  2  0
  4  5  1  0
  5  6  2  0
  1  6  1  0
M  END

$$$$
No_1445-/export/home/yangzhenyu/potential_scad_32_flow//YTHDC2/2024-12-06-03-22-00/
     RDKit          3D

 18 19  0  0  1  0  0  0  0  0999 V2000
    1.1787   -8.0297    3.5154 O   0  0  0  0  0  0  0  0  0  0  0  0
    0.9969   -8.9689    3.0048 C   0  0  1  0  0  0  0  0  0  0  0  0
    0.9976   -8.9567    1.6341 C   0  0  2  0  0  0  0  0  0  0  0  0
    1.6062   -9.9071    0.9292 C   0  0  0  0  0  0  0  0  0  0  0  0
    2.1191  -10.9757    1.6503 C   0  0  0  0  0  0  0  0  0  0  0  0
    2.1177  -10.9891    3.0403 C   0  0  0  0  0  0  0  0  0  0  0  0
    1.5441   -9.8905    3.6897 C   0  0  0  0  0  0  0  0  0  0  0  0
    0.5010   -7.8165    1.0436 C   0  0  2  0  0  0  0  0  0  0  0  0
    1.0624   -6.6356    1.1779 C   0  0  0  0  0  0  0  0  0  0  0  0
    0.3391   -5.4799    1.3521 C   0  0  2  0  0  0  0  0  0  0  0  0
   -0.9371   -5.5444    1.0250 C   0  0  0  0  0  0  0  0  0  0  0  0
   -1.5495   -6.6729    0.6526 C   0  0  0  0  0  0  0  0  0  0  0  0
   -0.8374   -7.8619    0.6909 C   0  0  0  0  0  0  0  0  0  0  0  0
    1.7437  -10.1460    5.0016 O   0  0  0  0  0  0  0  0  0  0  0  0
   -1.4737   -9.0306    0.3811 O   0  0  0  0  0  0  0  0  0  0  0  0
    1.0394   -4.2149    1.6267 O   0  0  0  0  0  0  0  0  0  0  0  0
    0.9407   -3.8523    2.5976 C   0  0  0  0  0  0  0  0  0  0  0  0
    2.6671  -12.1646    3.5412 O   0  0  0  0  0  0  0  0  0  0  0  0
  2  1  1  1
  2  3  1  0
  4  5  1  0
  2  7  1  0
  6  7  1  0
  3  8  1  0
  8  9  1  1
 10 11  1  0
  8 13  1  0
 12 13  1  0
  7 14  2  0
 13 15  2  0
 10 16  1  6
 16 17  1  0
  6 18  1  0
  9 10  1  0
 11 12  1  0
  3  4  1  1
  5  6  1  0
M  END

$$$$
No_1446-/export/home/yangzhenyu/potential_scad_32_flow//YTHDC2/2024-12-06-03-22-00/
     RDKit          3D

 18 18  0  0  0  0  0  0  0  0999 V2000
    1.1787   -8.0297    3.5154 C   0  0  0  0  0  0  0  0  0  0  0  0
    1.1048   -9.2215    3.2892 C   0  0  0  0  0  0  0  0  0  0  0  0
    1.3627  -10.1721    4.3044 C   0  0  0  0  0  0  0  0  0  0  0  0
    2.3720  -10.8948    4.2468 C   0  0  0  0  0  0  0  0  0  0  0  0
    2.5599  -11.8085    5.3573 N   0  0  0  0  0  0  0  0  0  0  0  0
    1.0359   -7.1814    2.3446 C   0  0  0  0  0  0  0  0  0  0  0  0
    0.9353   -7.6603    1.1150 C   0  0  0  0  0  0  0  0  0  0  0  0
    1.0306   -8.9518    0.8539 C   0  0  0  0  0  0  0  0  0  0  0  0
    1.0840   -9.8287    1.9339 C   0  0  0  0  0  0  0  0  0  0  0  0
    1.2395  -11.1334    1.7416 C   0  0  0  0  0  0  0  0  0  0  0  0
    2.0965  -11.6412    0.9891 O   0  0  0  0  0  0  0  0  0  0  0  0
    0.3652  -12.0209    2.2764 N   0  0  0  0  0  0  0  0  0  0  0  0
   -0.8899  -11.7873    2.6778 C   0  0  0  0  0  0  0  0  0  0  0  0
    1.0641   -5.4315    2.5670 C   0  0  0  0  0  0  0  0  0  0  0  0
   -1.8910  -12.5614    2.2738 C   0  0  0  0  0  0  0  0  0  0  0  0
   -3.1743  -12.3585    2.7491 C   0  0  0  0  0  0  0  0  0  0  0  0
   -3.3281  -11.3819    3.7577 C   0  0  0  0  0  0  0  0  0  0  0  0
   -2.2942  -10.5513    4.2429 C   0  0  0  0  0  0  0  0  0  0  0  0
  2  3  1  0
  3  4  2  3
  4  5  1  0
  9 10  1  0
 10 11  2  0
 10 12  1  0
 12 13  1  0
  6 14  1  0
 13 15  1  0
 15 16  2  3
 16 17  1  0
 17 18  2  0
  1  2  2  0
  2  9  1  0
  8  9  2  0
  7  8  1  0
  6  7  2  0
  1  6  1  0
M  END

$$$$
No_1447-/export/home/yangzhenyu/potential_scad_32_flow//YTHDC2/2024-12-06-03-22-00/
     RDKit          3D

 19 19  0  0  0  0  0  0  0  0999 V2000
    1.1787   -8.0297    3.5154 C   0  0  0  0  0  0  0  0  0  0  0  0
    1.0491   -6.8434    2.9820 C   0  0  0  0  0  0  0  0  0  0  0  0
    0.0950   -8.8404    3.2292 C   0  0  0  0  0  0  0  0  0  0  0  0
   -0.9173   -8.4596    2.5152 C   0  0  0  0  0  0  0  0  0  0  0  0
   -1.0331   -7.2162    2.0653 C   0  0  0  0  0  0  0  0  0  0  0  0
   -0.0105   -6.3168    2.3081 C   0  0  0  0  0  0  0  0  0  0  0  0
    0.1150   -4.9910    1.8495 C   0  0  0  0  0  0  0  0  0  0  0  0
    0.9121   -4.1017    2.4010 Cl  0  0  0  0  0  0  0  0  0  0  0  0
    0.1307  -10.2791    3.6694 C   0  0  0  0  0  0  0  0  0  0  0  0
   -1.0913  -10.9548    3.8044 C   0  0  0  0  0  0  0  0  0  0  0  0
    1.2282  -10.7394    4.5592 C   0  0  0  0  0  0  0  0  0  0  0  0
    2.4312  -10.2834    4.5327 C   0  0  0  0  0  0  0  0  0  0  0  0
    3.3127  -11.4714    4.6064 C   0  0  0  0  0  0  0  0  0  0  0  0
   -1.1372   -4.3161    1.4982 O   0  0  0  0  0  0  0  0  0  0  0  0
    4.6473  -10.9597    5.1565 O   0  0  0  0  0  0  0  0  0  0  0  0
   -1.0812  -12.2927    3.4516 C   0  0  0  0  0  0  0  0  0  0  0  0
   -0.8988  -12.6187    2.2175 C   0  0  0  0  0  0  0  0  0  0  0  0
   -0.7639  -14.0599    1.8349 C   0  0  0  0  0  0  0  0  0  0  0  0
   -1.4805  -14.8413    2.0181 C   0  0  0  0  0  0  0  0  0  0  0  0
  6  7  1  0
  7  8  1  0
  3  9  1  0
  9 10  2  3
  9 11  1  0
 11 12  1  0
 12 13  1  0
  7 14  2  0
 13 15  1  0
 10 16  1  0
 16 17  2  3
 17 18  1  0
 18 19  2  0
  1  2  2  0
  2  6  1  0
  5  6  2  0
  4  5  1  0
  3  4  2  0
  1  3  1  0
M  END

$$$$
No_1448-/export/home/yangzhenyu/potential_scad_32_flow//YTHDC2/2024-12-06-03-22-00/
     RDKit          3D

 13 13  0  0  0  0  0  0  0  0999 V2000
    1.1787   -8.0297    3.5154 C   0  0  0  0  0  0  0  0  0  0  0  0
    1.1048   -9.2215    3.2892 C   0  0  0  0  0  0  0  0  0  0  0  0
    1.2339   -9.7611    2.0189 C   0  0  0  0  0  0  0  0  0  0  0  0
    1.3583   -9.0036    0.9764 C   0  0  0  0  0  0  0  0  0  0  0  0
    1.5996   -7.6362    1.1311 C   0  0  0  0  0  0  0  0  0  0  0  0
    1.4830   -7.0928    2.3626 C   0  0  0  0  0  0  0  0  0  0  0  0
    1.1008  -11.2372    1.8542 C   0  0  0  0  0  0  0  0  0  0  0  0
    0.5178  -11.9759    2.3445 C   0  0  0  0  0  0  0  0  0  0  0  0
    0.4575  -13.3705    2.1281 C   0  0  0  0  0  0  0  0  0  0  0  0
    1.1632  -14.1013    2.0451 C   0  0  0  0  0  0  0  0  0  0  0  0
    2.4646  -13.5566    1.4445 C   0  0  0  0  0  0  0  0  0  0  0  0
    1.2467  -15.5603    2.2927 C   0  0  0  0  0  0  0  0  0  0  0  0
    2.3867  -16.3046    2.2488 O   0  0  0  0  0  0  0  0  0  0  0  0
  3  7  1  0
  7  8  2  3
  8  9  1  0
  9 10  2  3
 10 11  1  0
 10 12  1  0
 12 13  1  0
  1  2  2  0
  2  3  1  0
  3  4  2  0
  4  5  1  0
  5  6  2  0
  1  6  1  0
M  END

$$$$
No_1449-/export/home/yangzhenyu/potential_scad_32_flow//YTHDC2/2024-12-06-03-22-00/
     RDKit          3D

 20 22  0  0  0  0  0  0  0  0999 V2000
    1.1787   -8.0297    3.5154 C   0  0  0  0  0  0  0  0  0  0  0  0
    1.1048   -9.2215    3.2892 C   0  0  0  0  0  0  0  0  0  0  0  0
    1.3627  -10.1721    4.3044 C   0  0  0  0  0  0  0  0  0  0  0  0
    1.7354  -11.4730    3.9023 C   0  0  0  0  0  0  0  0  0  0  0  0
    1.8080  -11.8127    2.7216 C   0  0  0  0  0  0  0  0  0  0  0  0
    1.5854  -11.0021    1.7249 C   0  0  0  0  0  0  0  0  0  0  0  0
    1.3573   -9.7389    1.9287 C   0  0  0  0  0  0  0  0  0  0  0  0
    1.2865   -8.8078    0.9161 C   0  0  0  0  0  0  0  0  0  0  0  0
    0.9210   -7.5140    1.1674 C   0  0  0  0  0  0  0  0  0  0  0  0
    1.0097   -7.0192    2.4369 C   0  0  0  0  0  0  0  0  0  0  0  0
    2.0228  -13.2586    2.4222 C   0  0  0  0  0  0  0  0  0  0  0  0
    1.7593  -14.1964    3.3244 C   0  0  0  0  0  0  0  0  0  0  0  0
    1.8334  -15.5686    2.9052 C   0  0  0  0  0  0  0  0  0  0  0  0
    2.4033  -15.8490    1.7562 C   0  0  0  0  0  0  0  0  0  0  0  0
    2.8532  -14.9911    0.9552 C   0  0  0  0  0  0  0  0  0  0  0  0
    2.6220  -13.5898    1.2288 C   0  0  0  0  0  0  0  0  0  0  0  0
    0.8476   -5.3894    2.7460 Cl  0  0  0  0  0  0  0  0  0  0  0  0
    1.4087   -9.2151   -0.4218 C   0  0  0  0  0  0  0  0  0  0  0  0
    1.3318  -10.1897   -0.7579 O   0  0  0  0  0  0  0  0  0  0  0  0
    1.3426   -8.2994   -1.3876 O   0  0  0  0  0  0  0  0  0  0  0  0
  5 11  1  0
 10 17  1  0
  8 18  1  0
 18 19  2  0
 18 20  1  0
  1  2  2  0
  7  8  2  0
  8  9  1  0
  9 10  2  0
  1 10  1  0
  2  3  1  0
  3  4  2  0
  4  5  1  0
  5  6  2  0
  6  7  1  0
  2  7  1  0
 11 12  2  0
 12 13  1  0
 13 14  2  0
 14 15  1  0
 15 16  2  0
 11 16  1  0
M  END

$$$$
No_1450-/export/home/yangzhenyu/potential_scad_32_flow//YTHDC2/2024-12-06-03-22-00/
     RDKit          3D

 18 18  0  0  0  0  0  0  0  0999 V2000
    1.1787   -8.0297    3.5154 C   0  0  0  0  0  0  0  0  0  0  0  0
    1.1048   -9.2215    3.2892 C   0  0  0  0  0  0  0  0  0  0  0  0
    1.2339   -9.7611    2.0189 C   0  0  0  0  0  0  0  0  0  0  0  0
    1.1954  -11.2312    1.8661 C   0  0  0  0  0  0  0  0  0  0  0  0
    1.5546  -12.1691    2.7931 C   0  0  0  0  0  0  0  0  0  0  0  0
    0.5849   -7.0929    2.5729 C   0  0  0  0  0  0  0  0  0  0  0  0
    0.5567   -7.6699    1.1955 C   0  0  0  0  0  0  0  0  0  0  0  0
    0.7903   -8.9699    0.9209 C   0  0  0  0  0  0  0  0  0  0  0  0
    1.3210  -12.1117    3.8117 C   0  0  0  0  0  0  0  0  0  0  0  0
    1.7814  -13.5456    2.0955 C   0  0  0  0  0  0  0  0  0  0  0  0
    0.6185   -5.6303    2.6191 C   0  0  0  0  0  0  0  0  0  0  0  0
    1.8512  -14.6550    2.9798 C   0  0  0  0  0  0  0  0  0  0  0  0
    2.2075  -15.9484    2.2269 C   0  0  0  0  0  0  0  0  0  0  0  0
   -0.5480   -5.0263    2.3301 C   0  0  0  0  0  0  0  0  0  0  0  0
   -0.6468   -3.6348    2.4588 C   0  0  0  0  0  0  0  0  0  0  0  0
    3.2767  -16.1672    1.7601 O   0  0  0  0  0  0  0  0  0  0  0  0
    1.4327  -17.0051    2.3383 O   0  0  0  0  0  0  0  0  0  0  0  0
    1.7682   -4.8265    3.1444 C   0  0  0  0  0  0  0  0  0  0  0  0
  3  4  1  0
  4  5  1  0
  5  9  2  0
  5 10  1  0
  6 11  1  0
 10 12  2  3
 12 13  1  0
 11 14  2  3
 14 15  1  0
 13 16  1  0
 13 17  2  0
 11 18  1  0
  1  2  2  0
  2  3  1  0
  3  8  2  0
  7  8  1  0
  6  7  2  0
  1  6  1  0
M  END

$$$$
No_1451-/export/home/yangzhenyu/potential_scad_32_flow//YTHDC2/2024-12-06-03-22-00/
     RDKit          3D

 21 23  0  0  0  0  0  0  0  0999 V2000
    1.1787   -8.0297    3.5154 C   0  0  0  0  0  0  0  0  0  0  0  0
    1.1048   -9.2215    3.2892 C   0  0  0  0  0  0  0  0  0  0  0  0
    1.2339   -9.7611    2.0189 C   0  0  0  0  0  0  0  0  0  0  0  0
    1.3583   -9.0036    0.9764 C   0  0  0  0  0  0  0  0  0  0  0  0
    1.5996   -7.6362    1.1311 C   0  0  0  0  0  0  0  0  0  0  0  0
    1.4830   -7.0928    2.3626 C   0  0  0  0  0  0  0  0  0  0  0  0
    1.1008  -11.2372    1.8542 C   0  0  0  0  0  0  0  0  0  0  0  0
    0.4812  -11.6084    0.6459 C   0  0  0  0  0  0  0  0  0  0  0  0
    0.5134  -13.0269    0.4830 N   0  0  0  0  0  0  0  0  0  0  0  0
    1.8005  -11.8254    2.6924 C   0  0  0  0  0  0  0  0  0  0  0  0
    1.7901  -13.2932    2.4300 C   0  0  0  0  0  0  0  0  0  0  0  0
    1.1588  -13.8362    1.2876 C   0  0  0  0  0  0  0  0  0  0  0  0
    2.4491  -14.2181    3.2083 C   0  0  0  0  0  0  0  0  0  0  0  0
    1.5222   -5.6589    2.6834 C   0  0  0  0  0  0  0  0  0  0  0  0
    1.5397  -15.4806    3.2377 C   0  0  0  0  0  0  0  0  0  0  0  0
    2.0633  -16.6965    2.8579 C   0  0  0  0  0  0  0  0  0  0  0  0
    1.4670  -17.8886    2.8422 C   0  0  0  0  0  0  0  0  0  0  0  0
    0.3314  -18.0206    3.3265 C   0  0  0  0  0  0  0  0  0  0  0  0
   -0.3075  -16.8537    3.8907 C   0  0  0  0  0  0  0  0  0  0  0  0
    0.3607  -15.6293    3.8446 C   0  0  0  0  0  0  0  0  0  0  0  0
    1.2876   -4.8438    1.9849 F   0  0  0  0  0  0  0  0  0  0  0  0
  3  7  1  0
 11 13  1  0
  6 14  1  0
 13 15  1  0
 14 21  1  0
 15 16  2  0
 16 17  1  0
 17 18  2  0
 18 19  1  0
 19 20  2  0
 15 20  1  0
  1  2  2  0
  2  3  1  0
  3  4  2  0
  4  5  1  0
  5  6  2  0
  1  6  1  0
  7  8  2  0
  8  9  1  0
  9 12  2  0
 11 12  1  0
 10 11  2  0
  7 10  1  0
M  END

$$$$
No_1452-/export/home/yangzhenyu/potential_scad_32_flow//YTHDC2/2024-12-06-03-22-00/
     RDKit          3D

 19 20  0  0  0  0  0  0  0  0999 V2000
    1.1787   -8.0297    3.5154 C   0  0  0  0  0  0  0  0  0  0  0  0
    1.1048   -9.2215    3.2892 C   0  0  0  0  0  0  0  0  0  0  0  0
    1.3627  -10.1721    4.3044 C   0  0  0  0  0  0  0  0  0  0  0  0
    1.0682  -11.5187    4.0618 C   0  0  0  0  0  0  0  0  0  0  0  0
    0.6332  -11.9655    2.9682 C   0  0  0  0  0  0  0  0  0  0  0  0
    0.4776  -11.1308    1.9203 C   0  0  0  0  0  0  0  0  0  0  0  0
    0.7470   -9.8274    2.0368 C   0  0  0  0  0  0  0  0  0  0  0  0
    0.5535   -7.1314    2.6861 C   0  0  0  0  0  0  0  0  0  0  0  0
    0.2950   -7.6000    1.3275 C   0  0  0  0  0  0  0  0  0  0  0  0
    0.2692   -8.8631    1.0973 C   0  0  0  0  0  0  0  0  0  0  0  0
    0.4648  -13.6251    2.7005 O   0  0  0  0  0  0  0  0  0  0  0  0
    1.6159  -14.3291    2.7682 C   0  0  0  0  0  0  0  0  0  0  0  0
    0.8574   -5.4094    2.8339 O   0  0  0  0  0  0  0  0  0  0  0  0
   -0.1050   -9.2754   -0.3580 C   0  0  0  0  0  0  0  0  0  0  0  0
   -1.2882   -9.7553   -0.5110 O   0  0  0  0  0  0  0  0  0  0  0  0
    0.7265   -8.9997   -1.2770 O   0  0  0  0  0  0  0  0  0  0  0  0
    2.1041  -14.6229    1.3932 C   0  0  0  0  0  0  0  0  0  0  0  0
    2.7964  -15.4377    1.3143 O   0  0  0  0  0  0  0  0  0  0  0  0
    1.7991  -13.7792    0.5240 O   0  0  0  0  0  0  0  0  0  0  0  0
  5 11  1  0
 11 12  1  0
  8 13  1  0
 10 14  1  0
 14 15  1  0
 14 16  2  0
 12 17  1  0
 17 18  2  0
 17 19  1  0
  2  3  1  0
  3  4  2  0
  4  5  1  0
  5  6  2  0
  6  7  1  0
  1  2  2  0
  2  7  1  0
  7 10  2  0
  9 10  1  0
  8  9  2  0
  1  8  1  0
M  END

$$$$
No_1453-/export/home/yangzhenyu/potential_scad_32_flow//YTHDC2/2024-12-06-03-22-00/
     RDKit          3D

 20 21  0  0  1  0  0  0  0  0999 V2000
    1.1787   -8.0297    3.5154 O   0  0  0  0  0  0  0  0  0  0  0  0
    0.6747   -7.4019    2.7838 C   0  0  0  0  0  0  0  0  0  0  0  0
    0.5570   -6.0797    2.8560 C   0  0  0  0  0  0  0  0  0  0  0  0
   -0.2158   -5.3007    2.0284 C   0  0  0  0  0  0  0  0  0  0  0  0
   -0.8260   -5.9169    1.0290 C   0  0  0  0  0  0  0  0  0  0  0  0
   -0.6925   -7.2407    0.8216 C   0  0  0  0  0  0  0  0  0  0  0  0
    0.1645   -8.0156    1.6621 C   0  0  0  0  0  0  0  0  0  0  0  0
    0.4049   -9.3434    1.4877 C   0  0  2  0  0  0  0  0  0  0  0  0
    0.0670  -10.2565    2.0992 C   0  0  0  0  0  0  0  0  0  0  0  0
    0.7910  -11.4520    2.2506 C   0  0  2  0  0  0  0  0  0  0  0  0
    1.8126  -11.7295    1.4464 C   0  0  0  0  0  0  0  0  0  0  0  0
    1.7313   -9.5962    0.6312 C   0  0  0  0  0  0  0  0  0  0  0  0
    2.3021  -10.8044    0.6486 C   0  0  0  0  0  0  0  0  0  0  0  0
    2.2032   -8.6429   -0.2999 O   0  0  0  0  0  0  0  0  0  0  0  0
    0.2592  -12.5472    3.1138 C   0  0  0  0  0  0  0  0  0  0  0  0
    1.1471  -13.3739    3.7256 C   0  0  0  0  0  0  0  0  0  0  0  0
    0.8052  -14.7745    3.3851 C   0  0  0  0  0  0  0  0  0  0  0  0
    0.6644  -14.9878    1.9952 C   0  0  0  0  0  0  0  0  0  0  0  0
   -0.3853  -14.7149    1.6931 C   0  0  0  0  0  0  0  0  0  0  0  0
   -0.5713  -14.9531    0.1075 C   0  0  0  0  0  0  0  0  0  0  0  0
  1  2  1  0
  8  7  1  1
  8  9  1  0
 10 11  1  0
  8 12  1  0
 11 13  1  0
 12 13  1  0
 12 14  2  0
 10 15  1  6
 15 16  1  0
 16 17  1  0
 17 18  1  0
 18 19  2  3
 19 20  1  0
  9 10  1  0
  2  3  2  0
  3  4  1  0
  4  5  2  0
  5  6  1  0
  6  7  2  0
  2  7  1  0
M  END

$$$$
No_1454-/export/home/yangzhenyu/potential_scad_32_flow//YTHDC2/2024-12-06-03-22-00/
     RDKit          3D

 15 15  0  0  0  0  0  0  0  0999 V2000
    1.1787   -8.0297    3.5154 C   0  0  0  0  0  0  0  0  0  0  0  0
    1.0491   -6.8434    2.9820 C   0  0  0  0  0  0  0  0  0  0  0  0
    2.0004   -8.9805    3.0498 C   0  0  0  0  0  0  0  0  0  0  0  0
    1.9318  -10.3260    3.8082 C   0  0  0  0  0  0  0  0  0  0  0  0
    1.5629   -6.7698    1.6212 C   0  0  0  0  0  0  0  0  0  0  0  0
    2.0874   -7.7993    0.9845 C   0  0  0  0  0  0  0  0  0  0  0  0
    2.2492   -9.0232    1.6778 C   0  0  0  0  0  0  0  0  0  0  0  0
    2.3387  -11.3849    3.2669 O   0  0  0  0  0  0  0  0  0  0  0  0
    2.0567  -10.3266    5.0838 O   0  0  0  0  0  0  0  0  0  0  0  0
    1.3522   -5.5964    0.9075 P   0  0  0  0  0  0  0  0  0  0  0  0
    1.4801   -5.4228   -0.0784 O   0  0  0  0  0  0  0  0  0  0  0  0
    0.8819   -4.5064    1.8955 O   0  0  0  0  0  0  0  0  0  0  0  0
    2.6793  -10.0781    1.0473 C   0  0  0  0  0  0  0  0  0  0  0  0
    1.9769  -10.7591    0.3124 O   0  0  0  0  0  0  0  0  0  0  0  0
    3.9455  -10.2279    0.9871 O   0  0  0  0  0  0  0  0  0  0  0  0
  3  4  1  0
  4  8  2  0
  4  9  1  0
  5 10  1  0
 10 11  2  0
 10 12  2  0
  7 13  1  0
 13 14  2  0
 13 15  1  0
  1  2  2  0
  2  5  1  0
  5  6  2  0
  6  7  1  0
  3  7  2  0
  1  3  1  0
M  END

$$$$
No_1455-/export/home/yangzhenyu/potential_scad_32_flow//YTHDC2/2024-12-06-03-22-00/
     RDKit          3D

 19 19  0  0  1  0  0  0  0  0999 V2000
    1.1787   -8.0297    3.5154 C   0  0  0  0  0  0  0  0  0  0  0  0
    1.1048   -9.2215    3.2892 C   0  0  0  0  0  0  0  0  0  0  0  0
    1.2339   -9.7611    2.0189 C   0  0  0  0  0  0  0  0  0  0  0  0
    1.3583   -9.0036    0.9764 C   0  0  0  0  0  0  0  0  0  0  0  0
    1.5996   -7.6362    1.1311 C   0  0  0  0  0  0  0  0  0  0  0  0
    1.4830   -7.0928    2.3626 C   0  0  0  0  0  0  0  0  0  0  0  0
    1.1008  -11.2372    1.8542 C   0  0  2  0  0  0  0  0  0  0  0  0
    1.9749  -12.0938    2.2342 C   0  0  0  0  0  0  0  0  0  0  0  0
    1.5180  -13.3509    2.5910 C   0  0  0  0  0  0  0  0  0  0  0  0
    2.0215  -14.5416    2.0368 O   0  0  0  0  0  0  0  0  0  0  0  0
    1.0615  -13.6083    3.8982 O   0  0  0  0  0  0  0  0  0  0  0  0
    1.5437   -5.6487    2.6570 Cl  0  0  0  0  0  0  0  0  0  0  0  0
    1.5239   -9.5094   -0.3351 C   0  0  0  0  0  0  0  0  0  0  0  0
    2.5215   -9.6393   -0.9233 O   0  0  0  0  0  0  0  0  0  0  0  0
    0.3323   -9.4477   -1.0762 O   0  0  0  0  0  0  0  0  0  0  0  0
    0.8490  -10.1812    4.3951 Cl  0  0  0  0  0  0  0  0  0  0  0  0
    0.0050  -11.7425    1.1719 C   0  0  0  0  0  0  0  0  0  0  0  0
    0.0648  -12.5181   -0.0472 C   0  0  0  0  0  0  0  0  0  0  0  0
   -1.1254  -12.8551   -0.7177 C   0  0  0  0  0  0  0  0  0  0  0  0
  3  7  1  0
  7  8  1  6
  8  9  1  0
  9 10  1  0
  9 11  2  0
  6 12  1  0
  4 13  1  0
 13 14  2  0
 13 15  1  0
  2 16  1  0
  7 17  1  0
 17 18  1  0
 18 19  2  0
  1  2  2  0
  2  3  1  0
  3  4  2  0
  4  5  1  0
  5  6  2  0
  1  6  1  0
M  END

$$$$
No_1456-/export/home/yangzhenyu/potential_scad_32_flow//YTHDC2/2024-12-06-03-22-00/
     RDKit          3D

 18 19  0  0  0  0  0  0  0  0999 V2000
    1.1787   -8.0297    3.5154 C   0  0  0  0  0  0  0  0  0  0  0  0
    1.0491   -6.8434    2.9820 C   0  0  0  0  0  0  0  0  0  0  0  0
    0.0950   -8.8404    3.2292 C   0  0  0  0  0  0  0  0  0  0  0  0
   -0.9173   -8.4596    2.5152 C   0  0  0  0  0  0  0  0  0  0  0  0
   -1.0331   -7.2162    2.0653 C   0  0  0  0  0  0  0  0  0  0  0  0
   -0.0105   -6.3168    2.3081 C   0  0  0  0  0  0  0  0  0  0  0  0
    0.1465  -10.2446    3.6981 C   0  0  0  0  0  0  0  0  0  0  0  0
   -1.0337  -10.8619    3.9439 C   0  0  0  0  0  0  0  0  0  0  0  0
   -0.8576  -12.3101    4.1964 C   0  0  0  0  0  0  0  0  0  0  0  0
    0.3452  -12.8753    3.9453 C   0  0  0  0  0  0  0  0  0  0  0  0
    1.4894  -12.1495    3.5975 C   0  0  0  0  0  0  0  0  0  0  0  0
    1.3815  -10.8365    3.4146 C   0  0  0  0  0  0  0  0  0  0  0  0
   -0.0400   -4.9984    1.8071 Cl  0  0  0  0  0  0  0  0  0  0  0  0
    0.4403  -14.2409    4.1333 O   0  0  0  0  0  0  0  0  0  0  0  0
   -0.1532  -15.1072    3.3603 C   0  0  0  0  0  0  0  0  0  0  0  0
   -0.3599  -16.2471    3.9140 C   0  0  0  0  0  0  0  0  0  0  0  0
    0.6009  -17.0388    4.3247 C   0  0  0  0  0  0  0  0  0  0  0  0
    0.8619  -18.1689    3.7710 C   0  0  0  0  0  0  0  0  0  0  0  0
  3  7  1  0
  6 13  1  0
 10 14  1  0
 14 15  1  0
 15 16  1  0
 16 17  1  0
 17 18  1  0
  1  2  2  0
  2  6  1  0
  5  6  2  0
  4  5  1  0
  3  4  2  0
  1  3  1  0
  7  8  2  0
  8  9  1  0
  9 10  2  0
 10 11  1  0
 11 12  2  0
  7 12  1  0
M  END

$$$$
No_1457-/export/home/yangzhenyu/potential_scad_32_flow//YTHDC2/2024-12-06-03-22-00/
     RDKit          3D

 20 22  0  0  0  0  0  0  0  0999 V2000
    1.1787   -8.0297    3.5154 C   0  0  0  0  0  0  0  0  0  0  0  0
    1.1048   -9.2215    3.2892 C   0  0  0  0  0  0  0  0  0  0  0  0
    1.0239   -9.7790    2.0239 C   0  0  0  0  0  0  0  0  0  0  0  0
    1.1393   -9.0211    0.9686 C   0  0  0  0  0  0  0  0  0  0  0  0
    1.4051   -7.6500    1.1251 C   0  0  0  0  0  0  0  0  0  0  0  0
    1.4868   -7.1041    2.3534 C   0  0  0  0  0  0  0  0  0  0  0  0
    0.9740  -10.2562    4.5561 C   0  0  0  0  0  0  0  0  0  0  0  0
    0.8495  -11.7039    4.0242 C   0  0  0  0  0  0  0  0  0  0  0  0
    0.8490  -12.1036    2.8463 C   0  0  0  0  0  0  0  0  0  0  0  0
    0.9639  -11.1492    1.8011 C   0  0  0  0  0  0  0  0  0  0  0  0
    0.7566  -13.4521    2.4994 C   0  0  0  0  0  0  0  0  0  0  0  0
    1.6682  -14.3237    2.8889 C   0  0  0  0  0  0  0  0  0  0  0  0
    1.5639  -15.6977    2.5756 C   0  0  0  0  0  0  0  0  0  0  0  0
    0.4920  -16.1727    2.0649 C   0  0  0  0  0  0  0  0  0  0  0  0
   -0.5189  -15.3514    1.6793 C   0  0  0  0  0  0  0  0  0  0  0  0
   -0.3950  -14.0122    1.9402 C   0  0  0  0  0  0  0  0  0  0  0  0
    1.1431   -9.4118   -0.3680 C   0  0  0  0  0  0  0  0  0  0  0  0
    0.6734   -8.8862   -1.2285 O   0  0  0  0  0  0  0  0  0  0  0  0
    1.9349  -10.2925   -0.7231 O   0  0  0  0  0  0  0  0  0  0  0  0
   -1.5095  -13.2493    1.6385 C   0  0  0  0  0  0  0  0  0  0  0  0
  9 11  1  0
  4 17  1  0
 17 18  1  0
 17 19  2  0
 16 20  1  0
 11 12  2  0
 12 13  1  0
 13 14  2  0
 14 15  1  0
 15 16  2  0
 11 16  1  0
  1  2  2  0
  3  4  2  0
  4  5  1  0
  5  6  2  0
  1  6  1  0
  2  3  1  0
  3 10  1  0
  9 10  2  0
  8  9  1  0
  7  8  2  0
  2  7  1  0
M  END

$$$$
No_1458-/export/home/yangzhenyu/potential_scad_32_flow//YTHDC2/2024-12-06-03-22-00/
     RDKit          3D

 16 16  0  0  0  0  0  0  0  0999 V2000
    1.1787   -8.0297    3.5154 C   0  0  0  0  0  0  0  0  0  0  0  0
    1.0491   -6.8434    2.9820 C   0  0  0  0  0  0  0  0  0  0  0  0
    1.9985   -8.9840    2.8958 C   0  0  0  0  0  0  0  0  0  0  0  0
    1.1815  -10.1889    2.5497 C   0  0  0  0  0  0  0  0  0  0  0  0
    0.3496  -10.1352    1.6536 C   0  0  0  0  0  0  0  0  0  0  0  0
    0.2726  -10.8443    0.9221 C   0  0  0  0  0  0  0  0  0  0  0  0
    0.8884  -12.2473    1.0851 C   0  0  0  0  0  0  0  0  0  0  0  0
    1.9321  -12.4155    1.9755 C   0  0  0  0  0  0  0  0  0  0  0  0
    2.0858  -11.2296    2.8823 C   0  0  0  0  0  0  0  0  0  0  0  0
    0.2681   -6.5509    1.8745 C   0  0  0  0  0  0  0  0  0  0  0  0
   -0.8731   -6.6905    2.1791 N   0  0  0  0  0  0  0  0  0  0  0  0
   -1.4494   -6.0771    3.1357 C   0  0  0  0  0  0  0  0  0  0  0  0
   -2.6140   -6.7048    3.7156 C   0  0  0  0  0  0  0  0  0  0  0  0
   -2.6065   -8.1766    3.7013 C   0  0  0  0  0  0  0  0  0  0  0  0
    0.7397   -6.5506    0.6777 O   0  0  0  0  0  0  0  0  0  0  0  0
   -2.4299   -9.0978    4.3511 C   0  0  0  0  0  0  0  0  0  0  0  0
  1  2  1  0
  1  3  1  0
  3  4  1  0
  2 10  1  0
 10 11  1  0
 11 12  1  0
 12 13  1  0
 13 14  1  0
 10 15  2  0
 14 16  1  0
  4  5  2  0
  5  6  1  0
  6  7  2  0
  7  8  1  0
  8  9  2  0
  4  9  1  0
M  END

$$$$
No_1459-/export/home/yangzhenyu/potential_scad_32_flow//YTHDC2/2024-12-06-03-22-00/
     RDKit          3D

 19 19  0  0  1  0  0  0  0  0999 V2000
    1.1787   -8.0297    3.5154 O   0  0  0  0  0  0  0  0  0  0  0  0
    0.6747   -7.4019    2.7838 C   0  0  2  0  0  0  0  0  0  0  0  0
    0.7594   -8.0032    1.4295 C   0  0  0  0  0  0  0  0  0  0  0  0
    0.3459   -9.1500    1.3581 C   0  0  0  0  0  0  0  0  0  0  0  0
    1.1876  -10.0065    2.0240 C   0  0  2  0  0  0  0  0  0  0  0  0
    1.9076   -9.7379    2.7265 C   0  0  0  0  0  0  0  0  0  0  0  0
    1.7954   -8.7872    3.4935 C   0  0  0  0  0  0  0  0  0  0  0  0
    0.6175   -5.8828    2.7573 C   0  0  0  0  0  0  0  0  0  0  0  0
   -0.5404   -5.2951    2.2643 F   0  0  0  0  0  0  0  0  0  0  0  0
    1.4614   -5.1314    3.1363 F   0  0  0  0  0  0  0  0  0  0  0  0
    1.3165  -11.3398    1.2349 C   0  0  0  0  0  0  0  0  0  0  0  0
    0.8502  -11.5281    0.0577 O   0  0  0  0  0  0  0  0  0  0  0  0
    1.9618  -12.4496    1.7788 N   0  0  0  0  0  0  0  0  0  0  0  0
    1.9641  -13.7165    1.2257 C   0  0  0  0  0  0  0  0  0  0  0  0
    0.8337  -14.5235    1.5359 C   0  0  0  0  0  0  0  0  0  0  0  0
    0.2394  -14.3176    2.6386 C   0  0  0  0  0  0  0  0  0  0  0  0
   -0.6320  -15.2396    3.0827 C   0  0  0  0  0  0  0  0  0  0  0  0
   -0.9071  -16.3672    2.4188 C   0  0  0  0  0  0  0  0  0  0  0  0
   -0.2356  -16.6536    1.2811 C   0  0  0  0  0  0  0  0  0  0  0  0
  1  2  1  0
  2  3  1  0
  3  4  1  0
  4  5  1  0
  5  6  1  0
  1  7  1  0
  6  7  1  0
  2  8  1  6
  8  9  1  0
  8 10  1  0
  5 11  1  6
 11 12  2  0
 11 13  1  0
 13 14  1  0
 14 15  1  0
 15 16  1  0
 16 17  2  3
 17 18  1  0
 18 19  2  0
M  END

$$$$
No_1460-/export/home/yangzhenyu/potential_scad_32_flow//YTHDC2/2024-12-06-03-22-00/
     RDKit          3D

 18 18  0  0  1  0  0  0  0  0999 V2000
    1.1787   -8.0297    3.5154 C   0  0  0  0  0  0  0  0  0  0  0  0
    1.1048   -9.2215    3.2892 C   0  0  0  0  0  0  0  0  0  0  0  0
    1.2339   -9.7611    2.0189 C   0  0  0  0  0  0  0  0  0  0  0  0
    1.3583   -9.0036    0.9764 C   0  0  0  0  0  0  0  0  0  0  0  0
    1.5996   -7.6362    1.1311 C   0  0  0  0  0  0  0  0  0  0  0  0
    1.4830   -7.0928    2.3626 C   0  0  0  0  0  0  0  0  0  0  0  0
    1.4898   -5.7274    2.6199 C   0  0  0  0  0  0  0  0  0  0  0  0
    1.1681  -11.2222    1.8390 C   0  0  0  0  0  0  0  0  0  0  0  0
    0.5014  -11.9760    2.2068 C   0  0  0  0  0  0  0  0  0  0  0  0
    0.4167  -13.3685    2.0527 C   0  0  0  0  0  0  0  0  0  0  0  0
    1.5984  -14.1574    2.4634 C   0  0  0  0  0  0  0  0  0  0  0  0
    1.8090  -15.4261    2.0927 C   0  0  2  0  0  0  0  0  0  0  0  0
    3.0163  -15.8353    1.7346 C   0  0  0  0  0  0  0  0  0  0  0  0
    1.7017   -5.1723    3.8674 O   0  0  0  0  0  0  0  0  0  0  0  0
    1.3296   -4.8272    1.6687 O   0  0  0  0  0  0  0  0  0  0  0  0
    0.7908  -16.2889    1.9589 C   0  0  0  0  0  0  0  0  0  0  0  0
    0.9722  -17.5579    1.3884 C   0  0  0  0  0  0  0  0  0  0  0  0
    0.9893  -17.6934    0.2290 C   0  0  0  0  0  0  0  0  0  0  0  0
  6  7  1  0
  3  8  1  0
  8  9  2  3
  9 10  1  0
 10 11  1  0
 11 12  1  0
 12 13  1  6
  7 14  1  0
  7 15  2  0
 12 16  1  0
 16 17  1  0
 17 18  2  0
  1  2  2  0
  2  3  1  0
  3  4  2  0
  4  5  1  0
  5  6  2  0
  1  6  1  0
M  END

$$$$
No_1461-/export/home/yangzhenyu/potential_scad_32_flow//YTHDC2/2024-12-06-03-22-00/
     RDKit          3D

 19 20  0  0  0  0  0  0  0  0999 V2000
    1.1787   -8.0297    3.5154 C   0  0  0  0  0  0  0  0  0  0  0  0
    1.0491   -6.8434    2.9820 C   0  0  0  0  0  0  0  0  0  0  0  0
    0.9905   -9.0774    2.6527 C   0  0  0  0  0  0  0  0  0  0  0  0
    0.7897   -8.9519    1.3691 C   0  0  0  0  0  0  0  0  0  0  0  0
    0.7018   -7.7198    0.7892 C   0  0  0  0  0  0  0  0  0  0  0  0
    0.8918   -6.5957    1.6117 C   0  0  0  0  0  0  0  0  0  0  0  0
    1.0711  -10.4814    3.2282 C   0  0  0  0  0  0  0  0  0  0  0  0
   -0.1055  -11.1328    3.5223 C   0  0  0  0  0  0  0  0  0  0  0  0
   -0.1824  -12.4513    3.3816 C   0  0  0  0  0  0  0  0  0  0  0  0
    0.9472  -13.2655    3.1726 C   0  0  0  0  0  0  0  0  0  0  0  0
    2.1715  -12.6012    2.9116 C   0  0  0  0  0  0  0  0  0  0  0  0
    2.2064  -11.2741    2.8264 C   0  0  0  0  0  0  0  0  0  0  0  0
    0.8996  -14.6381    3.2447 O   0  0  0  0  0  0  0  0  0  0  0  0
    0.8445   -5.2766    1.1112 O   0  0  0  0  0  0  0  0  0  0  0  0
    0.9603  -15.4529    2.2708 C   0  0  0  0  0  0  0  0  0  0  0  0
    1.1775   -4.2011    1.8904 C   0  0  0  0  0  0  0  0  0  0  0  0
    0.5729  -15.0156    1.1928 C   0  0  0  0  0  0  0  0  0  0  0  0
   -0.5930  -14.8247    0.8631 C   0  0  0  0  0  0  0  0  0  0  0  0
   -0.9434  -14.2089   -0.4272 C   0  0  0  0  0  0  0  0  0  0  0  0
  3  7  1  0
 10 13  1  0
  6 14  1  0
 13 15  1  0
 14 16  1  0
 15 17  1  0
 17 18  2  3
 18 19  1  0
  1  2  2  0
  2  6  1  0
  5  6  2  0
  4  5  1  0
  3  4  2  0
  1  3  1  0
  7  8  2  0
  8  9  1  0
  9 10  2  0
 10 11  1  0
 11 12  2  0
  7 12  1  0
M  END

$$$$
No_1462-/export/home/yangzhenyu/potential_scad_32_flow//YTHDC2/2024-12-06-03-22-00/
     RDKit          3D

 18 19  0  0  1  0  0  0  0  0999 V2000
    1.1787   -8.0297    3.5154 C   0  0  0  0  0  0  0  0  0  0  0  0
    1.0491   -6.8434    2.9820 C   0  0  0  0  0  0  0  0  0  0  0  0
    1.9985   -8.9840    2.8958 C   0  0  1  0  0  0  0  0  0  0  0  0
    1.9135  -10.3404    3.6266 C   0  0  0  0  0  0  0  0  0  0  0  0
    1.3291  -11.3908    3.0222 C   0  0  1  0  0  0  0  0  0  0  0  0
    1.0344  -11.3281    1.7959 C   0  0  0  0  0  0  0  0  0  0  0  0
    0.5050   -6.6553    1.7492 C   0  0  0  0  0  0  0  0  0  0  0  0
    1.6364  -10.2524    0.9337 C   0  0  0  0  0  0  0  0  0  0  0  0
    1.7369   -9.0242    1.6103 C   0  0  0  0  0  0  0  0  0  0  0  0
    0.9461   -5.5965    0.9838 N   0  0  0  0  0  0  0  0  0  0  0  0
    1.2617  -12.5288    3.6945 C   0  0  0  0  0  0  0  0  0  0  0  0
   -0.5159   -7.1622    1.2939 C   0  0  0  0  0  0  0  0  0  0  0  0
   -0.9603   -6.7536   -0.0882 C   0  0  0  0  0  0  0  0  0  0  0  0
    0.1422   -5.6382   -0.0497 C   0  0  0  0  0  0  0  0  0  0  0  0
    1.2425  -10.2503   -0.3407 O   0  0  0  0  0  0  0  0  0  0  0  0
    1.0956  -13.7103    2.8440 C   0  0  0  0  0  0  0  0  0  0  0  0
    2.3253  -14.3400    2.5967 C   0  0  0  0  0  0  0  0  0  0  0  0
    2.2062  -15.6341    1.9810 C   0  0  0  0  0  0  0  0  0  0  0  0
  1  2  1  0
  3  1  1  1
  3  4  1  0
  4  5  1  0
  5  6  1  0
  2  7  1  0
  6  8  1  0
  3  9  1  0
  8  9  1  0
  7 10  2  0
  5 11  1  6
  7 12  1  0
 12 13  2  0
 10 14  1  0
 13 14  1  0
  8 15  2  0
 11 16  1  0
 16 17  1  0
 17 18  2  0
M  END

$$$$
No_1463-/export/home/yangzhenyu/potential_scad_32_flow//YTHDC2/2024-12-06-03-22-00/
     RDKit          3D

 19 20  0  0  1  0  0  0  0  0999 V2000
    1.1787   -8.0297    3.5154 C   0  0  0  0  0  0  0  0  0  0  0  0
    1.1048   -9.2215    3.2892 C   0  0  0  0  0  0  0  0  0  0  0  0
    1.2339   -9.7611    2.0189 C   0  0  0  0  0  0  0  0  0  0  0  0
    1.4306   -8.9466    1.1170 C   0  0  0  0  0  0  0  0  0  0  0  0
    1.6532   -7.5949    1.1786 C   0  0  0  0  0  0  0  0  0  0  0  0
    1.4973   -7.0739    2.4258 C   0  0  0  0  0  0  0  0  0  0  0  0
    1.4438   -5.6890    2.7316 C   0  0  0  0  0  0  0  0  0  0  0  0
    1.2541  -11.1952    1.8085 C   0  0  1  0  0  0  0  0  0  0  0  0
    1.6744  -12.0612    2.6604 C   0  0  0  0  0  0  0  0  0  0  0  0
    1.5191  -13.4749    2.2691 C   0  0  1  0  0  0  0  0  0  0  0  0
    1.0453  -13.8611    1.1842 C   0  0  1  0  0  0  0  0  0  0  0  0
    0.6501  -12.9113    0.1950 C   0  0  0  0  0  0  0  0  0  0  0  0
    0.6692  -11.5941    0.5412 C   0  0  0  0  0  0  0  0  0  0  0  0
    2.0585  -14.3916    3.2845 Br  0  0  0  0  0  0  0  0  0  0  0  0
    1.6672   -5.1532    3.9724 O   0  0  0  0  0  0  0  0  0  0  0  0
    0.8529   -4.8356    1.8260 O   0  0  0  0  0  0  0  0  0  0  0  0
    0.1592  -10.6767   -0.2871 O   0  0  0  0  0  0  0  0  0  0  0  0
    0.8081  -10.0651    4.4245 O   0  0  0  0  0  0  0  0  0  0  0  0
    0.9941  -15.1237    0.7479 O   0  0  0  0  0  0  0  0  0  0  0  0
  6  7  1  0
  8  3  1  1
  8  9  1  0
 10 11  1  0
  8 13  1  0
 12 13  1  0
 10 14  1  6
  7 15  1  0
  7 16  2  0
 13 17  2  0
  2 18  1  0
 11 19  1  6
  9 10  1  0
 11 12  1  0
  1  2  2  0
  2  3  1  0
  3  4  2  0
  4  5  1  0
  5  6  2  0
  1  6  1  0
M  END

$$$$
No_1464-/export/home/yangzhenyu/potential_scad_32_flow//YTHDC2/2024-12-06-03-22-00/
     RDKit          3D

 20 21  0  0  1  0  0  0  0  0999 V2000
    1.1787   -8.0297    3.5154 C   0  0  0  0  0  0  0  0  0  0  0  0
    1.1048   -9.2215    3.2892 C   0  0  0  0  0  0  0  0  0  0  0  0
    1.2339   -9.7611    2.0189 C   0  0  0  0  0  0  0  0  0  0  0  0
    1.3583   -9.0036    0.9764 C   0  0  0  0  0  0  0  0  0  0  0  0
    1.5996   -7.6362    1.1311 C   0  0  0  0  0  0  0  0  0  0  0  0
    1.4830   -7.0928    2.3626 C   0  0  0  0  0  0  0  0  0  0  0  0
    1.5395   -5.7300    2.6182 C   0  0  0  0  0  0  0  0  0  0  0  0
    1.1775  -11.2233    1.8407 C   0  0  0  0  0  0  0  0  0  0  0  0
    0.7252  -11.5870    0.5412 O   0  0  0  0  0  0  0  0  0  0  0  0
    1.2177  -12.0880    2.7121 N   0  0  0  0  0  0  0  0  0  0  0  0
    1.1944  -13.4330    2.6818 C   0  0  1  0  0  0  0  0  0  0  0  0
    2.3218  -14.2444    2.4634 C   0  0  0  0  0  0  0  0  0  0  0  0
    2.0454  -15.6451    2.4567 C   0  0  0  0  0  0  0  0  0  0  0  0
    0.8627  -16.1479    2.7259 C   0  0  0  0  0  0  0  0  0  0  0  0
   -0.2137  -15.3775    3.0658 C   0  0  0  0  0  0  0  0  0  0  0  0
   -0.1044  -14.0604    2.9768 C   0  0  0  0  0  0  0  0  0  0  0  0
    1.2685   -4.7953    1.7126 N   0  0  0  0  0  0  0  0  0  0  0  0
    2.0842   -5.0987    3.7456 N   0  0  0  0  0  0  0  0  0  0  0  0
   -1.1387  -13.3270    3.3219 O   0  0  0  0  0  0  0  0  0  0  0  0
    0.6665   -3.9005    1.8936 C   0  0  0  0  0  0  0  0  0  0  0  0
  6  7  1  0
  3  8  1  0
  8  9  2  0
  8 10  1  0
 11 10  1  1
 11 12  1  0
 13 14  1  0
 11 16  1  0
 15 16  1  0
  7 17  2  3
  7 18  1  0
 16 19  2  0
 17 20  1  0
 12 13  1  0
 14 15  1  0
  1  2  2  0
  2  3  1  0
  3  4  2  0
  4  5  1  0
  5  6  2  0
  1  6  1  0
M  END

$$$$
No_1465-/export/home/yangzhenyu/potential_scad_32_flow//YTHDC2/2024-12-06-03-22-00/
     RDKit          3D

 18 18  0  0  1  0  0  0  0  0999 V2000
    1.1787   -8.0297    3.5154 C   0  0  0  0  0  0  0  0  0  0  0  0
    1.0491   -6.8434    2.9820 C   0  0  0  0  0  0  0  0  0  0  0  0
    1.9985   -8.9840    2.8958 C   0  0  0  0  0  0  0  0  0  0  0  0
    1.1814  -10.1889    2.5497 C   0  0  0  0  0  0  0  0  0  0  0  0
    0.9817  -11.1388    2.8133 C   0  0  0  0  0  0  0  0  0  0  0  0
    0.1125  -12.0891    2.4837 C   0  0  0  0  0  0  0  0  0  0  0  0
   -0.6446  -11.8250    1.4596 C   0  0  0  0  0  0  0  0  0  0  0  0
   -0.2941  -10.7598    0.6431 C   0  0  0  0  0  0  0  0  0  0  0  0
    0.5711   -9.8346    1.1239 C   0  0  0  0  0  0  0  0  0  0  0  0
    0.3257   -6.8342    1.7752 O   0  0  0  0  0  0  0  0  0  0  0  0
    1.5729   -5.6931    3.2380 P   0  0  2  0  0  0  0  0  0  0  0  0
    1.8907   -5.5501    4.6574 O   0  0  0  0  0  0  0  0  0  0  0  0
    0.9236   -4.3877    2.6486 O   0  0  0  0  0  0  0  0  0  0  0  0
    1.1373   -8.8247    0.2955 C   0  0  0  0  0  0  0  0  0  0  0  0
    2.4720   -8.7079    0.0705 C   0  0  0  0  0  0  0  0  0  0  0  0
    3.3001   -9.4916    0.2907 O   0  0  0  0  0  0  0  0  0  0  0  0
    2.9068   -7.5828   -0.6294 O   0  0  0  0  0  0  0  0  0  0  0  0
   -0.2033  -13.3133    3.2159 C   0  0  0  0  0  0  0  0  0  0  0  0
  1  2  1  0
  1  3  1  0
  3  4  1  0
  2 10  2  0
  2 11  1  0
 11 12  1  1
 11 13  2  0
  9 14  1  0
 14 15  1  0
 15 16  2  0
 15 17  1  0
  6 18  1  0
  4  5  2  0
  5  6  1  0
  6  7  2  0
  7  8  1  0
  8  9  2  0
  4  9  1  0
M  END

$$$$
No_1466-/export/home/yangzhenyu/potential_scad_32_flow//YTHDC2/2024-12-06-03-22-00/
     RDKit          3D

 17 17  0  0  1  0  0  0  0  0999 V2000
    1.1787   -8.0297    3.5154 C   0  0  0  0  0  0  0  0  0  0  0  0
    1.0491   -6.8434    2.9820 C   0  0  0  0  0  0  0  0  0  0  0  0
    0.9905   -9.0774    2.6527 C   0  0  0  0  0  0  0  0  0  0  0  0
    0.7897   -8.9519    1.3691 C   0  0  0  0  0  0  0  0  0  0  0  0
    0.7018   -7.7198    0.7892 C   0  0  0  0  0  0  0  0  0  0  0  0
    0.8918   -6.5957    1.6117 C   0  0  0  0  0  0  0  0  0  0  0  0
    1.0600  -10.5680    3.3321 C   0  0  1  0  0  0  0  0  0  0  0  0
    1.1634  -11.6086    2.5010 C   0  0  0  0  0  0  0  0  0  0  0  0
    0.9536  -12.6132    2.7378 C   0  0  0  0  0  0  0  0  0  0  0  0
    0.9159  -13.2860    3.7774 C   0  0  0  0  0  0  0  0  0  0  0  0
    0.8428   -5.2598    1.1968 O   0  0  0  0  0  0  0  0  0  0  0  0
    1.0813  -13.7144    1.5301 C   0  0  0  0  0  0  0  0  0  0  0  0
    1.0367  -13.2842    0.3570 O   0  0  0  0  0  0  0  0  0  0  0  0
    1.4744  -14.9724    1.7569 O   0  0  0  0  0  0  0  0  0  0  0  0
    1.1794  -10.5982    4.6587 C   0  0  0  0  0  0  0  0  0  0  0  0
    2.3272  -10.5928    5.2569 C   0  0  0  0  0  0  0  0  0  0  0  0
    3.4393  -10.9838    4.9726 O   0  0  0  0  0  0  0  0  0  0  0  0
  1  2  1  0
  3  4  1  0
  2  6  1  0
  5  6  1  0
  3  7  1  0
  7  8  1  0
  8  9  2  3
  9 10  1  0
  6 11  2  0
  9 12  1  0
 12 13  1  0
 12 14  2  0
  7 15  1  1
 15 16  1  0
 16 17  2  0
  1  3  1  0
  4  5  1  0
M  END

$$$$
No_1467-/export/home/yangzhenyu/potential_scad_32_flow//YTHDC2/2024-12-06-03-22-00/
     RDKit          3D

 19 21  0  0  0  0  0  0  0  0999 V2000
    1.1787   -8.0297    3.5154 C   0  0  0  0  0  0  0  0  0  0  0  0
    1.1048   -9.2215    3.2892 C   0  0  0  0  0  0  0  0  0  0  0  0
    1.3627  -10.1721    4.3044 C   0  0  0  0  0  0  0  0  0  0  0  0
    1.0682  -11.5187    4.0618 C   0  0  0  0  0  0  0  0  0  0  0  0
    0.6332  -11.9655    2.9682 C   0  0  0  0  0  0  0  0  0  0  0  0
    0.4776  -11.1308    1.9203 C   0  0  0  0  0  0  0  0  0  0  0  0
    0.7470   -9.8274    2.0368 C   0  0  0  0  0  0  0  0  0  0  0  0
    1.0387   -7.0301    2.5175 C   0  0  0  0  0  0  0  0  0  0  0  0
    0.9130   -7.5288    1.2013 C   0  0  0  0  0  0  0  0  0  0  0  0
    0.7893   -8.7979    0.9542 C   0  0  0  0  0  0  0  0  0  0  0  0
    0.5241   -9.2578   -0.2817 C   0  0  0  0  0  0  0  0  0  0  0  0
    1.2450   -9.2169   -1.2769 N   0  0  0  0  0  0  0  0  0  0  0  0
   -0.8363   -9.2928   -0.6404 O   0  0  0  0  0  0  0  0  0  0  0  0
    0.5219  -13.3834    2.7051 C   0  0  0  0  0  0  0  0  0  0  0  0
    1.5263  -14.3246    3.2035 C   0  0  0  0  0  0  0  0  0  0  0  0
    1.2470  -15.6716    2.9850 C   0  0  0  0  0  0  0  0  0  0  0  0
    0.3766  -16.1252    2.2171 C   0  0  0  0  0  0  0  0  0  0  0  0
   -0.5032  -15.2812    1.6280 C   0  0  0  0  0  0  0  0  0  0  0  0
   -0.3458  -13.9156    1.8478 C   0  0  0  0  0  0  0  0  0  0  0  0
 10 11  1  0
 11 12  1  0
 11 13  2  0
  5 14  1  0
  2  3  1  0
  3  4  2  0
  4  5  1  0
  5  6  2  0
  6  7  1  0
  1  2  2  0
  2  7  1  0
  7 10  2  0
  9 10  1  0
  8  9  2  0
  1  8  1  0
 14 15  2  0
 15 16  1  0
 16 17  2  0
 17 18  1  0
 18 19  2  0
 14 19  1  0
M  END

$$$$
No_1468-/export/home/yangzhenyu/potential_scad_32_flow//YTHDC2/2024-12-06-03-22-00/
     RDKit          3D

 18 19  0  0  0  0  0  0  0  0999 V2000
    1.1787   -8.0297    3.5154 C   0  0  0  0  0  0  0  0  0  0  0  0
    1.1048   -9.2215    3.2892 C   0  0  0  0  0  0  0  0  0  0  0  0
    1.3627  -10.1721    4.3044 C   0  0  0  0  0  0  0  0  0  0  0  0
    2.3720  -10.8948    4.2468 C   0  0  0  0  0  0  0  0  0  0  0  0
    0.8234   -7.0464    2.5717 C   0  0  0  0  0  0  0  0  0  0  0  0
    0.4328   -7.4736    1.3042 C   0  0  0  0  0  0  0  0  0  0  0  0
    0.3532   -8.7488    0.9919 C   0  0  0  0  0  0  0  0  0  0  0  0
    0.7039   -9.7094    1.9672 C   0  0  0  0  0  0  0  0  0  0  0  0
    0.6986  -10.9809    1.7122 C   0  0  0  0  0  0  0  0  0  0  0  0
   -0.1824  -11.8267    2.1190 C   0  0  0  0  0  0  0  0  0  0  0  0
   -1.3881  -11.4336    2.6009 C   0  0  0  0  0  0  0  0  0  0  0  0
   -2.2805  -12.3633    3.0707 C   0  0  0  0  0  0  0  0  0  0  0  0
   -1.9970  -13.6758    2.8495 C   0  0  0  0  0  0  0  0  0  0  0  0
   -0.8593  -14.1375    2.3841 C   0  0  0  0  0  0  0  0  0  0  0  0
    0.1186  -13.2493    2.0139 C   0  0  0  0  0  0  0  0  0  0  0  0
   -0.4777  -15.4953    2.3931 C   0  0  0  0  0  0  0  0  0  0  0  0
    0.7883  -15.9250    2.7023 C   0  0  0  0  0  0  0  0  0  0  0  0
    1.8070  -15.2829    2.8841 C   0  0  0  0  0  0  0  0  0  0  0  0
  2  3  1  0
  3  4  1  0
  8  9  1  0
  9 10  1  0
 14 16  1  0
 16 17  1  0
 17 18  2  0
  1  2  2  0
  2  8  1  0
  7  8  2  0
  6  7  1  0
  5  6  2  0
  1  5  1  0
 10 11  2  0
 11 12  1  0
 12 13  2  0
 13 14  1  0
 14 15  2  0
 10 15  1  0
M  END

$$$$
No_1469-/export/home/yangzhenyu/potential_scad_32_flow//YTHDC2/2024-12-06-03-22-00/
     RDKit          3D

 18 19  0  0  0  0  0  0  0  0999 V2000
    1.1787   -8.0297    3.5154 C   0  0  0  0  0  0  0  0  0  0  0  0
    1.0491   -6.8434    2.9820 C   0  0  0  0  0  0  0  0  0  0  0  0
    1.9985   -8.9840    2.8958 C   0  0  0  0  0  0  0  0  0  0  0  0
    1.9135  -10.3404    3.6266 C   0  0  0  0  0  0  0  0  0  0  0  0
    0.7479  -10.9191    3.7202 C   0  0  0  0  0  0  0  0  0  0  0  0
    0.2782   -6.7158    1.8352 C   0  0  0  0  0  0  0  0  0  0  0  0
    0.0493   -5.5581    1.3972 C   0  0  0  0  0  0  0  0  0  0  0  0
    0.7380  -12.2898    3.4040 C   0  0  0  0  0  0  0  0  0  0  0  0
    1.8534  -13.1002    3.4457 C   0  0  0  0  0  0  0  0  0  0  0  0
    0.7230   -4.4013    1.9510 C   0  0  0  0  0  0  0  0  0  0  0  0
    1.6025   -4.5878    3.0042 C   0  0  0  0  0  0  0  0  0  0  0  0
    1.6842   -5.8278    3.6254 C   0  0  0  0  0  0  0  0  0  0  0  0
    1.9466  -14.0814    2.3057 C   0  0  0  0  0  0  0  0  0  0  0  0
    0.8345  -14.6139    2.1039 C   0  0  0  0  0  0  0  0  0  0  0  0
   -0.3270  -13.7008    2.0300 C   0  0  0  0  0  0  0  0  0  0  0  0
   -0.4381  -12.7591    3.0279 C   0  0  0  0  0  0  0  0  0  0  0  0
    0.5938   -3.1308    1.2745 Cl  0  0  0  0  0  0  0  0  0  0  0  0
   -0.2273  -10.2541    4.3512 O   0  0  0  0  0  0  0  0  0  0  0  0
  1  2  1  0
  1  3  1  0
  3  4  1  0
  4  5  1  0
  5  8  1  0
  8  9  1  0
  9 13  1  0
 13 14  1  0
 14 15  1  0
  8 16  1  0
 15 16  1  0
 10 17  1  0
  5 18  2  0
  2  6  2  0
  6  7  1  0
  7 10  2  0
 10 11  1  0
 11 12  2  0
  2 12  1  0
M  END

$$$$
No_1470-/export/home/yangzhenyu/potential_scad_32_flow//YTHDC2/2024-12-06-03-22-00/
     RDKit          3D

 18 19  0  0  0  0  0  0  0  0999 V2000
    1.1787   -8.0297    3.5154 C   0  0  0  0  0  0  0  0  0  0  0  0
    1.1048   -9.2215    3.2892 C   0  0  0  0  0  0  0  0  0  0  0  0
    1.2339   -9.7611    2.0189 C   0  0  0  0  0  0  0  0  0  0  0  0
    1.3583   -9.0036    0.9764 C   0  0  0  0  0  0  0  0  0  0  0  0
    1.5996   -7.6362    1.1311 C   0  0  0  0  0  0  0  0  0  0  0  0
    1.4830   -7.0928    2.3626 C   0  0  0  0  0  0  0  0  0  0  0  0
    1.1008  -11.2372    1.8542 C   0  0  0  0  0  0  0  0  0  0  0  0
    1.9749  -12.0938    2.2342 C   0  0  0  0  0  0  0  0  0  0  0  0
    1.7533  -13.4231    1.8956 C   0  0  0  0  0  0  0  0  0  0  0  0
    0.8624  -13.8318    1.1071 C   0  0  0  0  0  0  0  0  0  0  0  0
   -0.0624  -12.9093    0.5581 C   0  0  0  0  0  0  0  0  0  0  0  0
    0.1157  -11.5285    0.9404 C   0  0  0  0  0  0  0  0  0  0  0  0
    1.5561   -5.6354    2.6426 Cl  0  0  0  0  0  0  0  0  0  0  0  0
   -0.8311  -10.6449    0.4827 I   0  0  0  0  0  0  0  0  0  0  0  0
    2.7682  -14.3838    2.4408 Cl  0  0  0  0  0  0  0  0  0  0  0  0
    1.6510   -9.3624   -0.3439 N   0  0  0  0  0  0  0  0  0  0  0  0
    2.3893   -8.7831   -1.3728 C   0  0  0  0  0  0  0  0  0  0  0  0
    3.5986   -8.6861   -1.0729 O   0  0  0  0  0  0  0  0  0  0  0  0
  3  7  1  0
  6 13  1  0
 12 14  1  0
  9 15  1  0
  4 16  1  0
 16 17  1  0
 17 18  2  0
  1  2  2  0
  2  3  1  0
  3  4  2  0
  4  5  1  0
  5  6  2  0
  1  6  1  0
  7  8  2  0
  8  9  1  0
  9 10  2  0
 10 11  1  0
 11 12  2  0
  7 12  1  0
M  END

$$$$
No_1471-/export/home/yangzhenyu/potential_scad_32_flow//YTHDC2/2024-12-06-03-22-00/
     RDKit          3D

 18 18  0  0  1  0  0  0  0  0999 V2000
    1.1787   -8.0297    3.5154 C   0  0  0  0  0  0  0  0  0  0  0  0
    1.1048   -9.2215    3.2892 C   0  0  0  0  0  0  0  0  0  0  0  0
    1.3627  -10.1721    4.3044 C   0  0  0  0  0  0  0  0  0  0  0  0
    1.0682  -11.5187    4.0618 C   0  0  0  0  0  0  0  0  0  0  0  0
    0.6332  -11.9655    2.9682 C   0  0  0  0  0  0  0  0  0  0  0  0
    0.4776  -11.1308    1.9203 C   0  0  0  0  0  0  0  0  0  0  0  0
    0.7470   -9.8274    2.0368 C   0  0  0  0  0  0  0  0  0  0  0  0
    1.0387   -7.0301    2.5175 N   0  0  0  0  0  0  0  0  0  0  0  0
    1.0482   -5.6912    2.8349 C   0  0  0  0  0  0  0  0  0  0  0  0
    0.4226  -13.5695    2.8029 C   0  0  1  0  0  0  0  0  0  0  0  0
   -0.6540  -13.9935    2.3527 C   0  0  0  0  0  0  0  0  0  0  0  0
   -1.7365  -13.3267    2.2269 C   0  0  0  0  0  0  0  0  0  0  0  0
    1.6404  -14.3872    2.8596 C   0  0  0  0  0  0  0  0  0  0  0  0
    1.6855   -5.2188    3.8739 O   0  0  0  0  0  0  0  0  0  0  0  0
    0.4044   -4.7805    1.8561 C   0  0  0  0  0  0  0  0  0  0  0  0
   -2.9314  -13.9145    1.7824 C   0  0  0  0  0  0  0  0  0  0  0  0
   -4.0623  -13.1643    1.7688 C   0  0  0  0  0  0  0  0  0  0  0  0
   -3.9945  -11.7961    2.0624 C   0  0  0  0  0  0  0  0  0  0  0  0
  1  2  1  0
  1  8  1  0
  8  9  1  0
  5 10  1  0
 10 11  1  0
 11 12  2  3
 10 13  1  6
  9 14  2  0
  9 15  1  0
 12 16  1  0
 16 17  2  3
 17 18  1  0
  2  3  2  0
  3  4  1  0
  4  5  2  0
  5  6  1  0
  6  7  2  0
  2  7  1  0
M  END

$$$$
No_1472-/export/home/yangzhenyu/potential_scad_32_flow//YTHDC2/2024-12-06-03-22-00/
     RDKit          3D

 19 19  0  0  1  0  0  0  0  0999 V2000
    1.1787   -8.0297    3.5154 N   0  0  0  0  0  0  0  0  0  0  0  0
    0.8669   -7.0905    2.8589 C   0  0  0  0  0  0  0  0  0  0  0  0
    1.0447   -7.3244    1.4123 C   0  0  0  0  0  0  0  0  0  0  0  0
    1.3746   -8.4389    1.0864 C   0  0  2  0  0  0  0  0  0  0  0  0
    1.6686   -9.1952    2.5608 C   0  0  0  0  0  0  0  0  0  0  0  0
    1.7474   -9.1250   -0.0219 C   0  0  0  0  0  0  0  0  0  0  0  0
    2.1020   -8.4131   -1.0307 O   0  0  0  0  0  0  0  0  0  0  0  0
    1.7329  -10.3816   -0.1667 O   0  0  0  0  0  0  0  0  0  0  0  0
    1.9649  -10.5127    2.8990 C   0  0  0  0  0  0  0  0  0  0  0  0
    1.0445  -11.1627    3.7010 C   0  0  0  0  0  0  0  0  0  0  0  0
    1.3348  -12.5036    3.7351 C   0  0  0  0  0  0  0  0  0  0  0  0
    1.1272  -13.1351    2.3840 C   0  0  0  0  0  0  0  0  0  0  0  0
   -0.0424  -12.9568    1.8498 O   0  0  0  0  0  0  0  0  0  0  0  0
    2.0303  -14.0488    2.0835 O   0  0  0  0  0  0  0  0  0  0  0  0
    0.6470   -5.7488    3.4951 C   0  0  0  0  0  0  0  0  0  0  0  0
   -0.3801   -5.0648    3.0715 C   0  0  0  0  0  0  0  0  0  0  0  0
   -0.5700   -3.7370    3.5534 N   0  0  0  0  0  0  0  0  0  0  0  0
   -1.4794   -5.5085    2.3504 C   0  0  0  0  0  0  0  0  0  0  0  0
   -2.1411   -4.5720    1.6984 C   0  0  0  0  0  0  0  0  0  0  0  0
  1  2  1  0
  2  3  2  0
  3  4  1  0
  1  5  2  0
  4  5  1  0
  4  6  1  6
  6  7  2  0
  6  8  1  0
  5  9  1  0
  9 10  1  0
 10 11  1  0
 11 12  1  0
 12 13  2  0
 12 14  1  0
  2 15  1  0
 15 16  2  3
 16 17  1  0
 16 18  1  0
 18 19  2  0
M  END

$$$$
No_1473-/export/home/yangzhenyu/potential_scad_32_flow//YTHDC2/2024-12-06-03-22-00/
     RDKit          3D

 18 19  0  0  0  0  0  0  0  0999 V2000
    1.1787   -8.0297    3.5154 C   0  0  0  0  0  0  0  0  0  0  0  0
    1.1048   -9.2215    3.2892 C   0  0  0  0  0  0  0  0  0  0  0  0
    1.0239   -9.7790    2.0239 C   0  0  0  0  0  0  0  0  0  0  0  0
    1.1393   -9.0211    0.9686 C   0  0  0  0  0  0  0  0  0  0  0  0
    1.4050   -7.6500    1.1251 C   0  0  0  0  0  0  0  0  0  0  0  0
    1.4868   -7.1041    2.3534 C   0  0  0  0  0  0  0  0  0  0  0  0
    1.5562   -5.7208    2.5782 C   0  0  0  0  0  0  0  0  0  0  0  0
    0.8782  -11.3633    1.9235 C   0  0  0  0  0  0  0  0  0  0  0  0
    1.9186  -12.0693    2.0412 C   0  0  0  0  0  0  0  0  0  0  0  0
    1.7020  -13.4700    1.8844 C   0  0  0  0  0  0  0  0  0  0  0  0
    0.5712  -13.9781    1.6662 C   0  0  0  0  0  0  0  0  0  0  0  0
   -0.5551  -13.2597    1.6468 C   0  0  0  0  0  0  0  0  0  0  0  0
   -0.3723  -11.8326    1.7102 C   0  0  0  0  0  0  0  0  0  0  0  0
   -1.5338  -11.0351    1.6733 C   0  0  0  0  0  0  0  0  0  0  0  0
   -2.6372  -11.4126    1.4362 C   0  0  0  0  0  0  0  0  0  0  0  0
   -3.8263  -10.5071    1.3962 N   0  0  0  0  0  0  0  0  0  0  0  0
   -4.9068  -11.0212    1.3962 C   0  0  0  0  0  0  0  0  0  0  0  0
   -5.9886  -10.2195    1.4156 N   0  0  0  0  0  0  0  0  0  0  0  0
  6  7  1  0
  3  8  1  0
 13 14  1  0
 14 15  2  3
 15 16  1  0
 16 17  2  3
 17 18  1  0
  1  2  2  0
  2  3  1  0
  3  4  2  0
  4  5  1  0
  5  6  2  0
  1  6  1  0
  8  9  2  0
  9 10  1  0
 10 11  2  0
 11 12  1  0
 12 13  2  0
  8 13  1  0
M  END

$$$$
No_1474-/export/home/yangzhenyu/potential_scad_32_flow//YTHDC2/2024-12-06-03-22-00/
     RDKit          3D

 18 19  0  0  0  0  0  0  0  0999 V2000
    1.1787   -8.0297    3.5154 C   0  0  0  0  0  0  0  0  0  0  0  0
    1.0491   -6.8434    2.9820 C   0  0  0  0  0  0  0  0  0  0  0  0
    0.0950   -8.8404    3.2292 C   0  0  0  0  0  0  0  0  0  0  0  0
   -0.9173   -8.4596    2.5152 C   0  0  0  0  0  0  0  0  0  0  0  0
   -1.0331   -7.2162    2.0653 C   0  0  0  0  0  0  0  0  0  0  0  0
   -0.0105   -6.3168    2.3081 C   0  0  0  0  0  0  0  0  0  0  0  0
    0.1150   -4.9910    1.8495 C   0  0  0  0  0  0  0  0  0  0  0  0
   -0.1376   -4.7952    0.5550 I   0  0  0  0  0  0  0  0  0  0  0  0
    0.1749  -10.2846    3.6724 C   0  0  0  0  0  0  0  0  0  0  0  0
    0.2901  -11.3529    2.8111 C   0  0  0  0  0  0  0  0  0  0  0  0
    0.9862  -12.5315    3.2730 C   0  0  0  0  0  0  0  0  0  0  0  0
    1.0598  -13.6024    2.4697 C   0  0  0  0  0  0  0  0  0  0  0  0
    0.5760  -13.6985    1.3589 C   0  0  0  0  0  0  0  0  0  0  0  0
   -0.0468  -12.6029    0.7599 C   0  0  0  0  0  0  0  0  0  0  0  0
   -0.1454  -11.4155    1.5161 C   0  0  0  0  0  0  0  0  0  0  0  0
    1.7317  -14.8421    3.0401 C   0  0  0  0  0  0  0  0  0  0  0  0
    1.5454  -16.0230    2.2508 N   0  0  0  0  0  0  0  0  0  0  0  0
    0.7413  -16.9252    2.2859 C   0  0  0  0  0  0  0  0  0  0  0  0
  6  7  1  0
  7  8  1  0
  3  9  1  0
  9 10  1  0
 12 16  1  0
 16 17  1  0
 17 18  1  0
  1  2  2  0
  2  6  1  0
  5  6  2  0
  4  5  1  0
  3  4  2  0
  1  3  1  0
 10 11  2  0
 11 12  1  0
 12 13  2  0
 13 14  1  0
 14 15  2  0
 10 15  1  0
M  END

$$$$
No_1475-/export/home/yangzhenyu/potential_scad_32_flow//YTHDC2/2024-12-06-03-22-00/
     RDKit          3D

 19 20  0  0  1  0  0  0  0  0999 V2000
    1.1787   -8.0297    3.5154 C   0  0  0  0  0  0  0  0  0  0  0  0
    1.1048   -9.2215    3.2892 C   0  0  0  0  0  0  0  0  0  0  0  0
    1.2339   -9.7611    2.0189 C   0  0  0  0  0  0  0  0  0  0  0  0
    1.3583   -9.0036    0.9764 C   0  0  0  0  0  0  0  0  0  0  0  0
    1.5996   -7.6362    1.1311 C   0  0  0  0  0  0  0  0  0  0  0  0
    1.4830   -7.0928    2.3626 C   0  0  0  0  0  0  0  0  0  0  0  0
    1.5395   -5.7300    2.6182 C   0  0  0  0  0  0  0  0  0  0  0  0
    1.1775  -11.2233    1.8407 C   0  0  0  0  0  0  0  0  0  0  0  0
    1.9057  -12.1147    2.3397 C   0  0  0  0  0  0  0  0  0  0  0  0
    1.6867  -13.4551    2.0621 C   0  0  2  0  0  0  0  0  0  0  0  0
    0.7025  -13.8511    1.3021 C   0  0  0  0  0  0  0  0  0  0  0  0
   -0.1111  -12.9140    0.6527 C   0  0  0  0  0  0  0  0  0  0  0  0
    0.1535  -11.5434    0.9240 C   0  0  0  0  0  0  0  0  0  0  0  0
    1.6688   -5.1779    3.8866 N   0  0  0  0  0  0  0  0  0  0  0  0
    1.4208   -4.8405    1.6351 O   0  0  0  0  0  0  0  0  0  0  0  0
    2.5137  -14.4238    2.7654 Cl  0  0  0  0  0  0  0  0  0  0  0  0
   -0.6878  -10.6613    0.3273 O   0  0  0  0  0  0  0  0  0  0  0  0
    1.6120   -9.3930   -0.3683 C   0  0  0  0  0  0  0  0  0  0  0  0
    2.4811  -10.2611   -0.7085 O   0  0  0  0  0  0  0  0  0  0  0  0
  6  7  1  0
  3  8  1  0
  8  9  1  0
 10 11  1  0
  8 13  1  0
 12 13  1  0
  7 14  1  0
  7 15  2  0
 10 16  1  1
 13 17  2  0
  4 18  1  0
 18 19  2  0
  9 10  1  0
 11 12  1  0
  1  2  2  0
  2  3  1  0
  3  4  2  0
  4  5  1  0
  5  6  2  0
  1  6  1  0
M  END

$$$$
No_1476-/export/home/yangzhenyu/potential_scad_32_flow//YTHDC2/2024-12-06-03-22-00/
     RDKit          3D

 18 19  0  0  1  0  0  0  0  0999 V2000
    1.1787   -8.0297    3.5154 C   0  0  0  0  0  0  0  0  0  0  0  0
    1.1048   -9.2215    3.2892 C   0  0  0  0  0  0  0  0  0  0  0  0
    1.2339   -9.7611    2.0189 C   0  0  0  0  0  0  0  0  0  0  0  0
    1.3583   -9.0036    0.9764 C   0  0  0  0  0  0  0  0  0  0  0  0
    1.5996   -7.6362    1.1311 C   0  0  0  0  0  0  0  0  0  0  0  0
    1.4830   -7.0928    2.3626 C   0  0  0  0  0  0  0  0  0  0  0  0
    1.4898   -5.7274    2.6199 C   0  0  0  0  0  0  0  0  0  0  0  0
    1.1882  -11.3736    1.8424 C   0  0  1  0  0  0  0  0  0  0  0  0
    1.0670  -11.6643    0.5390 C   0  0  2  0  0  0  0  0  0  0  0  0
    0.3699  -11.2684   -0.2679 N   0  0  0  0  0  0  0  0  0  0  0  0
    1.5267  -13.1390    0.4543 N   0  0  0  0  0  0  0  0  0  0  0  0
    1.6625   -5.2064    3.8560 O   0  0  0  0  0  0  0  0  0  0  0  0
    1.3577   -4.8432    1.6629 O   0  0  0  0  0  0  0  0  0  0  0  0
    1.8729  -11.9830    2.8907 C   0  0  2  0  0  0  0  0  0  0  0  0
    2.4671  -11.6778    3.7637 C   0  0  0  0  0  0  0  0  0  0  0  0
    1.8502  -13.4413    2.4863 C   0  0  0  0  0  0  0  0  0  0  0  0
    1.7589  -13.9717    1.3436 N   0  0  0  0  0  0  0  0  0  0  0  0
    2.4785  -14.2930    3.5325 O   0  0  0  0  0  0  0  0  0  0  0  0
  6  7  1  0
  8  3  1  6
  8  9  1  0
  9 11  1  0
  7 12  1  0
  7 13  2  0
  8 14  1  0
 14 16  1  0
 16 17  1  0
 16 18  2  0
  9 10  1  1
 14 15  1  6
 11 17  1  0
  1  2  2  0
  2  3  1  0
  3  4  2  0
  4  5  1  0
  5  6  2  0
  1  6  1  0
M  END

$$$$
No_1477-/export/home/yangzhenyu/potential_scad_32_flow//YTHDC2/2024-12-06-03-22-00/
     RDKit          3D

 18 19  0  0  1  0  0  0  0  0999 V2000
    1.1787   -8.0297    3.5154 N   0  0  0  0  0  0  0  0  0  0  0  0
    0.8669   -7.0905    2.8589 C   0  0  0  0  0  0  0  0  0  0  0  0
    1.0447   -7.3244    1.4123 C   0  0  0  0  0  0  0  0  0  0  0  0
    1.3746   -8.4389    1.0864 C   0  0  1  0  0  0  0  0  0  0  0  0
    1.8185   -8.7923   -0.3129 O   0  0  0  0  0  0  0  0  0  0  0  0
    1.8053   -9.1967    2.2310 C   0  0  2  0  0  0  0  0  0  0  0  0
    2.1387  -10.3831    2.5076 C   0  0  0  0  0  0  0  0  0  0  0  0
    1.2883  -11.3101    2.7918 C   0  0  0  0  0  0  0  0  0  0  0  0
    0.1551  -11.0243    3.0872 C   0  0  0  0  0  0  0  0  0  0  0  0
   -0.8350  -12.0898    3.3488 C   0  0  0  0  0  0  0  0  0  0  0  0
   -0.4804  -13.3333    2.9955 C   0  0  0  0  0  0  0  0  0  0  0  0
    0.8378  -13.7013    2.5795 C   0  0  0  0  0  0  0  0  0  0  0  0
    1.7142  -12.6503    2.4093 C   0  0  0  0  0  0  0  0  0  0  0  0
    1.2366  -14.9846    2.3979 C   0  0  0  0  0  0  0  0  0  0  0  0
    2.4546  -15.3404    1.9406 O   0  0  0  0  0  0  0  0  0  0  0  0
    0.4690  -16.0725    2.7466 O   0  0  0  0  0  0  0  0  0  0  0  0
    0.7371   -6.2885    0.5206 C   0  0  0  0  0  0  0  0  0  0  0  0
   -0.3715   -6.3264   -0.0293 C   0  0  0  0  0  0  0  0  0  0  0  0
  1  2  1  0
  2  3  2  0
  3  4  1  0
  4  5  1  6
  1  6  1  0
  4  6  1  0
  6  7  1  1
  7  8  1  0
 12 14  1  0
 14 15  2  0
 14 16  1  0
  3 17  1  0
 17 18  2  0
  8  9  2  0
  9 10  1  0
 10 11  2  0
 11 12  1  0
 12 13  2  0
  8 13  1  0
M  END

$$$$
No_1478-/export/home/yangzhenyu/potential_scad_32_flow//YTHDC2/2024-12-06-03-22-00/
     RDKit          3D

 19 20  0  0  0  0  0  0  0  0999 V2000
    1.1787   -8.0297    3.5154 C   0  0  0  0  0  0  0  0  0  0  0  0
    1.0491   -6.8434    2.9820 C   0  0  0  0  0  0  0  0  0  0  0  0
    0.2462   -8.9560    3.0873 C   0  0  0  0  0  0  0  0  0  0  0  0
    0.3295   -6.5187    1.9069 C   0  0  0  0  0  0  0  0  0  0  0  0
   -0.5260   -8.7862    2.1368 C   0  0  0  0  0  0  0  0  0  0  0  0
   -0.5458   -7.5614    1.5054 C   0  0  0  0  0  0  0  0  0  0  0  0
    0.3663  -10.3301    3.7373 C   0  0  0  0  0  0  0  0  0  0  0  0
    1.4366  -10.9552    4.0036 C   0  0  0  0  0  0  0  0  0  0  0  0
    1.4341  -12.3582    3.7416 C   0  0  0  0  0  0  0  0  0  0  0  0
    1.1840  -12.4254    2.2540 C   0  0  0  0  0  0  0  0  0  0  0  0
    0.9828  -13.6729    1.7445 C   0  0  0  0  0  0  0  0  0  0  0  0
    2.0418  -14.6645    2.0425 C   0  0  0  0  0  0  0  0  0  0  0  0
    0.2670   -5.3160    1.2597 Cl  0  0  0  0  0  0  0  0  0  0  0  0
    1.7612  -15.8785    2.1541 C   0  0  0  0  0  0  0  0  0  0  0  0
    0.7179  -16.4525    1.7163 C   0  0  0  0  0  0  0  0  0  0  0  0
   -0.2998  -15.6964    1.2943 C   0  0  0  0  0  0  0  0  0  0  0  0
   -0.1866  -14.3154    1.3101 C   0  0  0  0  0  0  0  0  0  0  0  0
   -1.1997  -13.5108    0.9215 C   0  0  0  0  0  0  0  0  0  0  0  0
   -2.0423  -13.6016    0.3662 C   0  0  0  0  0  0  0  0  0  0  0  0
  3  7  1  0
  7  8  1  0
  8  9  1  0
  9 10  1  0
 10 11  1  0
  4 13  1  0
 17 18  1  0
 18 19  2  0
 11 12  2  0
 12 14  1  0
 14 15  2  0
 15 16  1  0
 16 17  2  0
 11 17  1  0
  1  2  2  0
  2  4  1  0
  4  6  2  0
  5  6  1  0
  3  5  2  0
  1  3  1  0
M  END

$$$$
No_1479-/export/home/yangzhenyu/potential_scad_32_flow//YTHDC2/2024-12-06-03-22-00/
     RDKit          3D

 17 18  0  0  1  0  0  0  0  0999 V2000
    1.1787   -8.0297    3.5154 C   0  0  0  0  0  0  0  0  0  0  0  0
    1.1048   -9.2215    3.2892 C   0  0  0  0  0  0  0  0  0  0  0  0
    1.2339   -9.7611    2.0189 C   0  0  0  0  0  0  0  0  0  0  0  0
    1.3583   -9.0036    0.9764 C   0  0  0  0  0  0  0  0  0  0  0  0
    1.5996   -7.6362    1.1311 C   0  0  0  0  0  0  0  0  0  0  0  0
    1.4830   -7.0928    2.3626 C   0  0  0  0  0  0  0  0  0  0  0  0
    1.1008  -11.2372    1.8542 C   0  0  2  0  0  0  0  0  0  0  0  0
    1.9749  -12.0938    2.2342 C   0  0  0  0  0  0  0  0  0  0  0  0
    1.7533  -13.4231    1.8956 C   0  0  0  0  0  0  0  0  0  0  0  0
    0.5760  -13.4522    1.0640 C   0  0  2  0  0  0  0  0  0  0  0  0
    0.1225  -14.4215    0.2867 C   0  0  0  0  0  0  0  0  0  0  0  0
    0.2412  -11.9344    0.9880 C   0  0  0  0  0  0  0  0  0  0  0  0
    1.5363   -5.6404    2.6199 Cl  0  0  0  0  0  0  0  0  0  0  0  0
   -0.7667  -14.0324   -0.7565 O   0  0  0  0  0  0  0  0  0  0  0  0
   -0.2020  -15.4877    0.8163 O   0  0  0  0  0  0  0  0  0  0  0  0
    1.6025   -9.5212   -0.5335 C   0  0  0  0  0  0  0  0  0  0  0  0
    0.4857   -9.6921   -1.1001 O   0  0  0  0  0  0  0  0  0  0  0  0
  7  3  1  6
  7  8  1  0
  8  9  2  0
  9 10  1  0
 10 11  1  6
  7 12  1  0
 10 12  1  0
  6 13  1  0
 11 14  1  0
 11 15  2  0
  4 16  1  0
 16 17  2  0
  1  2  2  0
  2  3  1  0
  3  4  2  0
  4  5  1  0
  5  6  2  0
  1  6  1  0
M  END

$$$$
No_1480-/export/home/yangzhenyu/potential_scad_32_flow//YTHDC2/2024-12-06-03-22-00/
     RDKit          3D

 18 19  0  0  1  0  0  0  0  0999 V2000
    1.1787   -8.0297    3.5154 C   0  0  0  0  0  0  0  0  0  0  0  0
    1.0491   -6.8434    2.9820 C   0  0  0  0  0  0  0  0  0  0  0  0
    0.0950   -8.8404    3.2292 C   0  0  0  0  0  0  0  0  0  0  0  0
   -0.9173   -8.4596    2.5152 C   0  0  0  0  0  0  0  0  0  0  0  0
   -1.0331   -7.2162    2.0653 C   0  0  0  0  0  0  0  0  0  0  0  0
   -0.0105   -6.3168    2.3081 C   0  0  0  0  0  0  0  0  0  0  0  0
    0.1150   -4.9910    1.8495 C   0  0  0  0  0  0  0  0  0  0  0  0
    0.9121   -4.1017    2.4010 C   0  0  0  0  0  0  0  0  0  0  0  0
    0.1290  -10.2853    3.6695 S   0  0  0  0  0  0  0  0  0  0  0  0
    0.2992  -11.3633    2.5153 C   0  0  2  0  0  0  0  0  0  0  0  0
    0.3358  -12.6998    2.7163 C   0  0  0  0  0  0  0  0  0  0  0  0
    1.6625  -13.3849    3.0706 C   0  0  0  0  0  0  0  0  0  0  0  0
    1.5015  -14.8409    2.9764 C   0  0  0  0  0  0  0  0  0  0  0  0
    0.2844  -15.4518    2.6846 C   0  0  0  0  0  0  0  0  0  0  0  0
   -0.7905  -14.7469    2.3055 C   0  0  0  0  0  0  0  0  0  0  0  0
   -0.7493  -13.4166    2.2991 C   0  0  0  0  0  0  0  0  0  0  0  0
    0.8379  -10.6979    1.2827 C   0  0  0  0  0  0  0  0  0  0  0  0
    2.1168  -10.3834    0.8577 C   0  0  0  0  0  0  0  0  0  0  0  0
  6  7  1  0
  7  8  2  0
  3  9  1  0
  9 10  1  0
 10 11  1  0
 10 17  1  1
 17 18  1  0
 11 12  2  0
 12 13  1  0
 13 14  2  0
 14 15  1  0
 15 16  2  0
 11 16  1  0
  1  2  2  0
  2  6  1  0
  5  6  2  0
  4  5  1  0
  3  4  2  0
  1  3  1  0
M  END

$$$$
No_1481-/export/home/yangzhenyu/potential_scad_32_flow//YTHDC2/2024-12-06-03-22-00/
     RDKit          3D

 18 19  0  0  0  0  0  0  0  0999 V2000
    1.1787   -8.0297    3.5154 C   0  0  0  0  0  0  0  0  0  0  0  0
    1.0491   -6.8434    2.9820 C   0  0  0  0  0  0  0  0  0  0  0  0
    0.9905   -9.0774    2.6527 C   0  0  0  0  0  0  0  0  0  0  0  0
    0.7897   -8.9519    1.3691 C   0  0  0  0  0  0  0  0  0  0  0  0
    0.7018   -7.7198    0.7892 C   0  0  0  0  0  0  0  0  0  0  0  0
    0.8918   -6.5957    1.6117 C   0  0  0  0  0  0  0  0  0  0  0  0
    1.0711  -10.4814    3.2282 C   0  0  0  0  0  0  0  0  0  0  0  0
    2.1432  -11.0138    3.5962 C   0  0  0  0  0  0  0  0  0  0  0  0
   -0.0553  -11.2345    3.2841 C   0  0  0  0  0  0  0  0  0  0  0  0
   -0.1131  -12.4857    3.1636 C   0  0  0  0  0  0  0  0  0  0  0  0
    1.1361  -13.1925    3.4825 C   0  0  0  0  0  0  0  0  0  0  0  0
    2.2643  -12.4364    3.7039 C   0  0  0  0  0  0  0  0  0  0  0  0
    0.8285   -5.2828    1.0964 C   0  0  0  0  0  0  0  0  0  0  0  0
   -0.3501   -4.7592    0.7215 N   0  0  0  0  0  0  0  0  0  0  0  0
   -1.5079   -5.4645    1.1089 C   0  0  0  0  0  0  0  0  0  0  0  0
   -0.3850   -3.4132    0.3357 C   0  0  0  0  0  0  0  0  0  0  0  0
   -2.6975   -4.6405    0.6902 C   0  0  0  0  0  0  0  0  0  0  0  0
   -2.3904   -3.3447    0.3890 C   0  0  0  0  0  0  0  0  0  0  0  0
  3  7  1  0
  6 13  1  0
 13 14  1  0
 14 15  1  0
 14 16  1  0
 15 17  1  0
 17 18  2  0
  1  2  2  0
  2  6  1  0
  5  6  2  0
  4  5  1  0
  3  4  2  0
  1  3  1  0
  7  8  2  0
  8 12  1  0
 11 12  2  0
 10 11  1  0
  9 10  2  0
  7  9  1  0
M  END

$$$$
No_1482-/export/home/yangzhenyu/potential_scad_32_flow//YTHDC2/2024-12-06-03-22-00/
     RDKit          3D

 20 21  0  0  1  0  0  0  0  0999 V2000
    1.1787   -8.0297    3.5154 C   0  0  0  0  0  0  0  0  0  0  0  0
    1.1048   -9.2215    3.2892 C   0  0  0  0  0  0  0  0  0  0  0  0
    1.2339   -9.7611    2.0189 C   0  0  0  0  0  0  0  0  0  0  0  0
    1.3583   -9.0036    0.9764 C   0  0  0  0  0  0  0  0  0  0  0  0
    1.5996   -7.6362    1.1311 C   0  0  0  0  0  0  0  0  0  0  0  0
    1.4830   -7.0928    2.3626 C   0  0  0  0  0  0  0  0  0  0  0  0
    1.5395   -5.7300    2.6182 C   0  0  0  0  0  0  0  0  0  0  0  0
    1.1775  -11.2233    1.8407 C   0  0  0  0  0  0  0  0  0  0  0  0
    0.5085  -11.9762    2.1989 C   0  0  0  0  0  0  0  0  0  0  0  0
    0.4247  -13.3704    2.0465 C   0  0  1  0  0  0  0  0  0  0  0  0
    1.6054  -14.1557    2.4664 C   0  0  0  0  0  0  0  0  0  0  0  0
    1.8180  -15.4260    2.0939 C   0  0  0  0  0  0  0  0  0  0  0  0
    0.9720  -16.3583    2.3542 C   0  0  0  0  0  0  0  0  0  0  0  0
   -0.3004  -16.0035    1.7403 C   0  0  0  0  0  0  0  0  0  0  0  0
   -0.6592  -14.5116    2.1554 C   0  0  2  0  0  0  0  0  0  0  0  0
    1.2977   -4.7978    1.6890 O   0  0  0  0  0  0  0  0  0  0  0  0
    1.5099   -5.1723    3.9124 O   0  0  0  0  0  0  0  0  0  0  0  0
   -1.8359  -14.0382    1.6228 C   0  0  0  0  0  0  0  0  0  0  0  0
   -2.7632  -14.4600    1.5547 C   0  0  0  0  0  0  0  0  0  0  0  0
   -4.1038  -14.0237    1.0618 C   0  0  0  0  0  0  0  0  0  0  0  0
  6  7  1  0
  3  8  1  0
  8  9  2  3
  9 10  1  0
 10 11  1  1
 11 12  1  0
 12 13  1  0
 13 14  1  0
 10 15  1  0
 15 14  1  6
  7 16  2  0
  7 17  1  0
 15 18  1  0
 18 19  2  3
 19 20  1  0
  1  2  2  0
  2  3  1  0
  3  4  2  0
  4  5  1  0
  5  6  2  0
  1  6  1  0
M  END

$$$$
No_1483-/export/home/yangzhenyu/potential_scad_32_flow//YTHDC2/2024-12-06-03-22-00/
     RDKit          3D

 20 21  0  0  0  0  0  0  0  0999 V2000
    1.1787   -8.0297    3.5154 C   0  0  0  0  0  0  0  0  0  0  0  0
    1.0491   -6.8434    2.9820 C   0  0  0  0  0  0  0  0  0  0  0  0
    0.0950   -8.8404    3.2292 C   0  0  0  0  0  0  0  0  0  0  0  0
   -0.9173   -8.4596    2.5152 C   0  0  0  0  0  0  0  0  0  0  0  0
   -1.0331   -7.2162    2.0653 C   0  0  0  0  0  0  0  0  0  0  0  0
   -0.0105   -6.3168    2.3081 C   0  0  0  0  0  0  0  0  0  0  0  0
    0.1465  -10.2446    3.6981 C   0  0  0  0  0  0  0  0  0  0  0  0
   -1.0337  -10.8619    3.9439 N   0  0  0  0  0  0  0  0  0  0  0  0
    1.2772  -10.7468    4.4754 C   0  0  0  0  0  0  0  0  0  0  0  0
    2.0525  -11.5093    3.7767 C   0  0  0  0  0  0  0  0  0  0  0  0
    1.8840  -11.6857    2.4195 C   0  0  0  0  0  0  0  0  0  0  0  0
    1.4905  -12.9525    1.8574 C   0  0  0  0  0  0  0  0  0  0  0  0
    1.7056  -14.1200    2.5747 C   0  0  0  0  0  0  0  0  0  0  0  0
    2.2459  -15.2029    2.0237 C   0  0  0  0  0  0  0  0  0  0  0  0
    2.1122  -16.4623    2.7197 C   0  0  0  0  0  0  0  0  0  0  0  0
    1.4229  -16.7106    3.7510 C   0  0  0  0  0  0  0  0  0  0  0  0
    0.6886  -15.6283    4.3003 C   0  0  0  0  0  0  0  0  0  0  0  0
    0.7419  -14.4545    3.7293 C   0  0  0  0  0  0  0  0  0  0  0  0
   -0.0901   -5.0359    1.7854 O   0  0  0  0  0  0  0  0  0  0  0  0
   -1.8958  -10.4543    3.6110 H   0  0  0  0  0  0  0  0  0  0  0  0
  3  7  1  0
  7  8  2  0
  7  9  1  0
  9 10  2  3
 10 11  1  0
 11 12  1  0
 12 13  1  0
  6 19  1  0
 13 14  2  0
 14 15  1  0
 15 16  2  0
 16 17  1  0
 17 18  2  0
 13 18  1  0
  1  2  2  0
  2  6  1  0
  5  6  2  0
  4  5  1  0
  3  4  2  0
  1  3  1  0
  8 20  1  0
M  END

$$$$
No_1484-/export/home/yangzhenyu/potential_scad_32_flow//YTHDC2/2024-12-06-03-22-00/
     RDKit          3D

 19 19  0  0  0  0  0  0  0  0999 V2000
    1.1787   -8.0297    3.5154 C   0  0  0  0  0  0  0  0  0  0  0  0
    1.0491   -6.8434    2.9820 C   0  0  0  0  0  0  0  0  0  0  0  0
    0.2462   -8.9560    3.0873 C   0  0  0  0  0  0  0  0  0  0  0  0
    0.3295   -6.5187    1.9069 C   0  0  0  0  0  0  0  0  0  0  0  0
   -0.5260   -8.7862    2.1368 C   0  0  0  0  0  0  0  0  0  0  0  0
   -0.5458   -7.5614    1.5054 C   0  0  0  0  0  0  0  0  0  0  0  0
    0.3663  -10.3301    3.7373 S   0  0  0  0  0  0  0  0  0  0  0  0
    1.6244  -10.8821    4.1146 N   0  0  0  0  0  0  0  0  0  0  0  0
   -0.5069  -11.2835    3.0624 O   0  0  0  0  0  0  0  0  0  0  0  0
   -0.4253  -10.1023    5.1307 O   0  0  0  0  0  0  0  0  0  0  0  0
    0.3834   -5.2815    1.2487 O   0  0  0  0  0  0  0  0  0  0  0  0
   -0.6004   -4.4317    1.2385 C   0  0  0  0  0  0  0  0  0  0  0  0
    2.0403  -12.1634    4.0224 C   0  0  0  0  0  0  0  0  0  0  0  0
    2.6362  -12.4525    2.6818 C   0  0  0  0  0  0  0  0  0  0  0  0
    1.4851  -12.9499    1.8474 C   0  0  0  0  0  0  0  0  0  0  0  0
    1.4277  -12.4356    0.6444 C   0  0  0  0  0  0  0  0  0  0  0  0
    0.4505  -11.5098    0.5701 C   0  0  0  0  0  0  0  0  0  0  0  0
    0.8059  -10.1907    0.1853 C   0  0  0  0  0  0  0  0  0  0  0  0
    2.1124   -9.6953    0.4690 C   0  0  0  0  0  0  0  0  0  0  0  0
  3  7  1  0
  7  8  1  0
  7  9  2  0
  7 10  2  0
  4 11  1  0
 11 12  1  0
  8 13  1  0
 13 14  1  0
 14 15  1  0
 15 16  1  0
 16 17  1  0
 17 18  1  0
 18 19  1  0
  1  2  2  0
  2  4  1  0
  4  6  2  0
  5  6  1  0
  3  5  2  0
  1  3  1  0
M  END

$$$$
No_1485-/export/home/yangzhenyu/potential_scad_32_flow//YTHDC2/2024-12-06-03-22-00/
     RDKit          3D

 19 21  0  0  0  0  0  0  0  0999 V2000
    1.1787   -8.0297    3.5154 N   0  0  0  0  0  0  0  0  0  0  0  0
    1.0818   -9.0751    3.2053 C   0  0  0  0  0  0  0  0  0  0  0  0
    0.7576   -9.3725    1.9159 C   0  0  0  0  0  0  0  0  0  0  0  0
    0.7445  -10.8746    1.6491 C   0  0  0  0  0  0  0  0  0  0  0  0
    0.9910  -11.7526    2.6067 C   0  0  0  0  0  0  0  0  0  0  0  0
    1.4405  -11.4331    3.8064 C   0  0  0  0  0  0  0  0  0  0  0  0
    1.4304  -10.0463    4.1669 C   0  0  0  0  0  0  0  0  0  0  0  0
    1.1357   -6.7948    2.7839 C   0  0  0  0  0  0  0  0  0  0  0  0
    1.2410   -7.1363    1.3557 N   0  0  0  0  0  0  0  0  0  0  0  0
    1.0668   -8.3879    0.9503 C   0  0  0  0  0  0  0  0  0  0  0  0
    0.9122   -8.6277   -0.3796 C   0  0  0  0  0  0  0  0  0  0  0  0
   -0.5261   -8.7794   -0.7564 O   0  0  0  0  0  0  0  0  0  0  0  0
    1.7072   -8.7908   -1.2177 O   0  0  0  0  0  0  0  0  0  0  0  0
    0.8970  -13.1476    2.2399 C   0  0  0  0  0  0  0  0  0  0  0  0
    1.9162  -13.9520    2.2382 C   0  0  0  0  0  0  0  0  0  0  0  0
    1.6849  -15.3618    2.2711 C   0  0  0  0  0  0  0  0  0  0  0  0
    0.4713  -15.8337    2.1991 C   0  0  0  0  0  0  0  0  0  0  0  0
   -0.6454  -15.0199    2.3837 C   0  0  0  0  0  0  0  0  0  0  0  0
   -0.4160  -13.6691    2.4586 C   0  0  0  0  0  0  0  0  0  0  0  0
 10 11  1  0
 11 12  1  0
 11 13  2  0
  5 14  1  0
  3  4  1  0
  4  5  2  0
  5  6  1  0
  6  7  2  0
  2  7  1  0
  1  2  2  0
  2  3  1  0
  3 10  2  0
  9 10  1  0
  8  9  2  0
  1  8  1  0
 14 15  2  0
 15 16  1  0
 16 17  2  0
 17 18  1  0
 18 19  2  0
 14 19  1  0
M  END

$$$$
No_1486-/export/home/yangzhenyu/potential_scad_32_flow//YTHDC2/2024-12-06-03-22-00/
     RDKit          3D

 19 19  0  0  1  0  0  0  0  0999 V2000
    1.1787   -8.0297    3.5154 C   0  0  0  0  0  0  0  0  0  0  0  0
    1.0491   -6.8434    2.9820 C   0  0  0  0  0  0  0  0  0  0  0  0
    0.9905   -9.0774    2.6527 C   0  0  0  0  0  0  0  0  0  0  0  0
    0.7897   -8.9519    1.3691 C   0  0  0  0  0  0  0  0  0  0  0  0
    0.8824   -7.5617    0.9293 C   0  0  0  0  0  0  0  0  0  0  0  0
    1.0828   -6.5260    1.6856 C   0  0  0  0  0  0  0  0  0  0  0  0
    0.9482  -10.4875    3.1638 C   0  0  0  0  0  0  0  0  0  0  0  0
    1.1380  -11.5604    2.3253 C   0  0  0  0  0  0  0  0  0  0  0  0
    1.1947  -12.8780    2.9288 N   0  0  0  0  0  0  0  0  0  0  0  0
    1.1937  -14.0085    2.2934 C   0  0  1  0  0  0  0  0  0  0  0  0
    0.9802  -13.9843    0.9890 C   0  0  0  0  0  0  0  0  0  0  0  0
    1.5224  -15.2216    2.8839 C   0  0  0  0  0  0  0  0  0  0  0  0
    2.0070  -16.3407    2.1140 N   0  0  0  0  0  0  0  0  0  0  0  0
    1.1512  -15.0344    0.1400 O   0  0  0  0  0  0  0  0  0  0  0  0
    0.9733  -10.7032    4.5049 O   0  0  0  0  0  0  0  0  0  0  0  0
    0.6656  -12.7952    0.2834 C   0  0  0  0  0  0  0  0  0  0  0  0
   -0.1628  -12.7538   -0.6731 C   0  0  0  0  0  0  0  0  0  0  0  0
   -0.9616  -11.6083   -1.0524 C   0  0  0  0  0  0  0  0  0  0  0  0
   -0.8538  -10.5226   -0.0497 N   0  0  0  0  0  0  0  0  0  0  0  0
  3  7  1  0
  7  8  1  0
  8  9  1  0
  9 10  1  0
 10 11  1  0
 10 12  1  6
 12 13  1  0
 11 14  2  0
  7 15  2  0
 11 16  1  0
 16 17  1  0
 17 18  2  3
 18 19  1  0
  1  2  2  0
  2  6  1  0
  5  6  2  0
  4  5  1  0
  3  4  2  0
  1  3  1  0
M  END

$$$$
No_1487-/export/home/yangzhenyu/potential_scad_32_flow//YTHDC2/2024-12-06-03-22-00/
     RDKit          3D

 17 17  0  0  1  0  0  0  0  0999 V2000
    1.1787   -8.0297    3.5154 C   0  0  0  0  0  0  0  0  0  0  0  0
    1.1048   -9.2215    3.2892 C   0  0  0  0  0  0  0  0  0  0  0  0
    1.2339   -9.7611    2.0189 C   0  0  0  0  0  0  0  0  0  0  0  0
    1.3583   -9.0036    0.9764 C   0  0  0  0  0  0  0  0  0  0  0  0
    1.5996   -7.6362    1.1311 C   0  0  0  0  0  0  0  0  0  0  0  0
    1.4830   -7.0928    2.3626 C   0  0  0  0  0  0  0  0  0  0  0  0
    1.1008  -11.2372    1.8542 C   0  0  0  0  0  0  0  0  0  0  0  0
    0.4812  -11.6084    0.6459 P   0  0  2  0  0  0  0  0  0  0  0  0
    0.8573  -13.0898    0.3817 O   0  0  0  0  0  0  0  0  0  0  0  0
    0.6354  -10.7779   -0.5344 O   0  0  0  0  0  0  0  0  0  0  0  0
   -1.0708  -11.6541    1.0175 O   0  0  0  0  0  0  0  0  0  0  0  0
    1.5462   -5.6603    2.6881 Cl  0  0  0  0  0  0  0  0  0  0  0  0
    0.8305  -10.2981    4.5625 Cl  0  0  0  0  0  0  0  0  0  0  0  0
   -1.8071  -12.7698    1.4902 C   0  0  0  0  0  0  0  0  0  0  0  0
   -2.1335  -12.7776    2.7382 C   0  0  0  0  0  0  0  0  0  0  0  0
   -2.6758  -13.9824    3.0980 C   0  0  0  0  0  0  0  0  0  0  0  0
   -2.8859  -14.9906    2.4530 C   0  0  0  0  0  0  0  0  0  0  0  0
  3  7  1  0
  7  8  1  0
  8  9  1  6
  8 10  2  0
  8 11  1  0
  6 12  1  0
  2 13  1  0
 11 14  1  0
 14 15  1  0
 15 16  2  3
 16 17  1  0
  1  2  2  0
  2  3  1  0
  3  4  2  0
  4  5  1  0
  5  6  2  0
  1  6  1  0
M  END

$$$$
No_1488-/export/home/yangzhenyu/potential_scad_32_flow//YTHDC2/2024-12-06-03-22-00/
     RDKit          3D

 20 21  0  0  0  0  0  0  0  0999 V2000
    1.1787   -8.0297    3.5154 C   0  0  0  0  0  0  0  0  0  0  0  0
    1.1048   -9.2215    3.2892 C   0  0  0  0  0  0  0  0  0  0  0  0
    1.2339   -9.7611    2.0189 C   0  0  0  0  0  0  0  0  0  0  0  0
    1.3583   -9.0036    0.9764 C   0  0  0  0  0  0  0  0  0  0  0  0
    1.5996   -7.6362    1.1311 C   0  0  0  0  0  0  0  0  0  0  0  0
    1.4830   -7.0928    2.3626 C   0  0  0  0  0  0  0  0  0  0  0  0
    1.1171  -11.3311    1.8661 C   0  0  0  0  0  0  0  0  0  0  0  0
    0.5022  -11.6388    0.6531 O   0  0  0  0  0  0  0  0  0  0  0  0
    1.7772  -12.0491    2.6098 N   0  0  0  0  0  0  0  0  0  0  0  0
    1.6908  -13.4581    2.5104 C   0  0  0  0  0  0  0  0  0  0  0  0
    1.6739  -14.3743    3.2441 C   0  0  0  0  0  0  0  0  0  0  0  0
    1.5323  -15.7371    2.8868 C   0  0  0  0  0  0  0  0  0  0  0  0
    1.4760  -15.9696    1.5824 C   0  0  0  0  0  0  0  0  0  0  0  0
    1.5882  -15.0257    0.6486 C   0  0  0  0  0  0  0  0  0  0  0  0
    1.7012  -13.7218    1.0228 C   0  0  0  0  0  0  0  0  0  0  0  0
    1.5227   -5.6475    2.6268 O   0  0  0  0  0  0  0  0  0  0  0  0
    1.2873  -17.3080    1.1730 O   0  0  0  0  0  0  0  0  0  0  0  0
    1.5965   -9.3892   -0.3614 C   0  0  0  0  0  0  0  0  0  0  0  0
    2.6195   -9.8747   -0.7762 O   0  0  0  0  0  0  0  0  0  0  0  0
    0.5623   -9.1446   -1.1840 O   0  0  0  0  0  0  0  0  0  0  0  0
  3  7  1  0
  7  8  2  0
  7  9  1  0
  9 10  1  0
  6 16  1  0
 13 17  1  0
  4 18  1  0
 18 19  2  0
 18 20  1  0
  1  2  2  0
  2  3  1  0
  3  4  2  0
  4  5  1  0
  5  6  2  0
  1  6  1  0
 10 11  2  0
 11 12  1  0
 12 13  2  0
 13 14  1  0
 14 15  2  0
 10 15  1  0
M  END

$$$$
No_1489-/export/home/yangzhenyu/potential_scad_32_flow//YTHDC2/2024-12-06-03-22-00/
     RDKit          3D

 20 22  0  0  0  0  0  0  0  0999 V2000
    1.1787   -8.0297    3.5154 C   0  0  0  0  0  0  0  0  0  0  0  0
    1.1048   -9.2215    3.2892 C   0  0  0  0  0  0  0  0  0  0  0  0
    1.3627  -10.1721    4.3044 C   0  0  0  0  0  0  0  0  0  0  0  0
    1.0682  -11.5187    4.0618 C   0  0  0  0  0  0  0  0  0  0  0  0
    0.6332  -11.9655    2.9682 C   0  0  0  0  0  0  0  0  0  0  0  0
    0.4719  -13.4293    2.7591 C   0  0  0  0  0  0  0  0  0  0  0  0
   -0.2373  -13.9045    1.9156 C   0  0  0  0  0  0  0  0  0  0  0  0
   -0.6874  -13.0854    0.9071 C   0  0  0  0  0  0  0  0  0  0  0  0
   -0.6225  -11.7618    0.9866 C   0  0  0  0  0  0  0  0  0  0  0  0
    0.1549  -11.1806    2.0058 C   0  0  0  0  0  0  0  0  0  0  0  0
    0.5344   -9.8626    2.0972 C   0  0  0  0  0  0  0  0  0  0  0  0
    1.0510   -7.0036    2.6715 C   0  0  0  0  0  0  0  0  0  0  0  0
    1.1095   -5.5624    2.9166 C   0  0  0  0  0  0  0  0  0  0  0  0
    0.8170   -4.6329    1.9952 C   0  0  0  0  0  0  0  0  0  0  0  0
    0.2499   -4.9072    0.9299 C   0  0  0  0  0  0  0  0  0  0  0  0
   -0.0155   -6.2934    0.6613 C   0  0  0  0  0  0  0  0  0  0  0  0
    0.3748   -7.2671    1.4305 C   0  0  0  0  0  0  0  0  0  0  0  0
    1.1054   -2.9862    2.3958 Br  0  0  0  0  0  0  0  0  0  0  0  0
    1.1302  -14.4114    3.9067 O   0  0  0  0  0  0  0  0  0  0  0  0
   -1.0193  -10.8885   -0.1297 O   0  0  0  0  0  0  0  0  0  0  0  0
  1  2  1  0
 14 18  1  0
  6 19  1  0
  9 20  1  0
  1 12  1  0
 12 13  2  0
 13 14  1  0
 14 15  2  0
 15 16  1  0
 16 17  2  0
 12 17  1  0
  2  3  2  0
  3  4  1  0
  4  5  2  0
 10 11  2  0
  2 11  1  0
  5  6  1  0
  6  7  2  0
  7  8  1  0
  8  9  2  0
  9 10  1  0
  5 10  1  0
M  END

$$$$
No_1490-/export/home/yangzhenyu/potential_scad_32_flow//YTHDC2/2024-12-06-03-22-00/
     RDKit          3D

 19 20  0  0  1  0  0  0  0  0999 V2000
    1.1787   -8.0297    3.5154 C   0  0  0  0  0  0  0  0  0  0  0  0
    1.0491   -6.8434    2.9820 C   0  0  1  0  0  0  0  0  0  0  0  0
    1.9985   -8.9840    2.8958 C   0  0  0  0  0  0  0  0  0  0  0  0
    1.1815  -10.1889    2.5497 C   0  0  0  0  0  0  0  0  0  0  0  0
    0.9817  -11.1388    2.8134 C   0  0  0  0  0  0  0  0  0  0  0  0
    0.1125  -12.0891    2.4837 C   0  0  0  0  0  0  0  0  0  0  0  0
   -0.6446  -11.8250    1.4596 C   0  0  0  0  0  0  0  0  0  0  0  0
   -0.2941  -10.7598    0.6431 C   0  0  0  0  0  0  0  0  0  0  0  0
    0.5711   -9.8346    1.1239 C   0  0  0  0  0  0  0  0  0  0  0  0
    1.7128   -5.7488    3.1464 C   0  0  0  0  0  0  0  0  0  0  0  0
    0.7166   -8.5839    0.5798 C   0  0  0  0  0  0  0  0  0  0  0  0
    0.3353   -7.2871    1.3170 C   0  0  0  0  0  0  0  0  0  0  0  0
   -0.6426   -6.5684    1.0876 O   0  0  0  0  0  0  0  0  0  0  0  0
   -0.0174  -13.5971    3.2444 N   0  0  0  0  0  0  0  0  0  0  0  0
    1.1402  -14.2762    3.3052 C   0  0  0  0  0  0  0  0  0  0  0  0
    1.2454  -15.3139    2.2474 C   0  0  0  0  0  0  0  0  0  0  0  0
    0.2271  -16.0408    1.9961 C   0  0  0  0  0  0  0  0  0  0  0  0
   -0.3413  -16.8604    2.8839 C   0  0  0  0  0  0  0  0  0  0  0  0
    0.5791  -17.6365    3.6173 C   0  0  0  0  0  0  0  0  0  0  0  0
  1  2  1  0
  1  3  1  0
  3  4  1  0
  2 10  1  6
  9 11  1  0
  2 12  1  0
 11 12  1  0
 12 13  2  0
  6 14  1  0
 14 15  1  0
 15 16  1  0
 16 17  1  0
 17 18  1  0
 18 19  1  0
  4  5  2  0
  5  6  1  0
  6  7  2  0
  7  8  1  0
  8  9  2  0
  4  9  1  0
M  END

$$$$
No_1491-/export/home/yangzhenyu/potential_scad_32_flow//YTHDC2/2024-12-06-03-22-00/
     RDKit          3D

 19 20  0  0  1  0  0  0  0  0999 V2000
    1.1787   -8.0297    3.5154 C   0  0  0  0  0  0  0  0  0  0  0  0
    1.1048   -9.2215    3.2892 C   0  0  0  0  0  0  0  0  0  0  0  0
    1.2339   -9.7611    2.0189 C   0  0  1  0  0  0  0  0  0  0  0  0
    1.1954  -11.2312    1.8661 C   0  0  0  0  0  0  0  0  0  0  0  0
    1.5546  -12.1691    2.7931 C   0  0  0  0  0  0  0  0  0  0  0  0
    0.9527   -7.0669    2.3918 C   0  0  2  0  0  0  0  0  0  0  0  0
    1.0618   -7.6392    1.0692 C   0  0  0  0  0  0  0  0  0  0  0  0
    1.2060   -8.9530    0.8578 C   0  0  0  0  0  0  0  0  0  0  0  0
    1.5159  -13.5011    2.3738 C   0  0  0  0  0  0  0  0  0  0  0  0
    1.1409  -13.8990    1.1908 C   0  0  0  0  0  0  0  0  0  0  0  0
    0.9249  -13.0546    0.2183 C   0  0  0  0  0  0  0  0  0  0  0  0
    0.9227  -11.6707    0.5316 C   0  0  0  0  0  0  0  0  0  0  0  0
    1.0078   -5.6071    2.4628 C   0  0  0  0  0  0  0  0  0  0  0  0
    1.2033   -9.3963   -0.3819 O   0  0  0  0  0  0  0  0  0  0  0  0
    0.3283   -4.9184    1.6281 C   0  0  0  0  0  0  0  0  0  0  0  0
   -0.7616   -5.0916    1.2016 C   0  0  0  0  0  0  0  0  0  0  0  0
   -1.3104   -4.5906    0.0164 C   0  0  0  0  0  0  0  0  0  0  0  0
   -0.6894   -3.5102   -0.5565 C   0  0  0  0  0  0  0  0  0  0  0  0
    0.5097   -3.0238   -0.0192 C   0  0  0  0  0  0  0  0  0  0  0  0
  1  2  1  0
  3  4  1  6
  6  7  1  0
  3  8  1  0
  7  8  1  0
  6 13  1  6
  8 14  2  0
 13 15  1  0
 15 16  1  0
 16 17  2  3
 17 18  1  0
 18 19  2  0
  2  3  1  0
  1  6  1  0
  4  5  2  0
  5  9  1  0
  9 10  2  0
 10 11  1  0
 11 12  2  0
  4 12  1  0
M  END

$$$$
No_1492-/export/home/yangzhenyu/potential_scad_32_flow//YTHDC2/2024-12-06-03-22-00/
     RDKit          3D

 20 21  0  0  1  0  0  0  0  0999 V2000
    1.1787   -8.0297    3.5154 C   0  0  0  0  0  0  0  0  0  0  0  0
    1.1048   -9.2215    3.2892 C   0  0  0  0  0  0  0  0  0  0  0  0
    1.2339   -9.7611    2.0189 C   0  0  0  0  0  0  0  0  0  0  0  0
    1.3583   -9.0036    0.9764 C   0  0  0  0  0  0  0  0  0  0  0  0
    1.5996   -7.6362    1.1311 C   0  0  0  0  0  0  0  0  0  0  0  0
    1.4830   -7.0928    2.3626 C   0  0  0  0  0  0  0  0  0  0  0  0
    1.1008  -11.2372    1.8542 C   0  0  2  0  0  0  0  0  0  0  0  0
    1.9749  -12.0938    2.2342 C   0  0  0  0  0  0  0  0  0  0  0  0
    1.7533  -13.4231    1.8956 C   0  0  1  0  0  0  0  0  0  0  0  0
    0.8624  -13.8318    1.1071 C   0  0  0  0  0  0  0  0  0  0  0  0
   -0.0624  -12.9093    0.5581 C   0  0  0  0  0  0  0  0  0  0  0  0
    0.1157  -11.5285    0.9404 C   0  0  0  0  0  0  0  0  0  0  0  0
    1.5561   -5.6354    2.6426 Cl  0  0  0  0  0  0  0  0  0  0  0  0
   -0.8099  -10.6546    0.4318 O   0  0  0  0  0  0  0  0  0  0  0  0
    2.9175  -14.5481    2.5273 Cl  0  0  0  0  0  0  0  0  0  0  0  0
    1.5859   -9.4160   -0.3593 O   0  0  0  0  0  0  0  0  0  0  0  0
    0.8515  -10.2729    4.5918 C   0  0  0  0  0  0  0  0  0  0  0  0
   -0.4568  -10.9167    4.2651 C   0  0  0  0  0  0  0  0  0  0  0  0
   -1.5573   -9.9614    4.5816 C   0  0  0  0  0  0  0  0  0  0  0  0
   -2.8539  -10.3781    4.3434 C   0  0  0  0  0  0  0  0  0  0  0  0
  7  3  1  6
  7  8  1  0
  9 10  1  0
  7 12  1  0
 11 12  1  0
  6 13  1  0
 12 14  2  0
  9 15  1  6
  4 16  1  0
  2 17  1  0
 17 18  1  0
 18 19  1  0
 19 20  2  0
  8  9  1  0
 10 11  1  0
  1  2  2  0
  2  3  1  0
  3  4  2  0
  4  5  1  0
  5  6  2  0
  1  6  1  0
M  END

$$$$
No_1493-/export/home/yangzhenyu/potential_scad_32_flow//YTHDC2/2024-12-06-03-22-00/
     RDKit          3D

 19 19  0  0  0  0  0  0  0  0999 V2000
    1.1787   -8.0297    3.5154 C   0  0  0  0  0  0  0  0  0  0  0  0
    1.1048   -9.2215    3.2892 C   0  0  0  0  0  0  0  0  0  0  0  0
    1.2339   -9.7611    2.0189 C   0  0  0  0  0  0  0  0  0  0  0  0
    1.4306   -8.9466    1.1170 C   0  0  0  0  0  0  0  0  0  0  0  0
    1.6532   -7.5949    1.1786 C   0  0  0  0  0  0  0  0  0  0  0  0
    1.4973   -7.0739    2.4258 C   0  0  0  0  0  0  0  0  0  0  0  0
    1.6687   -9.4437   -0.3021 C   0  0  0  0  0  0  0  0  0  0  0  0
    1.1891  -10.5277   -0.5331 O   0  0  0  0  0  0  0  0  0  0  0  0
    2.5088   -8.8776   -1.1484 O   0  0  0  0  0  0  0  0  0  0  0  0
    0.8784  -10.2039    4.3748 Br  0  0  0  0  0  0  0  0  0  0  0  0
    1.5807   -5.3309    2.8144 C   0  0  0  0  0  0  0  0  0  0  0  0
    1.5797   -5.0893    3.9829 O   0  0  0  0  0  0  0  0  0  0  0  0
    1.0578   -4.7500    1.7882 O   0  0  0  0  0  0  0  0  0  0  0  0
    1.2424  -11.1253    1.8877 O   0  0  0  0  0  0  0  0  0  0  0  0
    1.9402  -12.1695    2.0736 C   0  0  0  0  0  0  0  0  0  0  0  0
    1.7167  -13.2934    1.3378 C   0  0  0  0  0  0  0  0  0  0  0  0
    2.3810  -14.4344    1.6987 C   0  0  0  0  0  0  0  0  0  0  0  0
    1.7005  -15.6160    1.8870 C   0  0  0  0  0  0  0  0  0  0  0  0
    2.4669  -16.8130    2.2554 C   0  0  0  0  0  0  0  0  0  0  0  0
  4  7  1  0
  7  8  2  0
  7  9  1  0
  2 10  1  0
  6 11  1  0
 11 12  1  0
 11 13  2  0
  3 14  1  0
 14 15  1  0
 15 16  1  0
 16 17  1  0
 17 18  1  0
 18 19  1  0
  1  2  2  0
  2  3  1  0
  3  4  2  0
  4  5  1  0
  5  6  2  0
  1  6  1  0
M  END

$$$$
No_1494-/export/home/yangzhenyu/potential_scad_32_flow//YTHDC2/2024-12-06-03-22-00/
     RDKit          3D

 19 20  0  0  1  0  0  0  0  0999 V2000
    1.1787   -8.0297    3.5154 C   0  0  0  0  0  0  0  0  0  0  0  0
    1.1048   -9.2215    3.2892 C   0  0  0  0  0  0  0  0  0  0  0  0
    1.2339   -9.7611    2.0189 C   0  0  0  0  0  0  0  0  0  0  0  0
    1.3583   -9.0036    0.9764 C   0  0  0  0  0  0  0  0  0  0  0  0
    1.5996   -7.6362    1.1311 C   0  0  0  0  0  0  0  0  0  0  0  0
    1.4830   -7.0928    2.3626 C   0  0  0  0  0  0  0  0  0  0  0  0
    1.5395   -5.7300    2.6182 C   0  0  0  0  0  0  0  0  0  0  0  0
    1.1775  -11.2233    1.8407 C   0  0  0  0  0  0  0  0  0  0  0  0
    0.7252  -11.5870    0.5412 C   0  0  0  0  0  0  0  0  0  0  0  0
   -0.5181  -12.2492    0.6137 C   0  0  0  0  0  0  0  0  0  0  0  0
   -0.5371  -13.4409    1.3121 C   0  0  2  0  0  0  0  0  0  0  0  0
   -1.7949  -13.9352    1.6682 C   0  0  0  0  0  0  0  0  0  0  0  0
   -2.9292  -13.3715    1.2044 C   0  0  0  0  0  0  0  0  0  0  0  0
   -2.8726  -12.2168    0.4093 C   0  0  0  0  0  0  0  0  0  0  0  0
   -1.6158  -11.6724    0.0574 C   0  0  0  0  0  0  0  0  0  0  0  0
   -1.4891  -10.5997   -0.8302 O   0  0  0  0  0  0  0  0  0  0  0  0
    1.3051   -4.8111    1.6772 C   0  0  0  0  0  0  0  0  0  0  0  0
    1.2388   -3.3743    1.9032 C   0  0  0  0  0  0  0  0  0  0  0  0
    0.6037  -14.0767    1.8805 C   0  0  0  0  0  0  0  0  0  0  0  0
  6  7  1  0
  3  8  1  0
  8  9  1  0
  9 10  1  0
 10 11  1  0
 12 13  1  0
 10 15  1  0
 14 15  1  0
 15 16  2  0
  7 17  2  3
 17 18  1  0
 11 19  1  1
 11 12  1  0
 13 14  1  0
  1  2  2  0
  2  3  1  0
  3  4  2  0
  4  5  1  0
  5  6  2  0
  1  6  1  0
M  END

$$$$
No_1495-/export/home/yangzhenyu/potential_scad_32_flow//YTHDC2/2024-12-06-03-22-00/
     RDKit          3D

 20 22  0  0  0  0  0  0  0  0999 V2000
    1.1787   -8.0297    3.5154 C   0  0  0  0  0  0  0  0  0  0  0  0
    1.1048   -9.2215    3.2892 C   0  0  0  0  0  0  0  0  0  0  0  0
    1.3627  -10.1721    4.3044 C   0  0  0  0  0  0  0  0  0  0  0  0
    1.0682  -11.5187    4.0618 C   0  0  0  0  0  0  0  0  0  0  0  0
    0.6332  -11.9655    2.9682 C   0  0  0  0  0  0  0  0  0  0  0  0
    0.4776  -11.1308    1.9203 C   0  0  0  0  0  0  0  0  0  0  0  0
    0.7470   -9.8274    2.0368 C   0  0  0  0  0  0  0  0  0  0  0  0
    1.0387   -7.0301    2.5175 N   0  0  0  0  0  0  0  0  0  0  0  0
    0.9298   -7.5514    1.2672 C   0  0  0  0  0  0  0  0  0  0  0  0
    0.7824   -8.7713    0.9713 C   0  0  0  0  0  0  0  0  0  0  0  0
    0.6486   -9.2285   -0.2792 C   0  0  0  0  0  0  0  0  0  0  0  0
    0.0394   -8.6364   -1.0803 C   0  0  0  0  0  0  0  0  0  0  0  0
    0.5018  -13.3803    2.6608 O   0  0  0  0  0  0  0  0  0  0  0  0
    1.3318  -14.0904    1.7907 C   0  0  0  0  0  0  0  0  0  0  0  0
   -0.7736   -7.4653   -0.7778 C   0  0  0  0  0  0  0  0  0  0  0  0
   -0.1400   -6.8789    0.5408 C   0  0  0  0  0  0  0  0  0  0  0  0
   -1.2449   -6.5252   -1.6879 O   0  0  0  0  0  0  0  0  0  0  0  0
    1.8691  -13.3566    1.1039 C   0  0  0  0  0  0  0  0  0  0  0  0
    1.3849  -15.4328    1.9710 C   0  0  0  0  0  0  0  0  0  0  0  0
    2.2495  -16.1147    1.1579 C   0  0  0  0  0  0  0  0  0  0  0  0
 10 11  1  0
  5 13  1  0
 13 14  1  0
 12 15  1  0
  9 16  1  0
 15 16  1  0
 15 17  2  0
 14 18  2  0
 14 19  1  0
 19 20  2  0
 11 12  1  0
  2  3  1  0
  3  4  2  0
  4  5  1  0
  5  6  2  0
  6  7  1  0
  1  2  2  0
  2  7  1  0
  7 10  2  0
  9 10  1  0
  8  9  2  0
  1  8  1  0
M  END

$$$$
No_1496-/export/home/yangzhenyu/potential_scad_32_flow//YTHDC2/2024-12-06-03-22-00/
     RDKit          3D

 17 18  0  0  0  0  0  0  0  0999 V2000
    1.1787   -8.0297    3.5154 C   0  0  0  0  0  0  0  0  0  0  0  0
    1.0491   -6.8434    2.9820 C   0  0  0  0  0  0  0  0  0  0  0  0
    0.9905   -9.0774    2.6527 C   0  0  0  0  0  0  0  0  0  0  0  0
    0.7897   -8.9519    1.3691 C   0  0  0  0  0  0  0  0  0  0  0  0
    0.7018   -7.7198    0.7892 C   0  0  0  0  0  0  0  0  0  0  0  0
    0.8918   -6.5957    1.6117 C   0  0  0  0  0  0  0  0  0  0  0  0
    1.0711  -10.4814    3.2282 C   0  0  0  0  0  0  0  0  0  0  0  0
    1.1227  -11.5770    2.4616 C   0  0  0  0  0  0  0  0  0  0  0  0
    1.1500  -12.9052    3.0782 C   0  0  0  0  0  0  0  0  0  0  0  0
    0.6702  -13.9897    2.4998 C   0  0  0  0  0  0  0  0  0  0  0  0
    0.1753  -14.0336    1.3348 C   0  0  0  0  0  0  0  0  0  0  0  0
    0.1148  -12.7693    0.6341 C   0  0  0  0  0  0  0  0  0  0  0  0
    0.5660  -11.6229    1.1724 C   0  0  0  0  0  0  0  0  0  0  0  0
    0.8451   -5.2795    1.1559 O   0  0  0  0  0  0  0  0  0  0  0  0
    0.7656  -15.4145    3.3987 O   0  0  0  0  0  0  0  0  0  0  0  0
    0.8690  -16.5447    2.6950 C   0  0  0  0  0  0  0  0  0  0  0  0
    0.3904   -4.2018    1.8239 C   0  0  0  0  0  0  0  0  0  0  0  0
  3  7  1  0
  6 14  1  0
 10 15  1  0
 15 16  1  0
 14 17  1  0
  7  8  1  0
  1  2  2  0
  2  6  1  0
  5  6  2  0
  4  5  1  0
  3  4  2  0
  1  3  1  0
  8  9  2  0
  9 10  1  0
 10 11  2  0
 11 12  1  0
 12 13  2  0
  8 13  1  0
M  END

$$$$
No_1497-/export/home/yangzhenyu/potential_scad_32_flow//YTHDC2/2024-12-06-03-22-00/
     RDKit          3D

 19 20  0  0  1  0  0  0  0  0999 V2000
    1.1787   -8.0297    3.5154 C   0  0  0  0  0  0  0  0  0  0  0  0
    1.0491   -6.8434    2.9820 C   0  0  0  0  0  0  0  0  0  0  0  0
    0.9905   -9.0774    2.6527 C   0  0  0  0  0  0  0  0  0  0  0  0
    0.7897   -8.9519    1.3691 C   0  0  0  0  0  0  0  0  0  0  0  0
    0.7018   -7.7198    0.7892 C   0  0  0  0  0  0  0  0  0  0  0  0
    0.8918   -6.5957    1.6117 C   0  0  0  0  0  0  0  0  0  0  0  0
    1.0711  -10.4814    3.2282 C   0  0  2  0  0  0  0  0  0  0  0  0
   -0.1055  -11.1328    3.5223 C   0  0  0  0  0  0  0  0  0  0  0  0
   -0.7419  -11.5628    2.6150 C   0  0  0  0  0  0  0  0  0  0  0  0
   -2.0657  -11.3665    2.4148 C   0  0  0  0  0  0  0  0  0  0  0  0
   -2.5653  -10.0947    2.7942 C   0  0  0  0  0  0  0  0  0  0  0  0
   -3.7978   -9.6837    2.6213 C   0  0  0  0  0  0  0  0  0  0  0  0
   -4.6657  -10.3659    2.0453 C   0  0  0  0  0  0  0  0  0  0  0  0
   -4.2495  -11.6298    1.5889 C   0  0  0  0  0  0  0  0  0  0  0  0
   -2.9717  -12.0983    1.8081 C   0  0  0  0  0  0  0  0  0  0  0  0
    2.3658  -10.8572    3.5248 C   0  0  0  0  0  0  0  0  0  0  0  0
    2.5023  -12.0367    4.2992 N   0  0  0  0  0  0  0  0  0  0  0  0
    0.8803   -5.0817    1.0555 O   0  0  0  0  0  0  0  0  0  0  0  0
    1.6808  -12.5434    4.5968 H   0  0  0  0  0  0  0  0  0  0  0  0
  3  7  1  0
  7  8  1  1
  8  9  1  0
  7 16  1  0
 16 17  2  0
  6 18  1  0
  9 10  1  0
  1  2  2  0
  2  6  1  0
  5  6  2  0
  4  5  1  0
  3  4  2  0
  1  3  1  0
 10 11  2  0
 11 12  1  0
 12 13  2  0
 13 14  1  0
 14 15  2  0
 10 15  1  0
 17 19  1  0
M  END

$$$$
No_1498-/export/home/yangzhenyu/potential_scad_32_flow//YTHDC2/2024-12-06-03-22-00/
     RDKit          3D

 20 22  0  0  0  0  0  0  0  0999 V2000
    1.1787   -8.0297    3.5154 N   0  0  0  0  0  0  0  0  0  0  0  0
    1.0818   -9.0751    3.2053 C   0  0  0  0  0  0  0  0  0  0  0  0
    1.5216  -10.1164    3.9747 C   0  0  0  0  0  0  0  0  0  0  0  0
    1.4420  -11.4363    3.6461 C   0  0  0  0  0  0  0  0  0  0  0  0
    0.5969  -11.7648    2.6785 C   0  0  0  0  0  0  0  0  0  0  0  0
    0.0096  -10.8332    1.9506 C   0  0  0  0  0  0  0  0  0  0  0  0
    0.3359   -9.5186    2.1388 C   0  0  0  0  0  0  0  0  0  0  0  0
    0.8819   -6.9011    2.6487 C   0  0  0  0  0  0  0  0  0  0  0  0
    0.4076   -7.2265    1.4607 C   0  0  0  0  0  0  0  0  0  0  0  0
    0.0604   -8.4780    1.1746 C   0  0  0  0  0  0  0  0  0  0  0  0
   -0.5471   -8.7214    0.0063 N   0  0  0  0  0  0  0  0  0  0  0  0
    1.3606   -5.5213    3.0758 Cl  0  0  0  0  0  0  0  0  0  0  0  0
    0.3461  -13.3942    2.3923 C   0  0  0  0  0  0  0  0  0  0  0  0
   -0.8461  -13.7472    2.2147 C   0  0  0  0  0  0  0  0  0  0  0  0
    1.4763  -14.2129    2.3241 C   0  0  0  0  0  0  0  0  0  0  0  0
    1.2968  -15.5203    2.6362 C   0  0  0  0  0  0  0  0  0  0  0  0
    0.1121  -16.0154    2.8837 C   0  0  0  0  0  0  0  0  0  0  0  0
   -0.9733  -15.1765    2.7126 C   0  0  0  0  0  0  0  0  0  0  0  0
   -0.1065  -17.3274    3.2362 C   0  0  0  0  0  0  0  0  0  0  0  0
   -1.1852  -17.7463    3.7780 C   0  0  0  0  0  0  0  0  0  0  0  0
  8 12  1  0
  5 13  1  0
 17 19  1  0
 19 20  2  0
 10 11  1  0
  2  3  1  0
  3  4  2  0
  4  5  1  0
  5  6  2  0
  6  7  1  0
 13 14  2  0
 14 18  1  0
 17 18  2  0
 16 17  1  0
 15 16  2  0
 13 15  1  0
  1  2  2  0
  2  7  1  0
  7 10  2  0
  9 10  1  0
  8  9  2  0
  1  8  1  0
M  END

$$$$
No_1499-/export/home/yangzhenyu/potential_scad_32_flow//YTHDC2/2024-12-06-03-22-00/
     RDKit          3D

 18 21  0  0  1  0  0  0  0  0999 V2000
    1.1787   -8.0297    3.5154 N   0  0  0  0  0  0  0  0  0  0  0  0
    0.8669   -7.0905    2.8589 C   0  0  0  0  0  0  0  0  0  0  0  0
    0.8842   -5.8387    3.2677 N   0  0  0  0  0  0  0  0  0  0  0  0
    1.2385   -9.3073    2.9821 C   0  0  0  0  0  0  0  0  0  0  0  0
    0.9932   -9.3436    1.6647 C   0  0  0  0  0  0  0  0  0  0  0  0
    0.4858   -8.3517    0.9246 C   0  0  0  0  0  0  0  0  0  0  0  0
    0.5276   -7.0969    1.4757 C   0  0  0  0  0  0  0  0  0  0  0  0
    1.6471  -10.4158    3.7300 C   0  0  0  0  0  0  0  0  0  0  0  0
    0.9081  -11.5770    3.7676 C   0  0  0  0  0  0  0  0  0  0  0  0
    0.9309  -12.3360    2.7312 C   0  0  1  0  0  0  0  0  0  0  0  0
    0.9040  -13.7235    2.8853 C   0  0  0  0  0  0  0  0  0  0  0  0
    1.0437  -14.5574    1.7102 C   0  0  0  0  0  0  0  0  0  0  0  0
    1.0325  -13.8016    0.5792 C   0  0  0  0  0  0  0  0  0  0  0  0
    0.9606  -12.3749    0.6945 C   0  0  0  0  0  0  0  0  0  0  0  0
    0.8596  -11.6187    1.6582 C   0  0  2  0  0  0  0  0  0  0  0  0
    0.2740   -5.9483    0.9632 N   0  0  0  0  0  0  0  0  0  0  0  0
    0.4656   -5.0429    2.1294 C   0  0  0  0  0  0  0  0  0  0  0  0
    0.8535  -10.6168    0.9679 N   0  0  0  0  0  0  0  0  0  0  0  0
  4  8  1  0
  8  9  1  0
 10  9  1  1
 10 11  1  0
 11 12  1  0
 12 13  1  0
 13 14  1  0
 10 15  1  0
 15 14  1  6
  7 16  1  0
  3 17  1  0
 16 17  2  0
  5 18  1  0
 15 18  1  0
  2  3  1  0
  1  2  2  0
  2  7  1  0
  6  7  2  0
  5  6  1  0
  4  5  2  0
  1  4  1  0
M  END

$$$$
No_1500-/export/home/yangzhenyu/potential_scad_32_flow//YTHDC2/2024-12-06-03-22-00/
     RDKit          3D

 20 21  0  0  1  0  0  0  0  0999 V2000
    1.1787   -8.0297    3.5154 F   0  0  0  0  0  0  0  0  0  0  0  0
    0.5277   -7.9922    2.7193 C   0  0  1  0  0  0  0  0  0  0  0  0
    0.3243   -6.6787    2.2086 C   0  0  0  0  0  0  0  0  0  0  0  0
    1.3682   -5.7831    2.1041 C   0  0  0  0  0  0  0  0  0  0  0  0
    1.1294   -8.7092    1.5246 C   0  0  0  0  0  0  0  0  0  0  0  0
    1.5386   -9.9899    1.7327 C   0  0  0  0  0  0  0  0  0  0  0  0
    1.9158  -10.5065    2.8602 C   0  0  0  0  0  0  0  0  0  0  0  0
    1.7352  -10.7339    0.5957 C   0  0  0  0  0  0  0  0  0  0  0  0
    1.7489  -11.8511    3.0844 C   0  0  0  0  0  0  0  0  0  0  0  0
    1.6221  -12.2042    0.7818 C   0  0  0  0  0  0  0  0  0  0  0  0
    1.7223  -12.7888    2.0614 C   0  0  0  0  0  0  0  0  0  0  0  0
    1.8963  -14.1274    2.3437 C   0  0  0  0  0  0  0  0  0  0  0  0
    0.9078  -14.9626    1.9086 N   0  0  0  0  0  0  0  0  0  0  0  0
    0.5183  -15.5907    2.7480 C   0  0  0  0  0  0  0  0  0  0  0  0
   -0.7833  -16.0957    2.7965 C   0  0  0  0  0  0  0  0  0  0  0  0
   -1.7160  -15.3856    2.1765 C   0  0  0  0  0  0  0  0  0  0  0  0
   -3.1011  -15.7709    2.2324 C   0  0  0  0  0  0  0  0  0  0  0  0
   -3.4331  -16.7906    3.0751 C   0  0  0  0  0  0  0  0  0  0  0  0
   -2.4608  -17.5192    3.7589 C   0  0  0  0  0  0  0  0  0  0  0  0
   -1.0850  -17.1430    3.6704 C   0  0  0  0  0  0  0  0  0  0  0  0
  2  1  1  1
  2  3  1  0
  3  4  1  0
  2  5  1  0
  5  6  1  0
 11 12  1  0
 12 13  1  0
 13 14  1  0
 14 15  1  0
  6  7  2  0
  7  9  1  0
  9 11  2  0
 10 11  1  0
  8 10  2  0
  6  8  1  0
 15 16  2  0
 16 17  1  0
 17 18  2  0
 18 19  1  0
 19 20  2  0
 15 20  1  0
M  END

$$$$
No_1501-/export/home/yangzhenyu/potential_scad_32_flow//YTHDC2/2024-12-06-03-22-00/
     RDKit          3D

 18 19  0  0  0  0  0  0  0  0999 V2000
    1.1787   -8.0297    3.5154 C   0  0  0  0  0  0  0  0  0  0  0  0
    1.1048   -9.2215    3.2892 C   0  0  0  0  0  0  0  0  0  0  0  0
    1.2339   -9.7611    2.0189 C   0  0  0  0  0  0  0  0  0  0  0  0
    1.3583   -9.0036    0.9764 C   0  0  0  0  0  0  0  0  0  0  0  0
    1.5996   -7.6362    1.1311 C   0  0  0  0  0  0  0  0  0  0  0  0
    1.4830   -7.0928    2.3626 C   0  0  0  0  0  0  0  0  0  0  0  0
    1.1008  -11.2372    1.8542 C   0  0  0  0  0  0  0  0  0  0  0  0
    1.9749  -12.0938    2.2342 C   0  0  0  0  0  0  0  0  0  0  0  0
    1.7533  -13.4231    1.8956 C   0  0  0  0  0  0  0  0  0  0  0  0
    0.8624  -13.8318    1.1071 C   0  0  0  0  0  0  0  0  0  0  0  0
   -0.0624  -12.9093    0.5581 C   0  0  0  0  0  0  0  0  0  0  0  0
    0.1157  -11.5285    0.9404 C   0  0  0  0  0  0  0  0  0  0  0  0
    1.5561   -5.6354    2.6426 Cl  0  0  0  0  0  0  0  0  0  0  0  0
   -0.8311  -10.6449    0.4827 C   0  0  0  0  0  0  0  0  0  0  0  0
   -1.9296  -10.3450    1.3179 C   0  0  0  0  0  0  0  0  0  0  0  0
   -2.7609   -9.2550    1.0378 C   0  0  0  0  0  0  0  0  0  0  0  0
   -2.6661   -8.6238   -0.1287 C   0  0  0  0  0  0  0  0  0  0  0  0
   -1.6606   -8.9108   -1.0562 C   0  0  0  0  0  0  0  0  0  0  0  0
  3  7  1  0
  6 13  1  0
 12 14  1  0
 14 15  1  0
 15 16  2  3
 16 17  1  0
 17 18  2  0
  1  2  2  0
  2  3  1  0
  3  4  2  0
  4  5  1  0
  5  6  2  0
  1  6  1  0
  7  8  2  0
  8  9  1  0
  9 10  2  0
 10 11  1  0
 11 12  2  0
  7 12  1  0
M  END

$$$$
No_1502-/export/home/yangzhenyu/potential_scad_32_flow//YTHDC2/2024-12-06-03-22-00/
     RDKit          3D

 19 21  0  0  1  0  0  0  0  0999 V2000
    1.1787   -8.0297    3.5154 C   0  0  0  0  0  0  0  0  0  0  0  0
    1.1048   -9.2215    3.2892 C   0  0  0  0  0  0  0  0  0  0  0  0
    1.2339   -9.7611    2.0189 C   0  0  0  0  0  0  0  0  0  0  0  0
    1.3583   -9.0036    0.9764 C   0  0  0  0  0  0  0  0  0  0  0  0
    1.5996   -7.6362    1.1311 C   0  0  0  0  0  0  0  0  0  0  0  0
    1.4830   -7.0928    2.3626 C   0  0  0  0  0  0  0  0  0  0  0  0
    1.1008  -11.2372    1.8542 C   0  0  2  0  0  0  0  0  0  0  0  0
    0.4812  -11.6084    0.6459 N   0  0  0  0  0  0  0  0  0  0  0  0
    1.3209  -12.1250    2.7456 N   0  0  0  0  0  0  0  0  0  0  0  0
    1.2204  -13.4268    2.4380 C   0  0  2  0  0  0  0  0  0  0  0  0
    0.5297  -13.5018    1.2820 N   0  0  0  0  0  0  0  0  0  0  0  0
    0.3453  -12.7882    0.3660 C   0  0  0  0  0  0  0  0  0  0  0  0
    1.4913  -14.3572    3.3991 C   0  0  0  0  0  0  0  0  0  0  0  0
    1.5822   -5.4494    2.7072 Cl  0  0  0  0  0  0  0  0  0  0  0  0
    1.0428  -15.7370    2.9347 C   0  0  1  0  0  0  0  0  0  0  0  0
    0.5186  -15.9503    1.7723 C   0  0  0  0  0  0  0  0  0  0  0  0
    0.3004  -14.9397    0.9407 C   0  0  0  0  0  0  0  0  0  0  0  0
    1.4050  -16.9500    4.0808 S   0  0  0  0  0  0  0  0  0  0  0  0
    2.6048  -17.6129    3.5993 O   0  0  0  0  0  0  0  0  0  0  0  0
  7  3  1  1
  7  9  1  0
 10 11  1  0
  8 12  1  0
 11 12  1  0
 10 13  1  1
  6 14  1  0
 15 16  1  0
 11 17  1  0
 15 18  1  6
 18 19  2  0
  9 10  1  0
  7  8  1  0
 13 15  1  0
 16 17  1  0
  1  2  2  0
  2  3  1  0
  3  4  2  0
  4  5  1  0
  5  6  2  0
  1  6  1  0
M  END

$$$$
No_1503-/export/home/yangzhenyu/potential_scad_32_flow//YTHDC2/2024-12-06-03-22-00/
     RDKit          3D

 18 18  0  0  1  0  0  0  0  0999 V2000
    1.1787   -8.0297    3.5154 C   0  0  0  0  0  0  0  0  0  0  0  0
    1.0491   -6.8434    2.9820 C   0  0  0  0  0  0  0  0  0  0  0  0
    0.9905   -9.0774    2.6527 C   0  0  0  0  0  0  0  0  0  0  0  0
    0.7897   -8.9519    1.3691 C   0  0  0  0  0  0  0  0  0  0  0  0
    0.7018   -7.7198    0.7892 C   0  0  0  0  0  0  0  0  0  0  0  0
    0.8918   -6.5957    1.6117 C   0  0  0  0  0  0  0  0  0  0  0  0
    1.0998  -10.4710    3.2437 C   0  0  0  0  0  0  0  0  0  0  0  0
    1.3102  -11.5554    2.5214 C   0  0  0  0  0  0  0  0  0  0  0  0
    1.4257  -12.8124    3.1919 C   0  0  0  0  0  0  0  0  0  0  0  0
    1.4301  -14.0627    2.4374 C   0  0  1  0  0  0  0  0  0  0  0  0
    0.8799   -5.2656    1.2046 O   0  0  0  0  0  0  0  0  0  0  0  0
    2.4181  -14.2077    1.4795 C   0  0  0  0  0  0  0  0  0  0  0  0
    0.6630  -15.1041    2.7897 C   0  0  0  0  0  0  0  0  0  0  0  0
    0.5739  -16.0513    1.9562 C   0  0  2  0  0  0  0  0  0  0  0  0
    1.2864  -17.1601    2.1586 O   0  0  0  0  0  0  0  0  0  0  0  0
   -0.0967  -16.0106    0.8264 C   0  0  0  0  0  0  0  0  0  0  0  0
    0.1082  -16.9967   -0.1947 C   0  0  0  0  0  0  0  0  0  0  0  0
   -0.7421  -16.9449   -1.1464 C   0  0  0  0  0  0  0  0  0  0  0  0
  1  2  1  0
  3  4  1  0
  2  6  1  0
  5  6  1  0
  3  7  1  0
  7  8  2  3
  8  9  1  0
  9 10  1  0
  6 11  2  0
 10 12  1  1
 10 13  1  0
 13 14  1  0
 14 15  1  6
 14 16  1  0
 16 17  1  0
 17 18  2  0
  1  3  1  0
  4  5  1  0
M  END

$$$$
No_1504-/export/home/yangzhenyu/potential_scad_32_flow//YTHDC2/2024-12-06-03-22-00/
     RDKit          3D

 19 20  0  0  0  0  0  0  0  0999 V2000
    1.1787   -8.0297    3.5154 C   0  0  0  0  0  0  0  0  0  0  0  0
    1.1048   -9.2215    3.2892 C   0  0  0  0  0  0  0  0  0  0  0  0
    1.3627  -10.1721    4.3044 C   0  0  0  0  0  0  0  0  0  0  0  0
    1.0682  -11.5187    4.0618 C   0  0  0  0  0  0  0  0  0  0  0  0
    0.7653  -11.7320    2.7387 C   0  0  0  0  0  0  0  0  0  0  0  0
    0.5661  -10.9730    1.8367 C   0  0  0  0  0  0  0  0  0  0  0  0
    0.7745   -9.6758    2.0361 C   0  0  0  0  0  0  0  0  0  0  0  0
    0.4411   -6.9477    3.0544 C   0  0  0  0  0  0  0  0  0  0  0  0
    0.8374   -5.4840    3.2118 C   0  0  0  0  0  0  0  0  0  0  0  0
    0.2921   -4.5290    2.4708 C   0  0  0  0  0  0  0  0  0  0  0  0
   -0.7446   -4.9477    1.6570 C   0  0  0  0  0  0  0  0  0  0  0  0
   -1.0767   -6.1551    1.3275 C   0  0  0  0  0  0  0  0  0  0  0  0
   -0.4434   -7.2143    1.9819 C   0  0  0  0  0  0  0  0  0  0  0  0
    0.5231  -13.2367    2.4413 C   0  0  0  0  0  0  0  0  0  0  0  0
    0.9530  -13.8632    1.7597 C   0  0  0  0  0  0  0  0  0  0  0  0
    2.1650  -13.3076    0.7985 C   0  0  0  0  0  0  0  0  0  0  0  0
    1.0424  -15.3273    1.5186 C   0  0  0  0  0  0  0  0  0  0  0  0
    1.8516  -16.0779    2.3341 C   0  0  0  0  0  0  0  0  0  0  0  0
    1.7797  -17.3423    2.5653 C   0  0  0  0  0  0  0  0  0  0  0  0
  1  2  1  0
  5 14  1  0
 14 15  2  3
 15 16  1  0
 15 17  1  0
 17 18  1  0
 18 19  2  0
  1  8  1  0
  2  3  2  0
  3  4  1  0
  4  5  2  0
  5  6  1  0
  6  7  2  0
  2  7  1  0
  8  9  2  0
  9 10  1  0
 10 11  2  0
 11 12  1  0
 12 13  2  0
  8 13  1  0
M  END

$$$$
No_1505-/export/home/yangzhenyu/potential_scad_32_flow//YTHDC2/2024-12-06-03-22-00/
     RDKit          3D

 18 19  0  0  0  0  0  0  0  0999 V2000
    1.1787   -8.0297    3.5154 C   0  0  0  0  0  0  0  0  0  0  0  0
    1.1048   -9.2215    3.2892 C   0  0  0  0  0  0  0  0  0  0  0  0
    1.3627  -10.1721    4.3044 C   0  0  0  0  0  0  0  0  0  0  0  0
    2.3720  -10.8948    4.2468 C   0  0  0  0  0  0  0  0  0  0  0  0
    0.8234   -7.0464    2.5717 C   0  0  0  0  0  0  0  0  0  0  0  0
    0.4328   -7.4736    1.3042 C   0  0  0  0  0  0  0  0  0  0  0  0
    0.3532   -8.7488    0.9919 C   0  0  0  0  0  0  0  0  0  0  0  0
    0.7039   -9.7094    1.9672 C   0  0  0  0  0  0  0  0  0  0  0  0
    0.4096  -10.9489    1.8134 C   0  0  0  0  0  0  0  0  0  0  0  0
    0.0431  -11.4812    0.9036 C   0  0  0  0  0  0  0  0  0  0  0  0
   -0.1875  -12.8775    0.6326 C   0  0  0  0  0  0  0  0  0  0  0  0
   -0.7829  -13.2823   -0.3525 C   0  0  0  0  0  0  0  0  0  0  0  0
   -1.1277  -12.4950   -1.4827 C   0  0  0  0  0  0  0  0  0  0  0  0
   -1.7077  -13.1268   -2.6503 C   0  0  0  0  0  0  0  0  0  0  0  0
   -1.9394  -12.4275   -3.7630 C   0  0  0  0  0  0  0  0  0  0  0  0
   -1.9357  -11.0299   -3.7209 C   0  0  0  0  0  0  0  0  0  0  0  0
   -1.5391  -10.3395   -2.6364 C   0  0  0  0  0  0  0  0  0  0  0  0
   -1.2659  -11.0962   -1.4410 C   0  0  0  0  0  0  0  0  0  0  0  0
  2  3  1  0
  3  4  1  0
  8  9  1  0
  9 10  2  3
 10 11  1  0
 11 12  2  3
 12 13  1  0
 13 14  2  0
 14 15  1  0
 15 16  2  0
 16 17  1  0
 17 18  2  0
 13 18  1  0
  1  2  2  0
  2  8  1  0
  7  8  2  0
  6  7  1  0
  5  6  2  0
  1  5  1  0
M  END

$$$$
No_1506-/export/home/yangzhenyu/potential_scad_32_flow//YTHDC2/2024-12-06-03-22-00/
     RDKit          3D

 17 18  0  0  1  0  0  0  0  0999 V2000
    1.1787   -8.0297    3.5154 C   0  0  0  0  0  0  0  0  0  0  0  0
    1.0491   -6.8434    2.9820 C   0  0  0  0  0  0  0  0  0  0  0  0
    0.0950   -8.8404    3.2292 C   0  0  0  0  0  0  0  0  0  0  0  0
   -0.9173   -8.4596    2.5152 C   0  0  0  0  0  0  0  0  0  0  0  0
   -1.0331   -7.2162    2.0653 C   0  0  0  0  0  0  0  0  0  0  0  0
   -0.0105   -6.3168    2.3081 C   0  0  0  0  0  0  0  0  0  0  0  0
    0.1465  -10.2446    3.6981 C   0  0  0  0  0  0  0  0  0  0  0  0
    1.2433  -10.8239    4.0166 Cl  0  0  0  0  0  0  0  0  0  0  0  0
   -1.1290  -10.8254    3.9290 O   0  0  0  0  0  0  0  0  0  0  0  0
   -0.0354   -5.0033    1.8102 C   0  0  1  0  0  0  0  0  0  0  0  0
   -0.8018   -4.1250    2.3477 N   0  0  0  0  0  0  0  0  0  0  0  0
   -0.3296   -3.0266    2.9944 C   0  0  0  0  0  0  0  0  0  0  0  0
    1.0531   -3.3176    3.5147 C   0  0  0  0  0  0  0  0  0  0  0  0
    2.0406   -3.1709    2.6504 C   0  0  0  0  0  0  0  0  0  0  0  0
    2.1650   -4.3895    1.7849 C   0  0  0  0  0  0  0  0  0  0  0  0
    1.1265   -4.8887    1.1863 C   0  0  0  0  0  0  0  0  0  0  0  0
   -2.2553   -4.0258    1.9304 C   0  0  0  0  0  0  0  0  0  0  0  0
  3  7  1  0
  7  8  1  0
  7  9  2  0
 10  6  1  1
 10 11  1  0
 11 12  1  0
 12 13  1  0
 13 14  1  0
 14 15  1  0
 10 16  1  0
 15 16  1  0
 11 17  1  0
  1  2  2  0
  2  6  1  0
  5  6  2  0
  4  5  1  0
  3  4  2  0
  1  3  1  0
M  END

$$$$
No_1507-/export/home/yangzhenyu/potential_scad_32_flow//YTHDC2/2024-12-06-03-22-00/
     RDKit          3D

 19 21  0  0  1  0  0  0  0  0999 V2000
    1.1787   -8.0297    3.5154 F   0  0  0  0  0  0  0  0  0  0  0  0
    0.9085   -8.9213    2.9287 C   0  0  2  0  0  0  0  0  0  0  0  0
    1.3284  -10.0674    3.4978 C   0  0  0  0  0  0  0  0  0  0  0  0
    2.0913  -10.2389    4.4467 C   0  0  0  0  0  0  0  0  0  0  0  0
    0.9391   -8.6054    1.4933 C   0  0  0  0  0  0  0  0  0  0  0  0
    0.5795   -7.4541    1.1397 C   0  0  0  0  0  0  0  0  0  0  0  0
    1.3477   -6.3897    1.2560 C   0  0  0  0  0  0  0  0  0  0  0  0
    2.5017  -11.5916    4.9100 C   0  0  0  0  0  0  0  0  0  0  0  0
    0.9314   -5.0772    1.4463 C   0  0  0  0  0  0  0  0  0  0  0  0
   -0.4512   -4.8995    1.2923 C   0  0  0  0  0  0  0  0  0  0  0  0
   -1.2571   -5.9089    0.9680 C   0  0  0  0  0  0  0  0  0  0  0  0
   -0.8047   -7.1719    0.8177 C   0  0  0  0  0  0  0  0  0  0  0  0
    0.6761  -11.2786    2.9902 C   0  0  0  0  0  0  0  0  0  0  0  0
   -0.3249  -11.2063    2.0498 C   0  0  0  0  0  0  0  0  0  0  0  0
   -0.8230  -12.5015    1.5522 C   0  0  0  0  0  0  0  0  0  0  0  0
   -0.1242  -13.7372    1.7009 C   0  0  0  0  0  0  0  0  0  0  0  0
    0.7176  -13.6621    2.9218 C   0  0  0  0  0  0  0  0  0  0  0  0
    1.1770  -12.4498    3.4381 C   0  0  0  0  0  0  0  0  0  0  0  0
    2.0578  -12.5820    4.4643 N   0  0  0  0  0  0  0  0  0  0  0  0
  2  1  1  1
  2  3  1  0
  2  5  1  0
  5  6  1  0
  6  7  2  0
  7  9  1  0
  9 10  2  0
 10 11  1  0
 11 12  2  0
  6 12  1  0
 13 14  2  0
 14 15  1  0
 15 16  2  0
 16 17  1  0
 17 18  2  0
  3  4  2  0
  4  8  1  0
  8 19  2  0
 18 19  1  0
 13 18  1  0
  3 13  1  0
M  END

$$$$
No_1508-/export/home/yangzhenyu/potential_scad_32_flow//YTHDC2/2024-12-06-03-22-00/
     RDKit          3D

 17 17  0  0  1  0  0  0  0  0999 V2000
    1.1787   -8.0297    3.5154 N   0  0  0  0  0  0  0  0  0  0  0  0
    0.8669   -7.0905    2.8589 C   0  0  0  0  0  0  0  0  0  0  0  0
    1.0447   -7.3244    1.4123 C   0  0  0  0  0  0  0  0  0  0  0  0
    0.7109   -6.4286    0.5881 C   0  0  0  0  0  0  0  0  0  0  0  0
    0.2173   -5.2281    1.1218 C   0  0  0  0  0  0  0  0  0  0  0  0
    0.1536   -4.9362    2.5021 C   0  0  0  0  0  0  0  0  0  0  0  0
    0.5406   -6.0042    3.3464 C   0  0  0  0  0  0  0  0  0  0  0  0
    1.5822   -8.5466    0.9394 C   0  0  0  0  0  0  0  0  0  0  0  0
    1.7770   -8.7953   -0.3363 C   0  0  0  0  0  0  0  0  0  0  0  0
    1.3038   -8.3554   -1.2618 O   0  0  0  0  0  0  0  0  0  0  0  0
    2.6322   -9.8218   -0.6895 O   0  0  0  0  0  0  0  0  0  0  0  0
   -0.4242   -3.6949    3.1015 C   0  0  0  0  0  0  0  0  0  0  0  0
   -1.4195   -3.4468    3.3785 C   0  0  0  0  0  0  0  0  0  0  0  0
    0.8170   -2.7918    3.4858 C   0  0  2  0  0  0  0  0  0  0  0  0
    2.1600   -3.0576    3.2900 C   0  0  0  0  0  0  0  0  0  0  0  0
    0.4308   -1.7534    4.2398 C   0  0  0  0  0  0  0  0  0  0  0  0
   -0.8759   -1.5518    4.7575 C   0  0  0  0  0  0  0  0  0  0  0  0
  1  2  1  0
  3  8  1  0
  8  9  1  0
  9 10  2  0
  9 11  1  0
  6 12  1  0
 12 13  2  0
 12 14  1  0
 14 15  1  1
 14 16  1  0
 16 17  2  0
  2  3  2  0
  3  4  1  0
  4  5  2  0
  5  6  1  0
  6  7  2  0
  2  7  1  0
M  END

$$$$
No_1509-/export/home/yangzhenyu/potential_scad_32_flow//YTHDC2/2024-12-06-03-22-00/
     RDKit          3D

 16 16  0  0  0  0  0  0  0  0999 V2000
    1.1787   -8.0297    3.5154 C   0  0  0  0  0  0  0  0  0  0  0  0
    1.0491   -6.8434    2.9820 C   0  0  0  0  0  0  0  0  0  0  0  0
    0.9905   -9.0774    2.6527 C   0  0  0  0  0  0  0  0  0  0  0  0
    0.7897   -8.9519    1.3691 C   0  0  0  0  0  0  0  0  0  0  0  0
    0.7018   -7.7198    0.7892 C   0  0  0  0  0  0  0  0  0  0  0  0
    0.8918   -6.5957    1.6117 C   0  0  0  0  0  0  0  0  0  0  0  0
    0.8294  -10.5944    3.4329 C   0  0  0  0  0  0  0  0  0  0  0  0
   -0.3177  -11.1296    3.4714 O   0  0  0  0  0  0  0  0  0  0  0  0
    1.9832  -11.1912    3.7094 N   0  0  0  0  0  0  0  0  0  0  0  0
    0.8627   -5.2908    1.0742 C   0  0  0  0  0  0  0  0  0  0  0  0
   -0.3426   -4.7756    0.7455 O   0  0  0  0  0  0  0  0  0  0  0  0
    1.6830   -4.3298    1.3771 O   0  0  0  0  0  0  0  0  0  0  0  0
    2.0074  -12.4289    4.2634 C   0  0  0  0  0  0  0  0  0  0  0  0
    2.3461  -13.5383    3.1126 C   0  0  0  0  0  0  0  0  0  0  0  0
    1.3261  -13.9122    2.2966 C   0  0  0  0  0  0  0  0  0  0  0  0
    0.4140  -14.9365    2.4942 C   0  0  0  0  0  0  0  0  0  0  0  0
  3  7  1  0
  7  8  2  0
  7  9  1  0
  6 10  1  0
 10 11  2  0
 10 12  1  0
  9 13  1  0
 13 14  1  0
 14 15  1  0
 15 16  1  0
  1  2  2  0
  2  6  1  0
  5  6  2  0
  4  5  1  0
  3  4  2  0
  1  3  1  0
M  END

$$$$
No_1510-/export/home/yangzhenyu/potential_scad_32_flow//YTHDC2/2024-12-06-03-22-00/
     RDKit          3D

 17 18  0  0  1  0  0  0  0  0999 V2000
    1.1787   -8.0297    3.5154 C   0  0  0  0  0  0  0  0  0  0  0  0
    1.1048   -9.2215    3.2892 C   0  0  0  0  0  0  0  0  0  0  0  0
    1.2339   -9.7611    2.0189 C   0  0  0  0  0  0  0  0  0  0  0  0
    1.1954  -11.2312    1.8661 C   0  0  2  0  0  0  0  0  0  0  0  0
    1.2996  -11.5815    0.5387 C   0  0  0  0  0  0  0  0  0  0  0  0
    1.3263   -7.1208    2.3229 C   0  0  0  0  0  0  0  0  0  0  0  0
    1.3693   -7.6408    1.0625 C   0  0  0  0  0  0  0  0  0  0  0  0
    1.4358   -8.9950    0.8622 C   0  0  0  0  0  0  0  0  0  0  0  0
    1.6034  -10.8414   -0.4738 C   0  0  0  0  0  0  0  0  0  0  0  0
    1.5954   -9.4621   -0.3677 C   0  0  0  0  0  0  0  0  0  0  0  0
    1.7632   -8.6946   -1.3816 O   0  0  0  0  0  0  0  0  0  0  0  0
    0.9086  -11.9539    2.9363 C   0  0  0  0  0  0  0  0  0  0  0  0
    1.9304  -12.3800    3.7593 C   0  0  0  0  0  0  0  0  0  0  0  0
    1.3425   -5.6274    2.5834 C   0  0  0  0  0  0  0  0  0  0  0  0
    1.4863   -5.2321    3.7618 Cl  0  0  0  0  0  0  0  0  0  0  0  0
    1.5240   -4.8730    1.4390 O   0  0  0  0  0  0  0  0  0  0  0  0
    0.0916  -13.1865    2.5506 C   0  0  0  0  0  0  0  0  0  0  0  0
  3  4  1  0
  4  5  1  0
  8 10  1  0
  9 10  1  0
 10 11  2  0
  4 12  1  6
 12 13  1  0
  6 14  1  0
 14 15  1  0
 14 16  2  0
 12 17  1  0
  5  9  1  0
  1  2  2  0
  2  3  1  0
  3  8  2  0
  7  8  1  0
  6  7  2  0
  1  6  1  0
M  END

$$$$
No_1511-/export/home/yangzhenyu/potential_scad_32_flow//YTHDC2/2024-12-06-03-22-00/
     RDKit          3D

 19 19  0  0  0  0  0  0  0  0999 V2000
    1.1787   -8.0297    3.5154 C   0  0  0  0  0  0  0  0  0  0  0  0
    1.1048   -9.2215    3.2892 C   0  0  0  0  0  0  0  0  0  0  0  0
    1.2339   -9.7611    2.0189 C   0  0  0  0  0  0  0  0  0  0  0  0
    1.3583   -9.0036    0.9764 C   0  0  0  0  0  0  0  0  0  0  0  0
    1.7077   -9.6100   -0.3010 C   0  0  0  0  0  0  0  0  0  0  0  0
    1.3637   -7.1087    2.3226 C   0  0  0  0  0  0  0  0  0  0  0  0
    1.4257   -7.6645    1.0231 C   0  0  0  0  0  0  0  0  0  0  0  0
    1.9364   -8.8976   -1.3212 O   0  0  0  0  0  0  0  0  0  0  0  0
    1.0218  -10.6394   -0.4427 O   0  0  0  0  0  0  0  0  0  0  0  0
    1.3505   -5.4423    2.5199 Br  0  0  0  0  0  0  0  0  0  0  0  0
    1.0715  -10.3772    4.5930 Cl  0  0  0  0  0  0  0  0  0  0  0  0
    1.3465  -11.1836    1.9357 N   0  0  0  0  0  0  0  0  0  0  0  0
    2.6588  -11.9014    2.0269 C   0  0  0  0  0  0  0  0  0  0  0  0
    2.3873  -13.3183    1.7352 C   0  0  0  0  0  0  0  0  0  0  0  0
    1.0401  -13.5402    1.7104 C   0  0  0  0  0  0  0  0  0  0  0  0
    0.6244  -14.8233    1.4541 C   0  0  0  0  0  0  0  0  0  0  0  0
    1.4096  -15.8967    1.7561 C   0  0  0  0  0  0  0  0  0  0  0  0
    0.9309  -17.1795    1.6856 C   0  0  0  0  0  0  0  0  0  0  0  0
   -0.3206  -17.4030    1.4979 Cl  0  0  0  0  0  0  0  0  0  0  0  0
  4  5  1  0
  5  8  1  0
  5  9  2  0
  6 10  1  0
  2 11  1  0
  3 12  1  0
 12 13  1  0
 13 14  1  0
 14 15  1  0
 15 16  1  0
 16 17  1  0
 17 18  2  3
 18 19  1  0
  1  2  2  0
  2  3  1  0
  3  4  2  0
  4  7  1  0
  6  7  2  0
  1  6  1  0
M  END

$$$$
No_1512-/export/home/yangzhenyu/potential_scad_32_flow//YTHDC2/2024-12-06-03-22-00/
     RDKit          3D

 19 20  0  0  0  0  0  0  0  0999 V2000
    1.1787   -8.0297    3.5154 C   0  0  0  0  0  0  0  0  0  0  0  0
    1.0491   -6.8434    2.9820 C   0  0  0  0  0  0  0  0  0  0  0  0
    0.9905   -9.0774    2.6527 C   0  0  0  0  0  0  0  0  0  0  0  0
    0.7897   -8.9519    1.3691 C   0  0  0  0  0  0  0  0  0  0  0  0
    0.7018   -7.7198    0.7892 C   0  0  0  0  0  0  0  0  0  0  0  0
    0.8918   -6.5957    1.6117 C   0  0  0  0  0  0  0  0  0  0  0  0
    1.0998  -10.4710    3.2437 C   0  0  0  0  0  0  0  0  0  0  0  0
    0.0472  -11.2546    3.3963 C   0  0  0  0  0  0  0  0  0  0  0  0
    0.1622  -12.5732    3.4140 C   0  0  0  0  0  0  0  0  0  0  0  0
    1.4182  -13.1957    3.4048 C   0  0  0  0  0  0  0  0  0  0  0  0
    2.5550  -12.3947    3.0877 C   0  0  0  0  0  0  0  0  0  0  0  0
    2.4166  -11.0849    2.9699 C   0  0  0  0  0  0  0  0  0  0  0  0
    0.8571   -5.2495    1.2086 C   0  0  0  0  0  0  0  0  0  0  0  0
    1.4738  -14.8186    3.3341 O   0  0  0  0  0  0  0  0  0  0  0  0
   -0.2217   -4.7490    0.7352 O   0  0  0  0  0  0  0  0  0  0  0  0
    1.7473   -4.3266    1.6558 Cl  0  0  0  0  0  0  0  0  0  0  0  0
    2.1960  -15.3280    2.4585 C   0  0  0  0  0  0  0  0  0  0  0  0
    2.5655  -14.8888    1.4832 C   0  0  0  0  0  0  0  0  0  0  0  0
    2.4087  -16.6740    2.8721 C   0  0  0  0  0  0  0  0  0  0  0  0
  3  7  1  0
  6 13  1  0
 10 14  1  0
 13 15  2  0
 13 16  1  0
 14 17  1  0
 17 18  1  0
 17 19  1  0
  1  2  2  0
  2  6  1  0
  5  6  2  0
  4  5  1  0
  3  4  2  0
  1  3  1  0
  7  8  2  0
  8  9  1  0
  9 10  2  0
 10 11  1  0
 11 12  2  0
  7 12  1  0
M  END

$$$$
No_1513-/export/home/yangzhenyu/potential_scad_32_flow//YTHDC2/2024-12-06-03-22-00/
     RDKit          3D

 18 19  0  0  1  0  0  0  0  0999 V2000
    1.1787   -8.0297    3.5154 C   0  0  0  0  0  0  0  0  0  0  0  0
    1.1048   -9.2215    3.2892 C   0  0  0  0  0  0  0  0  0  0  0  0
    1.2339   -9.7611    2.0189 C   0  0  1  0  0  0  0  0  0  0  0  0
    1.1954  -11.2312    1.8661 C   0  0  2  0  0  0  0  0  0  0  0  0
    1.5546  -12.1691    2.7931 C   0  0  0  0  0  0  0  0  0  0  0  0
    0.5849   -7.0929    2.5729 C   0  0  2  0  0  0  0  0  0  0  0  0
    0.5567   -7.6699    1.1955 C   0  0  0  0  0  0  0  0  0  0  0  0
    0.7903   -8.9699    0.9209 C   0  0  0  0  0  0  0  0  0  0  0  0
    0.7585  -13.2773    2.9106 C   0  0  0  0  0  0  0  0  0  0  0  0
    0.6440  -14.0551    1.7567 C   0  0  2  0  0  0  0  0  0  0  0  0
    0.2840  -13.0831    0.5849 C   0  0  0  0  0  0  0  0  0  0  0  0
    1.0159  -11.8389    0.6142 C   0  0  0  0  0  0  0  0  0  0  0  0
    0.6209   -5.6449    2.6414 C   0  0  0  0  0  0  0  0  0  0  0  0
    0.3468   -6.8733    0.1652 O   0  0  0  0  0  0  0  0  0  0  0  0
    1.7635   -4.9067    2.9506 C   0  0  0  0  0  0  0  0  0  0  0  0
   -0.3724  -15.0633    1.9114 C   0  0  0  0  0  0  0  0  0  0  0  0
   -0.1469  -16.0980    1.4956 C   0  0  0  0  0  0  0  0  0  0  0  0
    0.9759  -16.5420    0.8909 C   0  0  0  0  0  0  0  0  0  0  0  0
  1  2  1  0
  3  4  1  0
  4  5  1  6
  6  7  1  0
  3  8  1  6
  7  8  1  0
  5  9  1  0
  9 10  1  0
 10 11  1  0
  4 12  1  0
 11 12  1  0
  6 13  1  6
  7 14  2  0
 13 15  1  0
 10 16  1  1
 16 17  1  0
 17 18  1  0
  1  6  1  0
  2  3  1  0
M  END

$$$$
No_1514-/export/home/yangzhenyu/potential_scad_32_flow//YTHDC2/2024-12-06-03-22-00/
     RDKit          3D

 20 20  0  0  1  0  0  0  0  0999 V2000
    1.1787   -8.0297    3.5154 C   0  0  0  0  0  0  0  0  0  0  0  0
    1.0491   -6.8434    2.9820 C   0  0  1  0  0  0  0  0  0  0  0  0
    0.9905   -9.0774    2.6527 C   0  0  1  0  0  0  0  0  0  0  0  0
    0.7897   -8.9519    1.3691 C   0  0  0  0  0  0  0  0  0  0  0  0
    0.7018   -7.7198    0.7892 C   0  0  0  0  0  0  0  0  0  0  0  0
    1.4312   -5.5794    3.7443 C   0  0  0  0  0  0  0  0  0  0  0  0
    0.9426   -6.6664    1.5322 C   0  0  0  0  0  0  0  0  0  0  0  0
    0.9111   -5.4001    1.0251 O   0  0  0  0  0  0  0  0  0  0  0  0
    1.1429  -10.7536    3.3072 C   0  0  1  0  0  0  0  0  0  0  0  0
    2.2061  -11.0329    3.7629 C   0  0  0  0  0  0  0  0  0  0  0  0
    0.0700  -11.4053    3.2897 C   0  0  0  0  0  0  0  0  0  0  0  0
   -1.1690  -10.9789    3.5981 O   0  0  0  0  0  0  0  0  0  0  0  0
    0.1175  -12.6787    2.8992 N   0  0  0  0  0  0  0  0  0  0  0  0
    2.2853  -10.8414    5.2479 O   0  0  0  0  0  0  0  0  0  0  0  0
   -0.8646  -13.5316    2.7643 C   0  0  0  0  0  0  0  0  0  0  0  0
   -1.8154  -13.1414    1.8352 C   0  0  0  0  0  0  0  0  0  0  0  0
   -3.0828  -13.2721    2.2010 C   0  0  0  0  0  0  0  0  0  0  0  0
   -4.0896  -12.7493    1.3075 C   0  0  0  0  0  0  0  0  0  0  0  0
   -3.6789  -12.3207    0.0394 C   0  0  0  0  0  0  0  0  0  0  0  0
   -2.3741  -12.1935   -0.3186 C   0  0  0  0  0  0  0  0  0  0  0  0
  1  2  1  0
  3  4  1  6
  2  6  1  6
  2  7  1  0
  5  7  1  0
  7  8  2  0
  3  9  1  0
  9 10  1  1
  9 11  1  0
 11 12  2  0
 11 13  1  0
 10 14  1  0
 13 15  1  0
 15 16  1  0
 16 17  2  3
 17 18  1  0
 18 19  2  3
 19 20  1  0
  1  3  1  0
  4  5  1  0
M  END

$$$$
No_1515-/export/home/yangzhenyu/potential_scad_32_flow//YTHDC2/2024-12-06-03-22-00/
     RDKit          3D

 19 20  0  0  0  0  0  0  0  0999 V2000
    1.1787   -8.0297    3.5154 C   0  0  0  0  0  0  0  0  0  0  0  0
    1.0491   -6.8434    2.9820 C   0  0  0  0  0  0  0  0  0  0  0  0
    0.9905   -9.0774    2.6527 C   0  0  0  0  0  0  0  0  0  0  0  0
    0.7897   -8.9519    1.3691 C   0  0  0  0  0  0  0  0  0  0  0  0
    0.7018   -7.7198    0.7892 C   0  0  0  0  0  0  0  0  0  0  0  0
    0.8918   -6.5957    1.6117 C   0  0  0  0  0  0  0  0  0  0  0  0
    1.0998  -10.4710    3.2437 C   0  0  0  0  0  0  0  0  0  0  0  0
    0.0472  -11.2546    3.3963 C   0  0  0  0  0  0  0  0  0  0  0  0
    0.1622  -12.5732    3.4140 C   0  0  0  0  0  0  0  0  0  0  0  0
    1.4182  -13.1957    3.4048 C   0  0  0  0  0  0  0  0  0  0  0  0
    2.1789  -12.8763    2.7170 C   0  0  0  0  0  0  0  0  0  0  0  0
    2.2524  -11.2965    2.5835 C   0  0  0  0  0  0  0  0  0  0  0  0
    0.8657   -5.2443    1.2186 C   0  0  0  0  0  0  0  0  0  0  0  0
    1.2200  -14.7572    3.3728 O   0  0  0  0  0  0  0  0  0  0  0  0
    0.2045   -4.2965    2.0229 O   0  0  0  0  0  0  0  0  0  0  0  0
    0.2758   -2.9462    1.6151 C   0  0  0  0  0  0  0  0  0  0  0  0
    1.1763  -15.6401    2.4309 C   0  0  0  0  0  0  0  0  0  0  0  0
    0.5519  -16.4123    2.6004 C   0  0  0  0  0  0  0  0  0  0  0  0
    0.1932  -17.1943    1.6111 C   0  0  0  0  0  0  0  0  0  0  0  0
  3  7  1  0
  6 13  1  0
 10 14  1  0
 13 15  1  0
 15 16  1  0
 14 17  1  0
 17 18  1  0
 18 19  2  0
  1  2  2  0
  2  6  1  0
  5  6  2  0
  4  5  1  0
  3  4  2  0
  1  3  1  0
  7  8  2  0
  8  9  1  0
  9 10  2  0
 10 11  1  0
 11 12  2  0
  7 12  1  0
M  END

$$$$
No_1516-/export/home/yangzhenyu/potential_scad_32_flow//YTHDC2/2024-12-06-03-22-00/
     RDKit          3D

 16 16  0  0  1  0  0  0  0  0999 V2000
    1.1787   -8.0297    3.5154 C   0  0  0  0  0  0  0  0  0  0  0  0
    1.0491   -6.8434    2.9820 C   0  0  0  0  0  0  0  0  0  0  0  0
    1.9985   -8.9840    2.8958 C   0  0  1  0  0  0  0  0  0  0  0  0
    1.9135  -10.3404    3.6266 C   0  0  0  0  0  0  0  0  0  0  0  0
    1.3291  -11.3908    3.0222 N   0  0  0  0  0  0  0  0  0  0  0  0
    0.4866   -6.6550    1.7445 C   0  0  0  0  0  0  0  0  0  0  0  0
    0.8431   -7.4254    0.8328 C   0  0  0  0  0  0  0  0  0  0  0  0
    1.3177   -8.9200    1.3976 C   0  0  0  0  0  0  0  0  0  0  0  0
    1.5401  -12.5051    3.4532 C   0  0  0  0  0  0  0  0  0  0  0  0
    0.8058  -13.6688    2.8271 C   0  0  1  0  0  0  0  0  0  0  0  0
   -0.3030  -13.4974    2.1852 C   0  0  0  0  0  0  0  0  0  0  0  0
    0.4095   -7.7884   -0.2990 O   0  0  0  0  0  0  0  0  0  0  0  0
    1.8953  -14.6003    2.0580 C   0  0  0  0  0  0  0  0  0  0  0  0
    1.7065  -15.8425    1.9910 C   0  0  0  0  0  0  0  0  0  0  0  0
    0.5005  -16.4376    2.5639 C   0  0  0  0  0  0  0  0  0  0  0  0
    0.3585  -17.8591    2.4453 C   0  0  0  0  0  0  0  0  0  0  0  0
  1  2  1  0
  1  3  1  0
  3  4  1  1
  4  5  1  0
  2  6  1  0
  6  7  1  0
  3  8  1  0
  7  8  1  0
  5  9  1  0
  9 10  1  0
 10 11  1  6
  7 12  2  0
 10 13  1  0
 13 14  2  3
 14 15  1  0
 15 16  1  0
M  END

$$$$
No_1517-/export/home/yangzhenyu/potential_scad_32_flow//YTHDC2/2024-12-06-03-22-00/
     RDKit          3D

 18 19  0  0  1  0  0  0  0  0999 V2000
    1.1787   -8.0297    3.5154 C   0  0  0  0  0  0  0  0  0  0  0  0
    1.0491   -6.8434    2.9820 C   0  0  0  0  0  0  0  0  0  0  0  0
    1.9985   -8.9840    2.8958 C   0  0  0  0  0  0  0  0  0  0  0  0
    1.1815  -10.1889    2.5497 C   0  0  0  0  0  0  0  0  0  0  0  0
    0.9817  -11.1388    2.8134 C   0  0  2  0  0  0  0  0  0  0  0  0
    1.6854  -11.5768    4.1035 C   0  0  0  0  0  0  0  0  0  0  0  0
    1.3832   -6.6295    1.8080 C   0  0  0  0  0  0  0  0  0  0  0  0
    1.0510   -5.2427    1.3489 C   0  0  0  0  0  0  0  0  0  0  0  0
    0.4952   -4.4060    2.3319 C   0  0  0  0  0  0  0  0  0  0  0  0
    0.5109   -5.2072    3.4882 C   0  0  0  0  0  0  0  0  0  0  0  0
    0.9943  -12.3655    1.9929 C   0  0  0  0  0  0  0  0  0  0  0  0
    0.7209  -12.1124    0.7686 C   0  0  0  0  0  0  0  0  0  0  0  0
    0.0686  -13.0994    0.1453 C   0  0  0  0  0  0  0  0  0  0  0  0
   -0.0558  -14.4005    0.6930 C   0  0  0  0  0  0  0  0  0  0  0  0
    0.1734  -14.5845    1.9440 C   0  0  0  0  0  0  0  0  0  0  0  0
    0.7166  -13.5592    2.7256 C   0  0  0  0  0  0  0  0  0  0  0  0
   -0.0013  -15.8918    2.5928 C   0  0  0  0  0  0  0  0  0  0  0  0
    1.0496  -16.5678    3.1122 N   0  0  0  0  0  0  0  0  0  0  0  0
  1  2  1  0
  1  3  1  0
  3  4  1  0
  4  5  1  0
  5  6  1  1
  2  7  1  0
  7  8  2  0
  8  9  1  0
  2 10  1  0
  9 10  1  0
  5 11  1  0
 15 17  1  0
 17 18  1  0
 11 12  2  0
 12 13  1  0
 13 14  2  0
 14 15  1  0
 15 16  2  0
 11 16  1  0
M  END

$$$$
No_1518-/export/home/yangzhenyu/potential_scad_32_flow//YTHDC2/2024-12-06-03-22-00/
     RDKit          3D

 19 19  0  0  0  0  0  0  0  0999 V2000
    1.1787   -8.0297    3.5154 C   0  0  0  0  0  0  0  0  0  0  0  0
    1.0491   -6.8434    2.9820 C   0  0  0  0  0  0  0  0  0  0  0  0
    0.9905   -9.0774    2.6527 C   0  0  0  0  0  0  0  0  0  0  0  0
    0.7897   -8.9519    1.3691 C   0  0  0  0  0  0  0  0  0  0  0  0
    0.7018   -7.7198    0.7892 C   0  0  0  0  0  0  0  0  0  0  0  0
    0.8918   -6.5957    1.6117 C   0  0  0  0  0  0  0  0  0  0  0  0
    1.0600  -10.5680    3.3321 C   0  0  0  0  0  0  0  0  0  0  0  0
    2.1422  -11.0089    3.6867 C   0  0  0  0  0  0  0  0  0  0  0  0
    0.8986   -5.2530    1.1685 O   0  0  0  0  0  0  0  0  0  0  0  0
   -0.0631  -11.2110    3.4552 C   0  0  0  0  0  0  0  0  0  0  0  0
   -1.1757  -10.4983    4.0228 O   0  0  0  0  0  0  0  0  0  0  0  0
   -0.2602  -12.5169    3.5054 N   0  0  0  0  0  0  0  0  0  0  0  0
    2.5925  -10.5947    5.0227 C   0  0  0  0  0  0  0  0  0  0  0  0
    3.7760  -10.9955    5.4479 O   0  0  0  0  0  0  0  0  0  0  0  0
    0.5844  -10.1485    0.2272 C   0  0  0  0  0  0  0  0  0  0  0  0
   -0.5107  -10.3074   -0.1090 C   0  0  0  0  0  0  0  0  0  0  0  0
   -1.2491   -9.3381   -0.7855 O   0  0  0  0  0  0  0  0  0  0  0  0
   -1.2822  -11.3703    0.0947 O   0  0  0  0  0  0  0  0  0  0  0  0
   -1.1976   -9.4615   -2.3405 C   0  0  0  0  0  0  0  0  0  0  0  0
  1  2  1  0
  3  4  1  0
  2  6  1  0
  5  6  1  0
  3  7  1  0
  7  8  1  0
  6  9  2  0
  7 10  1  0
 10 11  2  0
 10 12  1  0
  8 13  1  0
 13 14  1  0
  4 15  1  0
 15 16  1  0
 16 17  1  0
 16 18  2  0
 17 19  1  0
  1  3  1  0
  4  5  1  0
M  END

$$$$
No_1519-/export/home/yangzhenyu/potential_scad_32_flow//YTHDC2/2024-12-06-03-22-00/
     RDKit          3D

 18 18  0  0  0  0  0  0  0  0999 V2000
    1.1787   -8.0297    3.5154 O   0  0  0  0  0  0  0  0  0  0  0  0
    0.6747   -7.4019    2.7838 C   0  0  0  0  0  0  0  0  0  0  0  0
    0.7594   -8.0032    1.4295 C   0  0  0  0  0  0  0  0  0  0  0  0
    0.3459   -9.1500    1.3581 C   0  0  0  0  0  0  0  0  0  0  0  0
   -0.4155   -9.6726    2.0241 C   0  0  0  0  0  0  0  0  0  0  0  0
   -0.0316  -10.8325    2.6657 C   0  0  0  0  0  0  0  0  0  0  0  0
    1.1428  -11.4689    2.2182 C   0  0  0  0  0  0  0  0  0  0  0  0
    1.9817  -10.9207    1.2505 C   0  0  0  0  0  0  0  0  0  0  0  0
    1.5970   -9.7197    0.7186 C   0  0  0  0  0  0  0  0  0  0  0  0
    2.1820   -9.0861   -0.3389 C   0  0  0  0  0  0  0  0  0  0  0  0
    1.7861   -8.3443   -1.2022 O   0  0  0  0  0  0  0  0  0  0  0  0
    3.4237   -9.4586   -0.6623 O   0  0  0  0  0  0  0  0  0  0  0  0
    1.4220  -12.8419    2.7654 C   0  0  0  0  0  0  0  0  0  0  0  0
    1.5949  -13.9028    1.9605 C   0  0  0  0  0  0  0  0  0  0  0  0
    2.5555  -14.7947    2.3879 C   0  0  0  0  0  0  0  0  0  0  0  0
    0.3482   -6.2302    3.1614 O   0  0  0  0  0  0  0  0  0  0  0  0
    2.0645  -16.2034    2.3114 O   0  0  0  0  0  0  0  0  0  0  0  0
    3.7474  -14.7862    2.7057 O   0  0  0  0  0  0  0  0  0  0  0  0
  1  2  1  0
  2  3  1  0
  3  4  1  0
  9 10  1  0
 10 11  2  0
 10 12  1  0
  7 13  1  0
 13 14  1  0
 14 15  1  0
  2 16  2  0
 15 17  2  0
 15 18  1  0
  4  5  2  0
  5  6  1  0
  6  7  2  0
  7  8  1  0
  8  9  2  0
  4  9  1  0
M  END

$$$$
No_1520-/export/home/yangzhenyu/potential_scad_32_flow//YTHDC2/2024-12-06-03-22-00/
     RDKit          3D

 20 21  0  0  1  0  0  0  0  0999 V2000
    1.1787   -8.0297    3.5154 C   0  0  0  0  0  0  0  0  0  0  0  0
    1.0491   -6.8434    2.9820 C   0  0  0  0  0  0  0  0  0  0  0  0
    0.9905   -9.0774    2.6527 C   0  0  1  0  0  0  0  0  0  0  0  0
    0.7897   -8.9519    1.3691 C   0  0  0  0  0  0  0  0  0  0  0  0
    0.7018   -7.7198    0.7892 C   0  0  0  0  0  0  0  0  0  0  0  0
    0.8918   -6.5957    1.6117 C   0  0  0  0  0  0  0  0  0  0  0  0
    1.0998  -10.4710    3.2437 C   0  0  1  0  0  0  0  0  0  0  0  0
    0.0472  -11.2546    3.3963 C   0  0  0  0  0  0  0  0  0  0  0  0
   -0.3712  -11.7969    2.5371 C   0  0  0  0  0  0  0  0  0  0  0  0
    0.5261  -12.4782    1.6616 C   0  0  2  0  0  0  0  0  0  0  0  0
    1.8059  -11.8186    1.4781 C   0  0  0  0  0  0  0  0  0  0  0  0
    2.0775  -10.8941    2.3564 C   0  0  0  0  0  0  0  0  0  0  0  0
    0.8967   -5.2354    1.2225 C   0  0  0  0  0  0  0  0  0  0  0  0
    0.2385  -13.5093    0.7815 C   0  0  0  0  0  0  0  0  0  0  0  0
   -0.1925   -4.7443    0.7190 Cl  0  0  0  0  0  0  0  0  0  0  0  0
   -0.7303  -13.3501   -0.2184 O   0  0  0  0  0  0  0  0  0  0  0  0
    0.5815  -14.7437    1.0129 O   0  0  0  0  0  0  0  0  0  0  0  0
    1.6727  -10.3693    4.6524 C   0  0  0  0  0  0  0  0  0  0  0  0
    1.3879   -5.7358    3.7581 O   0  0  0  0  0  0  0  0  0  0  0  0
    2.8192  -10.0443    5.0393 O   0  0  0  0  0  0  0  0  0  0  0  0
  1  2  1  0
  3  4  1  6
  2  6  1  0
  5  6  1  0
  3  7  1  0
  7  8  1  0
  9 10  1  0
 10 11  1  0
  7 12  1  0
 11 12  1  0
  6 13  1  0
 10 14  1  6
 13 15  1  0
 14 16  2  0
 14 17  1  0
  7 18  1  1
  2 19  2  0
 18 20  2  0
  8  9  1  0
  1  3  1  0
  4  5  1  0
M  END

$$$$
No_1521-/export/home/yangzhenyu/potential_scad_32_flow//YTHDC2/2024-12-06-03-22-00/
     RDKit          3D

 20 21  0  0  0  0  0  0  0  0999 V2000
    1.1787   -8.0297    3.5154 C   0  0  0  0  0  0  0  0  0  0  0  0
    1.1048   -9.2215    3.2892 C   0  0  0  0  0  0  0  0  0  0  0  0
    1.2339   -9.7611    2.0189 C   0  0  0  0  0  0  0  0  0  0  0  0
    1.3583   -9.0036    0.9764 C   0  0  0  0  0  0  0  0  0  0  0  0
    1.7077   -9.6100   -0.3010 C   0  0  0  0  0  0  0  0  0  0  0  0
    1.3637   -7.1087    2.3226 C   0  0  0  0  0  0  0  0  0  0  0  0
    1.4257   -7.6645    1.0231 C   0  0  0  0  0  0  0  0  0  0  0  0
    1.6722  -10.7840   -0.4044 O   0  0  0  0  0  0  0  0  0  0  0  0
    1.4862   -8.9147   -1.4018 O   0  0  0  0  0  0  0  0  0  0  0  0
    1.1436  -10.3161    4.5770 Cl  0  0  0  0  0  0  0  0  0  0  0  0
    1.3171   -5.6009    2.5618 Cl  0  0  0  0  0  0  0  0  0  0  0  0
    1.3238  -11.1721    1.9425 C   0  0  0  0  0  0  0  0  0  0  0  0
    0.4274  -12.1417    1.8941 C   0  0  0  0  0  0  0  0  0  0  0  0
    0.5811  -13.5138    1.8200 C   0  0  0  0  0  0  0  0  0  0  0  0
   -0.0122  -14.2218    1.0849 C   0  0  0  0  0  0  0  0  0  0  0  0
    0.3506  -15.5164    0.8342 C   0  0  0  0  0  0  0  0  0  0  0  0
    1.4781  -16.0284    1.6109 C   0  0  0  0  0  0  0  0  0  0  0  0
    2.1692  -15.2350    2.4558 C   0  0  0  0  0  0  0  0  0  0  0  0
    1.7270  -13.8896    2.6335 C   0  0  0  0  0  0  0  0  0  0  0  0
    1.6987  -17.5527    1.6657 Cl  0  0  0  0  0  0  0  0  0  0  0  0
  4  5  1  0
  5  8  2  0
  5  9  1  0
  2 10  1  0
  6 11  1  0
  3 12  1  0
 12 13  2  3
 13 14  1  0
 17 20  1  0
 14 15  2  0
 15 16  1  0
 16 17  2  0
 17 18  1  0
 18 19  2  0
 14 19  1  0
  1  2  2  0
  2  3  1  0
  3  4  2  0
  4  7  1  0
  6  7  2  0
  1  6  1  0
M  END

$$$$
No_1522-/export/home/yangzhenyu/potential_scad_32_flow//YTHDC2/2024-12-06-03-22-00/
     RDKit          3D

 19 20  0  0  0  0  0  0  0  0999 V2000
    1.1787   -8.0297    3.5154 C   0  0  0  0  0  0  0  0  0  0  0  0
    1.1048   -9.2215    3.2892 C   0  0  0  0  0  0  0  0  0  0  0  0
    1.2339   -9.7611    2.0189 C   0  0  0  0  0  0  0  0  0  0  0  0
    1.3583   -9.0036    0.9764 C   0  0  0  0  0  0  0  0  0  0  0  0
    1.5996   -7.6362    1.1311 C   0  0  0  0  0  0  0  0  0  0  0  0
    1.4830   -7.0928    2.3626 C   0  0  0  0  0  0  0  0  0  0  0  0
    1.5395   -5.7300    2.6182 C   0  0  0  0  0  0  0  0  0  0  0  0
    1.1775  -11.2233    1.8407 C   0  0  0  0  0  0  0  0  0  0  0  0
    1.9057  -12.1147    2.3397 C   0  0  0  0  0  0  0  0  0  0  0  0
    1.6867  -13.4551    2.0621 C   0  0  0  0  0  0  0  0  0  0  0  0
    0.7025  -13.8511    1.3021 C   0  0  0  0  0  0  0  0  0  0  0  0
   -0.1111  -12.9140    0.6527 C   0  0  0  0  0  0  0  0  0  0  0  0
    0.1535  -11.5434    0.9240 C   0  0  0  0  0  0  0  0  0  0  0  0
    1.6688   -5.1779    3.8866 I   0  0  0  0  0  0  0  0  0  0  0  0
    2.6253  -14.5861    2.8651 Cl  0  0  0  0  0  0  0  0  0  0  0  0
   -0.7006  -10.6831    0.3259 C   0  0  0  0  0  0  0  0  0  0  0  0
   -1.8583  -10.3415    0.9478 O   0  0  0  0  0  0  0  0  0  0  0  0
   -0.7811  -10.6084   -1.0703 N   0  0  0  0  0  0  0  0  0  0  0  0
   -1.5958   -9.8037   -1.8378 C   0  0  0  0  0  0  0  0  0  0  0  0
  6  7  1  0
  3  8  1  0
  7 14  1  0
 10 15  1  0
 13 16  1  0
 16 17  2  0
 16 18  1  0
 18 19  1  0
  1  2  2  0
  2  3  1  0
  3  4  2  0
  4  5  1  0
  5  6  2  0
  1  6  1  0
  8  9  2  0
  9 10  1  0
 10 11  2  0
 11 12  1  0
 12 13  2  0
  8 13  1  0
M  END

$$$$
No_1523-/export/home/yangzhenyu/potential_scad_32_flow//YTHDC2/2024-12-06-03-22-00/
     RDKit          3D

 18 18  0  0  0  0  0  0  0  0999 V2000
    1.1787   -8.0297    3.5154 C   0  0  0  0  0  0  0  0  0  0  0  0
    1.0491   -6.8434    2.9820 C   0  0  0  0  0  0  0  0  0  0  0  0
    1.9985   -8.9840    2.8958 C   0  0  0  0  0  0  0  0  0  0  0  0
    1.9135  -10.3404    3.6266 C   0  0  0  0  0  0  0  0  0  0  0  0
    2.2847  -10.5440    4.7936 O   0  0  0  0  0  0  0  0  0  0  0  0
    1.2341  -11.4116    3.0748 N   0  0  0  0  0  0  0  0  0  0  0  0
    0.3791   -6.7317    1.7881 C   0  0  0  0  0  0  0  0  0  0  0  0
    0.2034   -5.4711    1.2630 O   0  0  0  0  0  0  0  0  0  0  0  0
   -0.2599   -7.6195    1.3827 O   0  0  0  0  0  0  0  0  0  0  0  0
    1.0561  -12.6375    3.6541 C   0  0  0  0  0  0  0  0  0  0  0  0
    0.8739  -13.7078    2.7356 C   0  0  0  0  0  0  0  0  0  0  0  0
    0.8741  -15.0317    3.4108 C   0  0  0  0  0  0  0  0  0  0  0  0
    0.8074  -16.1042    2.6246 C   0  0  0  0  0  0  0  0  0  0  0  0
    0.6087  -16.0241    1.2798 C   0  0  0  0  0  0  0  0  0  0  0  0
    0.5695  -14.8407    0.7234 C   0  0  0  0  0  0  0  0  0  0  0  0
    0.7244  -13.6669    1.4105 C   0  0  0  0  0  0  0  0  0  0  0  0
    0.7435  -12.4706    0.7749 C   0  0  0  0  0  0  0  0  0  0  0  0
   -0.5441  -12.0570    0.2191 C   0  0  0  0  0  0  0  0  0  0  0  0
  1  2  1  0
  1  3  1  0
  3  4  1  0
  4  5  2  0
  4  6  1  0
  2  7  1  0
  7  8  2  0
  7  9  1  0
  6 10  1  0
 10 11  1  0
 16 17  1  0
 17 18  1  0
 11 12  2  0
 12 13  1  0
 13 14  2  0
 14 15  1  0
 15 16  2  0
 11 16  1  0
M  END

$$$$
No_1524-/export/home/yangzhenyu/potential_scad_32_flow//YTHDC2/2024-12-06-03-22-00/
     RDKit          3D

 17 18  0  0  0  0  0  0  0  0999 V2000
    1.1787   -8.0297    3.5154 C   0  0  0  0  0  0  0  0  0  0  0  0
    1.0491   -6.8434    2.9820 C   0  0  0  0  0  0  0  0  0  0  0  0
    0.9905   -9.0774    2.6527 C   0  0  0  0  0  0  0  0  0  0  0  0
    0.7897   -8.9519    1.3691 C   0  0  0  0  0  0  0  0  0  0  0  0
    0.7018   -7.7198    0.7892 C   0  0  0  0  0  0  0  0  0  0  0  0
    0.8918   -6.5957    1.6117 C   0  0  0  0  0  0  0  0  0  0  0  0
    1.0600  -10.5680    3.3321 C   0  0  0  0  0  0  0  0  0  0  0  0
    2.1422  -11.0089    3.6867 C   0  0  0  0  0  0  0  0  0  0  0  0
    0.8986   -5.2530    1.1685 C   0  0  0  0  0  0  0  0  0  0  0  0
   -0.0562  -11.2191    3.4645 C   0  0  0  0  0  0  0  0  0  0  0  0
   -1.1678  -10.4923    4.0287 C   0  0  0  0  0  0  0  0  0  0  0  0
    2.6511  -10.7111    4.9046 F   0  0  0  0  0  0  0  0  0  0  0  0
   -2.4588  -10.7609    3.7739 C   0  0  0  0  0  0  0  0  0  0  0  0
   -2.7071  -11.8974    3.0258 C   0  0  0  0  0  0  0  0  0  0  0  0
   -1.7251  -12.6721    2.4746 C   0  0  0  0  0  0  0  0  0  0  0  0
   -0.3848  -12.3668    2.7314 C   0  0  0  0  0  0  0  0  0  0  0  0
    3.2832  -10.6980    2.8819 F   0  0  0  0  0  0  0  0  0  0  0  0
  3  7  1  0
  7  8  1  0
  6  9  1  0
  7 10  1  0
  8 12  1  0
  8 17  1  0
  1  2  2  0
  2  6  1  0
  5  6  2  0
  4  5  1  0
  3  4  2  0
  1  3  1  0
 10 11  2  0
 11 13  1  0
 13 14  2  0
 14 15  1  0
 15 16  2  0
 10 16  1  0
M  END

$$$$
No_1525-/export/home/yangzhenyu/potential_scad_32_flow//YTHDC2/2024-12-06-03-22-00/
     RDKit          3D

 17 19  0  0  0  0  0  0  0  0999 V2000
    1.1787   -8.0297    3.5154 C   0  0  0  0  0  0  0  0  0  0  0  0
    1.1048   -9.2215    3.2892 C   0  0  0  0  0  0  0  0  0  0  0  0
    1.3627  -10.1721    4.3044 C   0  0  0  0  0  0  0  0  0  0  0  0
    1.0682  -11.5187    4.0618 C   0  0  0  0  0  0  0  0  0  0  0  0
    0.6332  -11.9655    2.9682 C   0  0  0  0  0  0  0  0  0  0  0  0
    0.4719  -13.4293    2.7591 C   0  0  0  0  0  0  0  0  0  0  0  0
    1.1778  -13.9123    1.8627 C   0  0  0  0  0  0  0  0  0  0  0  0
    1.0139   -7.1500    2.3162 C   0  0  0  0  0  0  0  0  0  0  0  0
    0.9579   -7.5938    1.1197 C   0  0  0  0  0  0  0  0  0  0  0  0
    1.1526   -8.8632    0.8377 C   0  0  0  0  0  0  0  0  0  0  0  0
    1.2084   -9.8039    1.9137 C   0  0  0  0  0  0  0  0  0  0  0  0
    0.9618  -11.3216    1.7657 C   0  0  0  0  0  0  0  0  0  0  0  0
    1.8088  -14.8453    2.0275 C   0  0  0  0  0  0  0  0  0  0  0  0
    1.7065  -15.8069    3.2081 N   0  0  0  0  0  0  0  0  0  0  0  0
    0.4405  -15.3744    3.5827 C   0  0  0  0  0  0  0  0  0  0  0  0
   -0.0885  -14.2433    3.5745 N   0  0  0  0  0  0  0  0  0  0  0  0
    1.0207   -5.6116    2.4631 Cl  0  0  0  0  0  0  0  0  0  0  0  0
  5  6  1  0
  8 17  1  0
  1  2  2  0
 10 11  2  0
  9 10  1  0
  8  9  2  0
  1  8  1  0
  2  3  1  0
  3  4  2  0
  4  5  1  0
  5 12  2  0
 11 12  1  0
  2 11  1  0
  6  7  2  0
  7 13  1  0
 13 14  2  0
 14 15  1  0
 15 16  2  0
  6 16  1  0
M  END

$$$$
No_1526-/export/home/yangzhenyu/potential_scad_32_flow//YTHDC2/2024-12-06-03-22-00/
     RDKit          3D

 17 18  0  0  0  0  0  0  0  0999 V2000
    1.1787   -8.0297    3.5154 O   0  0  0  0  0  0  0  0  0  0  0  0
    0.9969   -8.9689    3.0048 C   0  0  0  0  0  0  0  0  0  0  0  0
    1.3055  -10.1056    3.6616 C   0  0  0  0  0  0  0  0  0  0  0  0
    1.3094  -11.3364    3.0826 C   0  0  0  0  0  0  0  0  0  0  0  0
    1.1303  -11.4110    1.7288 C   0  0  0  0  0  0  0  0  0  0  0  0
    1.0927  -10.3029    0.9439 C   0  0  0  0  0  0  0  0  0  0  0  0
    1.0434   -9.0638    1.5804 C   0  0  0  0  0  0  0  0  0  0  0  0
    0.9317   -7.6970    0.8671 C   0  0  0  0  0  0  0  0  0  0  0  0
    1.4896  -12.5737    3.7152 C   0  0  0  0  0  0  0  0  0  0  0  0
    1.8633  -13.5136    3.4693 C   0  0  0  0  0  0  0  0  0  0  0  0
    1.2712  -14.8248    3.5090 C   0  0  0  0  0  0  0  0  0  0  0  0
    1.8664  -16.0710    2.9069 C   0  0  0  0  0  0  0  0  0  0  0  0
    1.2785  -17.2237    3.0658 C   0  0  0  0  0  0  0  0  0  0  0  0
   -0.0059  -17.4472    3.4790 C   0  0  0  0  0  0  0  0  0  0  0  0
   -0.5557  -16.5492    4.0022 C   0  0  0  0  0  0  0  0  0  0  0  0
   -0.0888  -15.2141    4.0012 C   0  0  0  0  0  0  0  0  0  0  0  0
    1.0217   -7.8021   -0.3540 C   0  0  0  0  0  0  0  0  0  0  0  0
  1  2  1  0
  7  8  1  0
  4  9  1  0
  9 10  2  3
 10 11  1  0
  8 17  2  0
 11 12  2  0
 12 13  1  0
 13 14  2  0
 14 15  1  0
 15 16  2  0
 11 16  1  0
  2  3  2  0
  3  4  1  0
  4  5  2  0
  5  6  1  0
  6  7  2  0
  2  7  1  0
M  END

$$$$
No_1527-/export/home/yangzhenyu/potential_scad_32_flow//YTHDC2/2024-12-06-03-22-00/
     RDKit          3D

 18 20  0  0  0  0  0  0  0  0999 V2000
    1.1787   -8.0297    3.5154 C   0  0  0  0  0  0  0  0  0  0  0  0
    1.1048   -9.2215    3.2892 C   0  0  0  0  0  0  0  0  0  0  0  0
    1.3627  -10.1721    4.3044 C   0  0  0  0  0  0  0  0  0  0  0  0
    1.0682  -11.5187    4.0618 C   0  0  0  0  0  0  0  0  0  0  0  0
    0.6332  -11.9655    2.9682 C   0  0  0  0  0  0  0  0  0  0  0  0
    0.4776  -11.1308    1.9203 C   0  0  0  0  0  0  0  0  0  0  0  0
    0.7470   -9.8274    2.0368 C   0  0  0  0  0  0  0  0  0  0  0  0
    1.0387   -7.0301    2.5175 C   0  0  0  0  0  0  0  0  0  0  0  0
    0.9130   -7.5288    1.2013 C   0  0  0  0  0  0  0  0  0  0  0  0
    0.7893   -8.7979    0.9542 C   0  0  0  0  0  0  0  0  0  0  0  0
    0.5241   -9.2578   -0.2817 C   0  0  0  0  0  0  0  0  0  0  0  0
   -0.1121   -8.6523   -1.0898 O   0  0  0  0  0  0  0  0  0  0  0  0
    0.4916  -13.3676    2.6814 C   0  0  0  0  0  0  0  0  0  0  0  0
   -0.7278  -13.8133    2.2836 C   0  0  0  0  0  0  0  0  0  0  0  0
    1.4773  -14.3213    3.0011 C   0  0  0  0  0  0  0  0  0  0  0  0
    1.3167  -15.6265    2.8956 C   0  0  0  0  0  0  0  0  0  0  0  0
    0.1935  -16.1019    2.4019 C   0  0  0  0  0  0  0  0  0  0  0  0
   -0.8700  -15.1401    2.1076 C   0  0  0  0  0  0  0  0  0  0  0  0
 10 11  1  0
 11 12  2  0
  5 13  1  0
  2  3  1  0
  3  4  2  0
  4  5  1  0
  5  6  2  0
  6  7  1  0
 13 14  2  0
 14 18  1  0
 17 18  2  0
 16 17  1  0
 15 16  2  0
 13 15  1  0
  1  2  2  0
  2  7  1  0
  7 10  2  0
  9 10  1  0
  8  9  2  0
  1  8  1  0
M  END

$$$$
No_1528-/export/home/yangzhenyu/potential_scad_32_flow//YTHDC2/2024-12-06-03-22-00/
     RDKit          3D

 18 19  0  0  0  0  0  0  0  0999 V2000
    1.1787   -8.0297    3.5154 N   0  0  0  0  0  0  0  0  0  0  0  0
    1.0818   -9.0751    3.2053 C   0  0  0  0  0  0  0  0  0  0  0  0
    1.5216  -10.1164    3.9747 C   0  0  0  0  0  0  0  0  0  0  0  0
    1.4420  -11.4363    3.6461 C   0  0  0  0  0  0  0  0  0  0  0  0
    0.5969  -11.7648    2.6785 C   0  0  0  0  0  0  0  0  0  0  0  0
    0.0096  -10.8332    1.9506 C   0  0  0  0  0  0  0  0  0  0  0  0
    0.3359   -9.5186    2.1388 C   0  0  0  0  0  0  0  0  0  0  0  0
    1.1574   -6.9183    2.6875 C   0  0  0  0  0  0  0  0  0  0  0  0
    1.4080   -5.5928    3.0432 N   0  0  0  0  0  0  0  0  0  0  0  0
    1.1220   -7.1321    1.1895 O   0  0  0  0  0  0  0  0  0  0  0  0
    0.3364  -13.2238    2.4824 C   0  0  0  0  0  0  0  0  0  0  0  0
    0.5425  -13.8729    1.6583 C   0  0  0  0  0  0  0  0  0  0  0  0
    0.3399  -15.3386    1.6443 C   0  0  0  0  0  0  0  0  0  0  0  0
    0.0502  -15.8621    2.9987 C   0  0  0  0  0  0  0  0  0  0  0  0
   -0.0500  -15.0487    4.0382 C   0  0  0  0  0  0  0  0  0  0  0  0
    0.2825  -13.7598    3.9473 C   0  0  0  0  0  0  0  0  0  0  0  0
   -0.0833  -17.2901    3.0761 O   0  0  0  0  0  0  0  0  0  0  0  0
    0.9574  -18.0837    2.6970 C   0  0  0  0  0  0  0  0  0  0  0  0
  1  2  1  0
  1  8  2  3
  8  9  1  0
  8 10  1  0
  5 11  1  0
 14 17  1  0
 17 18  1  0
 11 12  2  0
 12 13  1  0
 13 14  2  0
 14 15  1  0
 15 16  2  0
 11 16  1  0
  2  3  2  0
  3  4  1  0
  4  5  2  0
  5  6  1  0
  6  7  2  0
  2  7  1  0
M  END

$$$$
No_1529-/export/home/yangzhenyu/potential_scad_32_flow//YTHDC2/2024-12-06-03-22-00/
     RDKit          3D

 19 19  0  0  1  0  0  0  0  0999 V2000
    1.1787   -8.0297    3.5154 C   0  0  0  0  0  0  0  0  0  0  0  0
    1.0491   -6.8434    2.9820 C   0  0  0  0  0  0  0  0  0  0  0  0
    0.9905   -9.0774    2.6527 C   0  0  0  0  0  0  0  0  0  0  0  0
    0.7897   -8.9519    1.3691 C   0  0  0  0  0  0  0  0  0  0  0  0
    0.7018   -7.7198    0.7892 C   0  0  0  0  0  0  0  0  0  0  0  0
    0.8918   -6.5957    1.6117 C   0  0  0  0  0  0  0  0  0  0  0  0
    1.0998  -10.4710    3.2437 C   0  0  0  0  0  0  0  0  0  0  0  0
    1.3102  -11.5554    2.5214 C   0  0  0  0  0  0  0  0  0  0  0  0
    1.4257  -12.8124    3.1919 C   0  0  0  0  0  0  0  0  0  0  0  0
    1.4301  -14.0627    2.4374 C   0  0  1  0  0  0  0  0  0  0  0  0
    0.8799   -5.2656    1.2046 C   0  0  0  0  0  0  0  0  0  0  0  0
    2.4117  -14.2020    1.4705 C   0  0  0  0  0  0  0  0  0  0  0  0
    0.1836   -4.2995    1.9920 C   0  0  0  0  0  0  0  0  0  0  0  0
    0.1586   -3.0867    1.5246 O   0  0  0  0  0  0  0  0  0  0  0  0
   -0.5968   -4.6371    2.9110 O   0  0  0  0  0  0  0  0  0  0  0  0
    1.6036  -15.2837    3.4040 C   0  0  0  0  0  0  0  0  0  0  0  0
    1.8503  -16.4857    2.6073 C   0  0  0  0  0  0  0  0  0  0  0  0
    1.3827  -17.5767    2.9012 O   0  0  0  0  0  0  0  0  0  0  0  0
    2.2171  -14.9591    0.6875 C   0  0  0  0  0  0  0  0  0  0  0  0
  3  7  1  0
  7  8  2  3
  8  9  1  0
 10  9  1  1
  6 11  1  0
 10 12  1  0
 11 13  1  0
 13 14  2  0
 13 15  1  0
 10 16  1  0
 16 17  1  0
 17 18  1  0
 12 19  2  0
  1  2  2  0
  2  6  1  0
  5  6  2  0
  4  5  1  0
  3  4  2  0
  1  3  1  0
M  END

$$$$
No_1530-/export/home/yangzhenyu/potential_scad_32_flow//YTHDC2/2024-12-06-03-22-00/
     RDKit          3D

 19 20  0  0  1  0  0  0  0  0999 V2000
    1.1787   -8.0297    3.5154 C   0  0  0  0  0  0  0  0  0  0  0  0
    1.1048   -9.2215    3.2892 C   0  0  0  0  0  0  0  0  0  0  0  0
    1.0239   -9.7790    2.0239 C   0  0  0  0  0  0  0  0  0  0  0  0
    1.1393   -9.0211    0.9686 C   0  0  0  0  0  0  0  0  0  0  0  0
    1.4051   -7.6500    1.1251 C   0  0  0  0  0  0  0  0  0  0  0  0
    1.4868   -7.1041    2.3534 C   0  0  0  0  0  0  0  0  0  0  0  0
    1.5562   -5.7208    2.5782 C   0  0  0  0  0  0  0  0  0  0  0  0
    0.8750  -11.2135    1.9117 C   0  0  2  0  0  0  0  0  0  0  0  0
    1.8912  -12.0349    2.0516 C   0  0  0  0  0  0  0  0  0  0  0  0
    1.7093  -13.3664    1.7484 C   0  0  0  0  0  0  0  0  0  0  0  0
    0.5990  -13.8394    1.2933 N   0  0  0  0  0  0  0  0  0  0  0  0
   -0.1190  -12.4245    1.2249 C   0  0  1  0  0  0  0  0  0  0  0  0
   -1.2863  -12.0264    0.8861 C   0  0  0  0  0  0  0  0  0  0  0  0
   -2.0412  -12.7343    0.7680 O   0  0  0  0  0  0  0  0  0  0  0  0
   -1.4289  -10.7401    0.2992 O   0  0  0  0  0  0  0  0  0  0  0  0
    1.2860   -4.7967    1.6432 C   0  0  0  0  0  0  0  0  0  0  0  0
    1.5940   -3.4600    1.7395 C   0  0  0  0  0  0  0  0  0  0  0  0
    2.1363   -3.0519    3.0048 C   0  0  0  0  0  0  0  0  0  0  0  0
    2.1812   -3.8607    4.0627 C   0  0  0  0  0  0  0  0  0  0  0  0
  6  7  1  0
  8  3  1  6
  8  9  1  0
  9 10  2  0
 10 11  1  0
  8 12  1  0
 11 12  1  0
 12 13  1  1
 13 14  2  0
 13 15  1  0
  7 16  1  0
 16 17  2  3
 17 18  1  0
 18 19  2  0
  1  2  2  0
  2  3  1  0
  3  4  2  0
  4  5  1  0
  5  6  2  0
  1  6  1  0
M  END

$$$$
No_1531-/export/home/yangzhenyu/potential_scad_32_flow//YTHDC2/2024-12-06-03-22-00/
     RDKit          3D

 18 18  0  0  1  0  0  0  0  0999 V2000
    1.1787   -8.0297    3.5154 C   0  0  0  0  0  0  0  0  0  0  0  0
    1.0491   -6.8434    2.9820 C   0  0  0  0  0  0  0  0  0  0  0  0
    0.0950   -8.8404    3.2292 C   0  0  0  0  0  0  0  0  0  0  0  0
    0.0602  -10.1764    3.8231 C   0  0  1  0  0  0  0  0  0  0  0  0
    0.2248   -6.3830    2.0648 C   0  0  0  0  0  0  0  0  0  0  0  0
   -0.6745   -7.2322    1.6857 C   0  0  0  0  0  0  0  0  0  0  0  0
   -0.7374   -8.4992    2.1291 C   0  0  0  0  0  0  0  0  0  0  0  0
    1.0517  -10.8728    4.0967 C   0  0  0  0  0  0  0  0  0  0  0  0
    1.5078  -11.7911    3.1561 C   0  0  0  0  0  0  0  0  0  0  0  0
    1.3125  -13.2001    3.4407 C   0  0  0  0  0  0  0  0  0  0  0  0
    1.7709  -14.2436    2.5187 C   0  0  0  0  0  0  0  0  0  0  0  0
    1.5443  -15.4896    2.8067 O   0  0  0  0  0  0  0  0  0  0  0  0
    0.3167   -5.1374    1.3785 Cl  0  0  0  0  0  0  0  0  0  0  0  0
    2.4499  -13.8564    1.5584 O   0  0  0  0  0  0  0  0  0  0  0  0
   -1.1243  -10.5682    4.3302 C   0  0  0  0  0  0  0  0  0  0  0  0
   -1.9987   -9.8055    5.1521 O   0  0  0  0  0  0  0  0  0  0  0  0
   -1.7820  -11.6572    3.9593 O   0  0  0  0  0  0  0  0  0  0  0  0
   -1.6421   -6.9190    0.6610 O   0  0  0  0  0  0  0  0  0  0  0  0
  3  4  1  0
  4  8  1  1
  8  9  1  0
  9 10  1  0
 10 11  1  0
 11 12  1  0
  5 13  1  0
 11 14  2  0
  4 15  1  0
 15 16  2  0
 15 17  1  0
  6 18  1  0
  1  2  2  0
  2  5  1  0
  5  6  2  0
  6  7  1  0
  3  7  2  0
  1  3  1  0
M  END

$$$$
No_1532-/export/home/yangzhenyu/potential_scad_32_flow//YTHDC2/2024-12-06-03-22-00/
     RDKit          3D

 18 19  0  0  0  0  0  0  0  0999 V2000
    1.1787   -8.0297    3.5154 C   0  0  0  0  0  0  0  0  0  0  0  0
    1.1048   -9.2215    3.2892 C   0  0  0  0  0  0  0  0  0  0  0  0
    1.2339   -9.7611    2.0189 C   0  0  0  0  0  0  0  0  0  0  0  0
    1.3583   -9.0036    0.9764 C   0  0  0  0  0  0  0  0  0  0  0  0
    1.5996   -7.6362    1.1311 C   0  0  0  0  0  0  0  0  0  0  0  0
    1.4830   -7.0928    2.3626 C   0  0  0  0  0  0  0  0  0  0  0  0
    1.4898   -5.7274    2.6199 C   0  0  0  0  0  0  0  0  0  0  0  0
    1.1681  -11.2222    1.8390 C   0  0  0  0  0  0  0  0  0  0  0  0
    0.5014  -11.9760    2.2068 C   0  0  0  0  0  0  0  0  0  0  0  0
    0.4167  -13.3685    2.0527 C   0  0  0  0  0  0  0  0  0  0  0  0
    1.5984  -14.1574    2.4634 C   0  0  0  0  0  0  0  0  0  0  0  0
    1.8090  -15.4261    2.0927 N   0  0  0  0  0  0  0  0  0  0  0  0
    0.9428  -16.0034    1.5286 C   0  0  0  0  0  0  0  0  0  0  0  0
   -0.2079  -15.5891    1.2234 C   0  0  0  0  0  0  0  0  0  0  0  0
   -0.4751  -14.1893    1.4801 C   0  0  0  0  0  0  0  0  0  0  0  0
    1.2513   -4.8473    1.6235 C   0  0  0  0  0  0  0  0  0  0  0  0
    1.1733   -3.3870    1.8611 C   0  0  0  0  0  0  0  0  0  0  0  0
   -1.6764  -13.6525    1.0409 C   0  0  0  0  0  0  0  0  0  0  0  0
  6  7  1  0
  3  8  1  0
  8  9  2  3
  9 10  1  0
  7 16  2  3
 16 17  1  0
 15 18  1  0
  1  2  2  0
  2  3  1  0
  3  4  2  0
  4  5  1  0
  5  6  2  0
  1  6  1  0
 10 11  2  0
 11 12  1  0
 12 13  2  0
 13 14  1  0
 14 15  2  0
 10 15  1  0
M  END

$$$$
No_1533-/export/home/yangzhenyu/potential_scad_32_flow//YTHDC2/2024-12-06-03-22-00/
     RDKit          3D

 19 20  0  0  0  0  0  0  0  0999 V2000
    1.1787   -8.0297    3.5154 C   0  0  0  0  0  0  0  0  0  0  0  0
    1.0491   -6.8434    2.9820 C   0  0  0  0  0  0  0  0  0  0  0  0
    0.0950   -8.8404    3.2292 C   0  0  0  0  0  0  0  0  0  0  0  0
   -0.9173   -8.4596    2.5152 C   0  0  0  0  0  0  0  0  0  0  0  0
   -1.0331   -7.2162    2.0653 C   0  0  0  0  0  0  0  0  0  0  0  0
   -0.0105   -6.3168    2.3081 C   0  0  0  0  0  0  0  0  0  0  0  0
    0.0485   -4.9783    1.8782 C   0  0  0  0  0  0  0  0  0  0  0  0
    0.9625   -4.1072    2.3252 N   0  0  0  0  0  0  0  0  0  0  0  0
   -0.8420   -4.3903    1.0303 N   0  0  0  0  0  0  0  0  0  0  0  0
    0.1908  -10.2865    3.6557 C   0  0  0  0  0  0  0  0  0  0  0  0
    1.2418  -10.9397    4.0873 C   0  0  0  0  0  0  0  0  0  0  0  0
    1.1690  -12.3263    4.0035 C   0  0  0  0  0  0  0  0  0  0  0  0
    0.0561  -12.9349    3.6606 C   0  0  0  0  0  0  0  0  0  0  0  0
   -0.9445  -12.3406    3.2039 C   0  0  0  0  0  0  0  0  0  0  0  0
   -0.9581  -10.9477    3.2151 C   0  0  0  0  0  0  0  0  0  0  0  0
   -1.6419   -4.9363    0.4793 C   0  0  0  0  0  0  0  0  0  0  0  0
   -1.5922   -5.3623   -0.8386 C   0  0  0  0  0  0  0  0  0  0  0  0
   -1.2254   -4.6445   -1.7110 C   0  0  0  0  0  0  0  0  0  0  0  0
    1.6693   -4.4087    2.9807 H   0  0  0  0  0  0  0  0  0  0  0  0
  6  7  1  0
  7  8  2  0
  7  9  1  0
  3 10  1  0
  9 16  1  0
 16 17  1  0
 17 18  1  0
  1  2  2  0
  2  6  1  0
  5  6  2  0
  4  5  1  0
  3  4  2  0
  1  3  1  0
 10 11  2  0
 11 12  1  0
 12 13  2  0
 13 14  1  0
 14 15  2  0
 10 15  1  0
  8 19  1  0
M  END

$$$$
No_1534-/export/home/yangzhenyu/potential_scad_32_flow//YTHDC2/2024-12-06-03-22-00/
     RDKit          3D

 19 21  0  0  0  0  0  0  0  0999 V2000
    1.1787   -8.0297    3.5154 C   0  0  0  0  0  0  0  0  0  0  0  0
    1.0491   -6.8434    2.9820 C   0  0  0  0  0  0  0  0  0  0  0  0
    0.9905   -9.0774    2.6527 C   0  0  0  0  0  0  0  0  0  0  0  0
    1.1655  -10.4663    3.1286 C   0  0  0  0  0  0  0  0  0  0  0  0
    1.2197  -11.4898    2.5831 C   0  0  0  0  0  0  0  0  0  0  0  0
    1.5411  -12.7330    3.1052 C   0  0  0  0  0  0  0  0  0  0  0  0
    0.9153   -6.2878    2.0417 C   0  0  0  0  0  0  0  0  0  0  0  0
    0.6620   -7.3309    0.9678 C   0  0  0  0  0  0  0  0  0  0  0  0
    0.7220   -8.7362    1.2745 C   0  0  0  0  0  0  0  0  0  0  0  0
    1.2983  -13.9739    2.3616 C   0  0  0  0  0  0  0  0  0  0  0  0
    1.0120  -14.1142    1.1580 C   0  0  0  0  0  0  0  0  0  0  0  0
    0.8628  -15.3175    0.6583 C   0  0  0  0  0  0  0  0  0  0  0  0
    0.8150  -16.3401    1.6624 C   0  0  0  0  0  0  0  0  0  0  0  0
    1.1779  -15.4477    2.9569 C   0  0  0  0  0  0  0  0  0  0  0  0
    0.8527   -5.0205    1.4407 Cl  0  0  0  0  0  0  0  0  0  0  0  0
    0.4952   -9.7270    0.2965 C   0  0  0  0  0  0  0  0  0  0  0  0
    0.9082  -11.1887    0.9492 C   0  0  0  0  0  0  0  0  0  0  0  0
    0.3136   -9.7180   -0.7700 C   0  0  0  0  0  0  0  0  0  0  0  0
    0.8715   -9.0111   -1.6896 O   0  0  0  0  0  0  0  0  0  0  0  0
  5  6  1  0
  6 10  1  0
 10 11  1  0
 11 12  2  0
 12 13  1  0
 10 14  1  0
 13 14  2  0
  7 15  1  0
 16 18  1  0
 18 19  2  0
  3  4  2  0
  4  5  1  0
  5 17  2  0
 16 17  1  0
  9 16  2  0
  1  2  2  0
  2  7  1  0
  7  8  2  0
  8  9  1  0
  3  9  1  0
  1  3  1  0
M  END

$$$$
No_1535-/export/home/yangzhenyu/potential_scad_32_flow//YTHDC2/2024-12-06-03-22-00/
     RDKit          3D

 18 19  0  0  1  0  0  0  0  0999 V2000
    1.1787   -8.0297    3.5154 C   0  0  0  0  0  0  0  0  0  0  0  0
    1.1048   -9.2215    3.2892 C   0  0  0  0  0  0  0  0  0  0  0  0
    1.3627  -10.1721    4.3044 C   0  0  0  0  0  0  0  0  0  0  0  0
    1.0682  -11.5187    4.0618 C   0  0  0  0  0  0  0  0  0  0  0  0
    0.6332  -11.9655    2.9682 C   0  0  0  0  0  0  0  0  0  0  0  0
    0.4776  -11.1308    1.9203 C   0  0  0  0  0  0  0  0  0  0  0  0
    0.7470   -9.8274    2.0368 C   0  0  0  0  0  0  0  0  0  0  0  0
    1.0387   -7.0301    2.5175 C   0  0  2  0  0  0  0  0  0  0  0  0
    0.9130   -7.5288    1.2013 C   0  0  0  0  0  0  0  0  0  0  0  0
    0.7893   -8.7979    0.9542 C   0  0  0  0  0  0  0  0  0  0  0  0
    0.5241   -9.2578   -0.2817 O   0  0  0  0  0  0  0  0  0  0  0  0
    0.4481  -13.3709    2.6894 C   0  0  0  0  0  0  0  0  0  0  0  0
    1.3172  -14.2958    3.0991 C   0  0  0  0  0  0  0  0  0  0  0  0
    1.4893  -15.5347    2.5224 C   0  0  2  0  0  0  0  0  0  0  0  0
    2.2443  -15.5612    1.4930 C   0  0  0  0  0  0  0  0  0  0  0  0
    3.1275  -14.4936    1.3043 C   0  0  0  0  0  0  0  0  0  0  0  0
    1.3066   -5.5985    2.6613 C   0  0  0  0  0  0  0  0  0  0  0  0
    0.7428  -16.5220    3.0454 C   0  0  0  0  0  0  0  0  0  0  0  0
  1  2  1  0
  8  9  1  0
  7 10  1  0
  9 10  1  0
 10 11  2  0
  5 12  1  0
 12 13  1  0
 13 14  1  0
 14 15  1  0
 15 16  1  0
  8 17  1  6
 14 18  1  6
  1  8  1  0
  2  3  2  0
  3  4  1  0
  4  5  2  0
  5  6  1  0
  6  7  2  0
  2  7  1  0
M  END

$$$$
No_1536-/export/home/yangzhenyu/potential_scad_32_flow//YTHDC2/2024-12-06-03-22-00/
     RDKit          3D

 18 19  0  0  1  0  0  0  0  0999 V2000
    1.1787   -8.0297    3.5154 C   0  0  0  0  0  0  0  0  0  0  0  0
    1.1048   -9.2215    3.2892 C   0  0  0  0  0  0  0  0  0  0  0  0
    1.2339   -9.7611    2.0189 C   0  0  0  0  0  0  0  0  0  0  0  0
    1.3583   -9.0036    0.9764 C   0  0  0  0  0  0  0  0  0  0  0  0
    1.5394   -7.6373    1.2201 C   0  0  0  0  0  0  0  0  0  0  0  0
    1.4604   -7.0971    2.3874 C   0  0  0  0  0  0  0  0  0  0  0  0
    1.1814   -5.7112    2.6047 C   0  0  1  0  0  0  0  0  0  0  0  0
    1.2115  -11.2307    1.8523 C   0  0  0  0  0  0  0  0  0  0  0  0
    0.5592  -11.9567    2.1762 C   0  0  0  0  0  0  0  0  0  0  0  0
    0.5442  -13.3872    1.9590 C   0  0  0  0  0  0  0  0  0  0  0  0
    1.7303  -14.0941    1.9259 C   0  0  0  0  0  0  0  0  0  0  0  0
    1.7392  -15.4896    1.8819 C   0  0  0  0  0  0  0  0  0  0  0  0
    0.6706  -16.1848    1.9595 C   0  0  0  0  0  0  0  0  0  0  0  0
   -0.5524  -15.5587    2.0785 C   0  0  0  0  0  0  0  0  0  0  0  0
   -0.6119  -14.1787    2.1586 C   0  0  0  0  0  0  0  0  0  0  0  0
    1.4429   -5.1902    3.7914 C   0  0  0  0  0  0  0  0  0  0  0  0
    0.8886   -4.9582    1.5348 C   0  0  0  0  0  0  0  0  0  0  0  0
    0.0338   -3.8766    1.7175 C   0  0  0  0  0  0  0  0  0  0  0  0
  6  7  1  0
  3  8  1  0
  8  9  2  3
  9 10  1  0
  7 16  1  6
  7 17  1  0
 17 18  1  0
  1  2  2  0
  2  3  1  0
  3  4  2  0
  4  5  1  0
  5  6  2  0
  1  6  1  0
 10 11  2  0
 11 12  1  0
 12 13  2  0
 13 14  1  0
 14 15  2  0
 10 15  1  0
M  END

$$$$
No_1537-/export/home/yangzhenyu/potential_scad_32_flow//YTHDC2/2024-12-06-03-22-00/
     RDKit          3D

 19 21  0  0  0  0  0  0  0  0999 V2000
    1.1787   -8.0297    3.5154 C   0  0  0  0  0  0  0  0  0  0  0  0
    1.1048   -9.2215    3.2892 C   0  0  0  0  0  0  0  0  0  0  0  0
    1.3627  -10.1721    4.3044 C   0  0  0  0  0  0  0  0  0  0  0  0
    1.0682  -11.5187    4.0618 C   0  0  0  0  0  0  0  0  0  0  0  0
    0.6332  -11.9655    2.9682 C   0  0  0  0  0  0  0  0  0  0  0  0
    0.4719  -13.4293    2.7591 C   0  0  0  0  0  0  0  0  0  0  0  0
    1.3208  -14.3288    3.3604 C   0  0  0  0  0  0  0  0  0  0  0  0
    1.0176   -7.1425    2.3239 C   0  0  0  0  0  0  0  0  0  0  0  0
    0.9624   -7.5765    1.1218 C   0  0  0  0  0  0  0  0  0  0  0  0
    1.1530   -8.8505    0.8360 C   0  0  0  0  0  0  0  0  0  0  0  0
    1.2132   -9.7894    1.9052 C   0  0  0  0  0  0  0  0  0  0  0  0
    1.1582  -15.7691    2.9286 C   0  0  0  0  0  0  0  0  0  0  0  0
    0.3614  -16.1230    2.0527 C   0  0  0  0  0  0  0  0  0  0  0  0
   -0.4033  -15.2416    1.4258 C   0  0  0  0  0  0  0  0  0  0  0  0
   -0.2755  -13.8602    1.6907 C   0  0  0  0  0  0  0  0  0  0  0  0
    0.8562  -11.1107    1.7960 N   0  0  0  0  0  0  0  0  0  0  0  0
    1.1221   -9.4987   -0.5466 C   0  0  0  0  0  0  0  0  0  0  0  0
    0.0558  -10.0792   -0.8673 O   0  0  0  0  0  0  0  0  0  0  0  0
    2.0444   -9.2832   -1.2581 Cl  0  0  0  0  0  0  0  0  0  0  0  0
  5  6  1  0
 10 17  1  0
 17 18  2  0
 17 19  1  0
  1  2  2  0
 10 11  2  0
  9 10  1  0
  8  9  2  0
  1  8  1  0
  2  3  1  0
  3  4  2  0
  4  5  1  0
  5 16  2  0
 11 16  1  0
  2 11  1  0
  6  7  2  0
  7 12  1  0
 12 13  2  0
 13 14  1  0
 14 15  2  0
  6 15  1  0
M  END

$$$$
No_1538-/export/home/yangzhenyu/potential_scad_32_flow//YTHDC2/2024-12-06-03-22-00/
     RDKit          3D

 18 18  0  0  0  0  0  0  0  0999 V2000
    1.1787   -8.0297    3.5154 C   0  0  0  0  0  0  0  0  0  0  0  0
    1.1048   -9.2215    3.2892 C   0  0  0  0  0  0  0  0  0  0  0  0
    1.2339   -9.7611    2.0189 C   0  0  0  0  0  0  0  0  0  0  0  0
    1.3583   -9.0036    0.9764 C   0  0  0  0  0  0  0  0  0  0  0  0
    1.5996   -7.6362    1.1311 C   0  0  0  0  0  0  0  0  0  0  0  0
    1.4830   -7.0928    2.3626 C   0  0  0  0  0  0  0  0  0  0  0  0
    1.1008  -11.2372    1.8542 C   0  0  0  0  0  0  0  0  0  0  0  0
    0.5178  -11.9759    2.3445 C   0  0  0  0  0  0  0  0  0  0  0  0
    0.4575  -13.3705    2.1281 C   0  0  0  0  0  0  0  0  0  0  0  0
    1.1632  -14.1013    2.0451 C   0  0  0  0  0  0  0  0  0  0  0  0
    2.4646  -13.5566    1.4445 C   0  0  0  0  0  0  0  0  0  0  0  0
    1.2467  -15.5603    2.2927 C   0  0  0  0  0  0  0  0  0  0  0  0
    2.3867  -16.3046    2.2488 O   0  0  0  0  0  0  0  0  0  0  0  0
    0.3239  -16.1189    3.1731 N   0  0  0  0  0  0  0  0  0  0  0  0
    1.5708   -5.4749    2.6769 Cl  0  0  0  0  0  0  0  0  0  0  0  0
    0.3839  -17.3997    3.7054 C   0  0  0  0  0  0  0  0  0  0  0  0
    0.7126  -17.2739    4.9912 C   0  0  0  0  0  0  0  0  0  0  0  0
    1.5447   -9.5044   -0.5342 C   0  0  0  0  0  0  0  0  0  0  0  0
  3  7  1  0
  7  8  2  3
  8  9  1  0
  9 10  2  3
 10 11  1  0
 10 12  1  0
 12 13  2  0
 12 14  1  0
  6 15  1  0
 14 16  1  0
 16 17  1  0
  4 18  1  0
  1  2  2  0
  2  3  1  0
  3  4  2  0
  4  5  1  0
  5  6  2  0
  1  6  1  0
M  END

$$$$
No_1539-/export/home/yangzhenyu/potential_scad_32_flow//YTHDC2/2024-12-06-03-22-00/
     RDKit          3D

 18 20  0  0  0  0  0  0  0  0999 V2000
    1.1787   -8.0297    3.5154 C   0  0  0  0  0  0  0  0  0  0  0  0
    1.1048   -9.2215    3.2892 C   0  0  0  0  0  0  0  0  0  0  0  0
    1.2339   -9.7611    2.0189 C   0  0  0  0  0  0  0  0  0  0  0  0
    1.3583   -9.0036    0.9764 C   0  0  0  0  0  0  0  0  0  0  0  0
    1.5996   -7.6362    1.1311 C   0  0  0  0  0  0  0  0  0  0  0  0
    1.4830   -7.0928    2.3626 C   0  0  0  0  0  0  0  0  0  0  0  0
    1.1008  -11.2372    1.8542 C   0  0  0  0  0  0  0  0  0  0  0  0
    1.9749  -12.0938    2.2342 C   0  0  0  0  0  0  0  0  0  0  0  0
    1.5180  -13.3509    2.5910 C   0  0  0  0  0  0  0  0  0  0  0  0
    0.4120  -13.9272    2.2191 C   0  0  0  0  0  0  0  0  0  0  0  0
   -0.5860  -13.0563    1.8308 C   0  0  0  0  0  0  0  0  0  0  0  0
   -0.2265  -11.7453    1.4928 C   0  0  0  0  0  0  0  0  0  0  0  0
    1.5759   -5.6593    2.6277 Cl  0  0  0  0  0  0  0  0  0  0  0  0
    0.0981  -15.2159    2.5396 C   0  0  0  0  0  0  0  0  0  0  0  0
    1.0246  -16.0196    3.2052 S   0  0  0  0  0  0  0  0  0  0  0  0
    0.1367  -17.4776    3.3914 C   0  0  0  0  0  0  0  0  0  0  0  0
   -1.0988  -17.0829    3.0451 C   0  0  0  0  0  0  0  0  0  0  0  0
   -1.1817  -15.8099    2.5565 N   0  0  0  0  0  0  0  0  0  0  0  0
  3  7  1  0
  6 13  1  0
 10 14  1  0
 14 15  1  0
 15 16  1  0
 16 17  2  0
 14 18  2  0
 17 18  1  0
  1  2  2  0
  2  3  1  0
  3  4  2  0
  4  5  1  0
  5  6  2  0
  1  6  1  0
  7  8  2  0
  8  9  1  0
  9 10  2  0
 10 11  1  0
 11 12  2  0
  7 12  1  0
M  END

$$$$
No_1540-/export/home/yangzhenyu/potential_scad_32_flow//YTHDC2/2024-12-06-03-22-00/
     RDKit          3D

 18 19  0  0  1  0  0  0  0  0999 V2000
    1.1787   -8.0297    3.5154 C   0  0  0  0  0  0  0  0  0  0  0  0
    1.0491   -6.8434    2.9820 C   0  0  0  0  0  0  0  0  0  0  0  0
    0.0950   -8.8404    3.2292 C   0  0  0  0  0  0  0  0  0  0  0  0
   -0.9173   -8.4596    2.5152 C   0  0  0  0  0  0  0  0  0  0  0  0
   -1.0331   -7.2162    2.0653 C   0  0  0  0  0  0  0  0  0  0  0  0
   -0.0105   -6.3168    2.3081 C   0  0  0  0  0  0  0  0  0  0  0  0
    0.0485   -4.9783    1.8782 C   0  0  0  0  0  0  0  0  0  0  0  0
   -0.6974   -4.6139    0.8644 C   0  0  0  0  0  0  0  0  0  0  0  0
   -0.9552   -3.3006    0.6322 C   0  0  0  0  0  0  0  0  0  0  0  0
   -0.0842   -2.3242    1.1750 C   0  0  0  0  0  0  0  0  0  0  0  0
    0.7666   -2.6097    2.0716 C   0  0  0  0  0  0  0  0  0  0  0  0
    0.8924   -3.9831    2.4474 C   0  0  0  0  0  0  0  0  0  0  0  0
    0.1695  -10.2599    3.7160 C   0  0  1  0  0  0  0  0  0  0  0  0
   -1.0180  -10.8831    4.0375 C   0  0  0  0  0  0  0  0  0  0  0  0
    1.2115  -11.1365    3.2200 C   0  0  0  0  0  0  0  0  0  0  0  0
    1.4530  -12.2164    3.9205 C   0  0  0  0  0  0  0  0  0  0  0  0
    1.4381  -13.3616    3.0929 C   0  0  0  0  0  0  0  0  0  0  0  0
    0.8248  -13.6095    2.1432 C   0  0  0  0  0  0  0  0  0  0  0  0
  6  7  1  0
  3 13  1  0
 13 14  1  6
 13 15  1  0
 15 16  1  0
 16 17  1  0
 17 18  2  0
  1  2  2  0
  2  6  1  0
  5  6  2  0
  4  5  1  0
  3  4  2  0
  1  3  1  0
  7  8  2  0
  8  9  1  0
  9 10  2  0
 10 11  1  0
 11 12  2  0
  7 12  1  0
M  END

$$$$
No_1541-/export/home/yangzhenyu/potential_scad_32_flow//YTHDC2/2024-12-06-03-22-00/
     RDKit          3D

 17 17  0  0  1  0  0  0  0  0999 V2000
    1.1787   -8.0297    3.5154 C   0  0  0  0  0  0  0  0  0  0  0  0
    1.0491   -6.8434    2.9820 C   0  0  0  0  0  0  0  0  0  0  0  0
    0.9905   -9.0774    2.6527 C   0  0  0  0  0  0  0  0  0  0  0  0
    0.7897   -8.9519    1.3691 C   0  0  0  0  0  0  0  0  0  0  0  0
    0.7018   -7.7198    0.7892 C   0  0  0  0  0  0  0  0  0  0  0  0
    0.8918   -6.5957    1.6117 C   0  0  0  0  0  0  0  0  0  0  0  0
    1.0998  -10.4710    3.2437 C   0  0  0  0  0  0  0  0  0  0  0  0
    1.3102  -11.5554    2.5214 C   0  0  0  0  0  0  0  0  0  0  0  0
    1.4257  -12.8124    3.1919 C   0  0  0  0  0  0  0  0  0  0  0  0
    1.4301  -14.0627    2.4374 C   0  0  1  0  0  0  0  0  0  0  0  0
    0.8588   -5.2558    1.2463 C   0  0  0  0  0  0  0  0  0  0  0  0
    2.4123  -14.2023    1.4711 C   0  0  0  0  0  0  0  0  0  0  0  0
    0.6670  -15.1061    2.7912 C   0  0  0  0  0  0  0  0  0  0  0  0
    0.1826   -4.2987    2.0150 O   0  0  0  0  0  0  0  0  0  0  0  0
    1.1657  -16.2970    2.8224 C   0  0  0  0  0  0  0  0  0  0  0  0
    2.3599  -16.5901    2.7608 O   0  0  0  0  0  0  0  0  0  0  0  0
    0.4662  -17.3815    3.1637 F   0  0  0  0  0  0  0  0  0  0  0  0
  3  7  1  0
  7  8  2  3
  8  9  1  0
  9 10  1  0
  6 11  1  0
 10 12  1  1
 10 13  1  0
 11 14  1  0
 13 15  1  0
 15 16  2  0
 15 17  1  0
  1  2  2  0
  2  6  1  0
  5  6  2  0
  4  5  1  0
  3  4  2  0
  1  3  1  0
M  END

$$$$
No_1542-/export/home/yangzhenyu/potential_scad_32_flow//YTHDC2/2024-12-06-03-22-00/
     RDKit          3D

 19 19  0  0  1  0  0  0  0  0999 V2000
    1.1787   -8.0297    3.5154 O   0  0  0  0  0  0  0  0  0  0  0  0
    0.9969   -8.9689    3.0048 C   0  0  0  0  0  0  0  0  0  0  0  0
    1.3055  -10.1056    3.6616 C   0  0  0  0  0  0  0  0  0  0  0  0
    1.5709  -11.1115    3.2016 C   0  0  0  0  0  0  0  0  0  0  0  0
    1.6332  -11.2629    1.7349 C   0  0  0  0  0  0  0  0  0  0  0  0
    1.4616  -10.1742    0.9691 C   0  0  0  0  0  0  0  0  0  0  0  0
    1.5237  -10.2393   -0.4558 C   0  0  0  0  0  0  0  0  0  0  0  0
    1.1177   -8.9457    1.6056 C   0  0  0  0  0  0  0  0  0  0  0  0
    0.8767   -7.7989    1.0001 C   0  0  0  0  0  0  0  0  0  0  0  0
    1.4712   -7.4594   -0.0954 O   0  0  0  0  0  0  0  0  0  0  0  0
   -0.1283   -7.0197    1.2348 O   0  0  0  0  0  0  0  0  0  0  0  0
    1.8819  -12.3913    3.8575 C   0  0  0  0  0  0  0  0  0  0  0  0
    0.7850  -13.3242    3.9922 O   0  0  0  0  0  0  0  0  0  0  0  0
    0.8827  -14.3005    2.8656 C   0  0  1  0  0  0  0  0  0  0  0  0
    2.0783  -14.8460    2.4956 C   0  0  0  0  0  0  0  0  0  0  0  0
   -0.2333  -14.7204    2.4693 C   0  0  0  0  0  0  0  0  0  0  0  0
   -1.3082  -14.0865    2.5044 O   0  0  0  0  0  0  0  0  0  0  0  0
   -0.2389  -15.9635    1.8817 N   0  0  0  0  0  0  0  0  0  0  0  0
    2.1592  -16.0414    1.9466 C   0  0  0  0  0  0  0  0  0  0  0  0
  1  2  1  0
  6  7  1  0
  8  9  1  0
  9 10  2  0
  9 11  1  0
  4 12  1  0
 12 13  1  0
 14 13  1  1
 14 15  1  0
 14 16  1  0
 16 17  2  0
 16 18  1  0
 15 19  2  0
  2  3  2  0
  3  4  1  0
  4  5  2  0
  5  6  1  0
  6  8  2  0
  2  8  1  0
M  END

$$$$
No_1543-/export/home/yangzhenyu/potential_scad_32_flow//YTHDC2/2024-12-06-03-22-00/
     RDKit          3D

 19 20  0  0  1  0  0  0  0  0999 V2000
    1.1787   -8.0297    3.5154 C   0  0  0  0  0  0  0  0  0  0  0  0
    1.0491   -6.8434    2.9820 C   0  0  0  0  0  0  0  0  0  0  0  0
    0.0950   -8.8404    3.2292 C   0  0  0  0  0  0  0  0  0  0  0  0
   -0.9173   -8.4596    2.5152 C   0  0  0  0  0  0  0  0  0  0  0  0
   -1.0331   -7.2162    2.0653 C   0  0  0  0  0  0  0  0  0  0  0  0
   -0.0105   -6.3168    2.3081 C   0  0  0  0  0  0  0  0  0  0  0  0
    0.1465  -10.2446    3.6981 C   0  0  0  0  0  0  0  0  0  0  0  0
    1.2433  -10.8239    4.0166 C   0  0  0  0  0  0  0  0  0  0  0  0
    1.1033  -12.2936    4.0346 C   0  0  0  0  0  0  0  0  0  0  0  0
    0.0220  -12.9035    3.7006 C   0  0  0  0  0  0  0  0  0  0  0  0
   -1.0373  -12.2681    3.2608 C   0  0  0  0  0  0  0  0  0  0  0  0
   -1.0058  -10.9076    3.2655 C   0  0  0  0  0  0  0  0  0  0  0  0
   -0.0949   -4.8269    1.7900 C   0  0  1  0  0  0  0  0  0  0  0  0
    0.7543   -3.9788    2.3527 C   0  0  0  0  0  0  0  0  0  0  0  0
    0.3358   -3.3128    3.5582 N   0  0  0  0  0  0  0  0  0  0  0  0
   -0.6531   -4.4610    0.7299 C   0  0  0  0  0  0  0  0  0  0  0  0
   -0.9840   -3.2280    0.5613 O   0  0  0  0  0  0  0  0  0  0  0  0
   -1.2868   -5.2876   -0.1500 O   0  0  0  0  0  0  0  0  0  0  0  0
    0.0840  -14.3105    3.7322 O   0  0  0  0  0  0  0  0  0  0  0  0
  3  7  1  0
  6 13  1  0
 13 14  1  6
 14 15  1  0
 13 16  1  0
 16 17  2  0
 16 18  1  0
 10 19  1  0
  1  2  2  0
  2  6  1  0
  5  6  2  0
  4  5  1  0
  3  4  2  0
  1  3  1  0
  7  8  2  0
  8  9  1  0
  9 10  2  0
 10 11  1  0
 11 12  2  0
  7 12  1  0
M  END

$$$$
No_1544-/export/home/yangzhenyu/potential_scad_32_flow//YTHDC2/2024-12-06-03-22-00/
     RDKit          3D

 18 19  0  0  0  0  0  0  0  0999 V2000
    1.1787   -8.0297    3.5154 C   0  0  0  0  0  0  0  0  0  0  0  0
    1.0491   -6.8434    2.9820 C   0  0  0  0  0  0  0  0  0  0  0  0
    0.0950   -8.8404    3.2292 C   0  0  0  0  0  0  0  0  0  0  0  0
   -0.9173   -8.4596    2.5152 C   0  0  0  0  0  0  0  0  0  0  0  0
   -1.0331   -7.2162    2.0653 C   0  0  0  0  0  0  0  0  0  0  0  0
   -0.0105   -6.3168    2.3081 C   0  0  0  0  0  0  0  0  0  0  0  0
    0.1465  -10.2446    3.6981 C   0  0  0  0  0  0  0  0  0  0  0  0
    1.2433  -10.8239    4.0166 C   0  0  0  0  0  0  0  0  0  0  0  0
    1.0790  -12.2885    4.3779 C   0  0  0  0  0  0  0  0  0  0  0  0
    0.0275  -12.8546    3.8829 C   0  0  0  0  0  0  0  0  0  0  0  0
   -0.9912  -12.3424    3.4171 C   0  0  0  0  0  0  0  0  0  0  0  0
   -1.0024  -10.9675    3.2748 C   0  0  0  0  0  0  0  0  0  0  0  0
   -0.1252   -5.0186    1.8241 C   0  0  0  0  0  0  0  0  0  0  0  0
   -0.5049   -4.7300    0.7005 C   0  0  0  0  0  0  0  0  0  0  0  0
   -1.2051   -5.3119    0.0737 C   0  0  0  0  0  0  0  0  0  0  0  0
   -0.2855   -3.3114    0.2103 C   0  0  0  0  0  0  0  0  0  0  0  0
   -0.7920   -2.8961   -0.9977 C   0  0  0  0  0  0  0  0  0  0  0  0
   -1.5746   -3.9767   -1.5679 C   0  0  0  0  0  0  0  0  0  0  0  0
  3  7  1  0
  6 13  1  0
 13 14  1  0
 14 15  2  0
 14 16  1  0
 16 17  2  3
 17 18  1  0
  1  2  2  0
  2  6  1  0
  5  6  2  0
  4  5  1  0
  3  4  2  0
  1  3  1  0
  7  8  2  0
  8  9  1  0
  9 10  2  0
 10 11  1  0
 11 12  2  0
  7 12  1  0
M  END

$$$$
No_1545-/export/home/yangzhenyu/potential_scad_32_flow//YTHDC2/2024-12-06-03-22-00/
     RDKit          3D

 19 20  0  0  0  0  0  0  0  0999 V2000
    1.1787   -8.0297    3.5154 C   0  0  0  0  0  0  0  0  0  0  0  0
    1.0491   -6.8434    2.9820 C   0  0  0  0  0  0  0  0  0  0  0  0
    0.0950   -8.8404    3.2292 C   0  0  0  0  0  0  0  0  0  0  0  0
   -0.9173   -8.4596    2.5152 C   0  0  0  0  0  0  0  0  0  0  0  0
   -0.8043   -7.0775    2.1508 C   0  0  0  0  0  0  0  0  0  0  0  0
    0.0928   -6.2803    2.3573 C   0  0  0  0  0  0  0  0  0  0  0  0
    0.2231   -4.9448    1.9326 C   0  0  0  0  0  0  0  0  0  0  0  0
   -0.3290   -4.5590    0.8179 C   0  0  0  0  0  0  0  0  0  0  0  0
   -0.3744   -3.2038    0.4234 C   0  0  0  0  0  0  0  0  0  0  0  0
    0.5207   -2.2803    1.0303 C   0  0  0  0  0  0  0  0  0  0  0  0
    1.3504   -2.6491    2.0187 C   0  0  0  0  0  0  0  0  0  0  0  0
    1.1672   -3.9910    2.5465 C   0  0  0  0  0  0  0  0  0  0  0  0
    0.1466  -10.2795    3.6746 S   0  0  0  0  0  0  0  0  0  0  0  0
   -1.1222  -10.6846    4.2598 O   0  0  0  0  0  0  0  0  0  0  0  0
    0.5000  -11.3269    2.6238 C   0  0  0  0  0  0  0  0  0  0  0  0
    0.7078  -11.0788    1.4669 C   0  0  0  0  0  0  0  0  0  0  0  0
    0.9724  -12.6340    3.1858 C   0  0  0  0  0  0  0  0  0  0  0  0
    1.3954  -12.9510    4.1241 C   0  0  0  0  0  0  0  0  0  0  0  0
    1.1587  -11.2792    0.4228 C   0  0  0  0  0  0  0  0  0  0  0  0
  6  7  1  0
 13  3  1  6
 13 14  2  0
 13 15  1  0
 15 16  2  3
 15 17  1  0
 17 18  2  0
 16 19  1  0
  1  2  2  0
  2  6  1  0
  5  6  2  0
  4  5  1  0
  3  4  2  0
  1  3  1  0
  7  8  2  0
  8  9  1  0
  9 10  2  0
 10 11  1  0
 11 12  2  0
  7 12  1  0
M  END

$$$$
No_1546-/export/home/yangzhenyu/potential_scad_32_flow//YTHDC2/2024-12-06-03-22-00/
     RDKit          3D

 19 19  0  0  1  0  0  0  0  0999 V2000
    1.1787   -8.0297    3.5154 C   0  0  0  0  0  0  0  0  0  0  0  0
    1.0491   -6.8434    2.9820 C   0  0  0  0  0  0  0  0  0  0  0  0
    0.9905   -9.0774    2.6527 C   0  0  0  0  0  0  0  0  0  0  0  0
    0.7897   -8.9519    1.3691 C   0  0  0  0  0  0  0  0  0  0  0  0
    0.6550  -10.0985    0.4848 C   0  0  0  0  0  0  0  0  0  0  0  0
    0.7849   -6.5836    1.6043 C   0  0  0  0  0  0  0  0  0  0  0  0
    0.6652   -7.6671    0.8008 C   0  0  0  0  0  0  0  0  0  0  0  0
    1.2441  -11.1828    0.5777 O   0  0  0  0  0  0  0  0  0  0  0  0
   -0.1744   -9.9646   -0.6150 N   0  0  0  0  0  0  0  0  0  0  0  0
    1.2260  -10.4366    3.2043 C   0  0  2  0  0  0  0  0  0  0  0  0
    0.1958  -11.2141    3.6880 C   0  0  0  0  0  0  0  0  0  0  0  0
    0.4122  -12.4588    3.9161 O   0  0  0  0  0  0  0  0  0  0  0  0
   -1.0203  -10.7450    3.8595 O   0  0  0  0  0  0  0  0  0  0  0  0
    0.7237   -5.3180    1.0262 Cl  0  0  0  0  0  0  0  0  0  0  0  0
    2.4903  -10.7895    3.5369 C   0  0  0  0  0  0  0  0  0  0  0  0
    2.8050  -10.6608    5.0790 O   0  0  0  0  0  0  0  0  0  0  0  0
   -0.8880   -8.7870   -0.9710 C   0  0  0  0  0  0  0  0  0  0  0  0
   -0.5845   -8.2943   -2.1844 C   0  0  0  0  0  0  0  0  0  0  0  0
   -1.4457   -7.2054   -2.5432 O   0  0  0  0  0  0  0  0  0  0  0  0
  4  5  1  0
  5  8  2  0
  5  9  1  0
  3 10  1  0
 10 11  1  0
 11 12  1  0
 11 13  2  0
  6 14  1  0
 10 15  1  1
 15 16  1  0
  9 17  1  0
 17 18  1  0
 18 19  1  0
  1  2  2  0
  2  6  1  0
  6  7  2  0
  4  7  1  0
  3  4  2  0
  1  3  1  0
M  END

$$$$
No_1547-/export/home/yangzhenyu/potential_scad_32_flow//YTHDC2/2024-12-06-03-22-00/
     RDKit          3D

 18 19  0  0  1  0  0  0  0  0999 V2000
    1.1787   -8.0297    3.5154 C   0  0  0  0  0  0  0  0  0  0  0  0
    1.0491   -6.8434    2.9820 C   0  0  0  0  0  0  0  0  0  0  0  0
    0.9905   -9.0774    2.6527 C   0  0  0  0  0  0  0  0  0  0  0  0
    0.7897   -8.9519    1.3691 C   0  0  0  0  0  0  0  0  0  0  0  0
    0.6550  -10.0985    0.4848 C   0  0  0  0  0  0  0  0  0  0  0  0
    0.7849   -6.5836    1.6043 C   0  0  0  0  0  0  0  0  0  0  0  0
    0.6652   -7.6671    0.8008 C   0  0  0  0  0  0  0  0  0  0  0  0
    1.2441  -11.1828    0.5777 N   0  0  0  0  0  0  0  0  0  0  0  0
    1.3466  -10.4619    3.0866 N   0  0  0  0  0  0  0  0  0  0  0  0
    1.4447  -11.4628    2.0727 C   0  0  0  0  0  0  0  0  0  0  0  0
    1.7148  -12.7172    2.5785 C   0  0  1  0  0  0  0  0  0  0  0  0
    1.9613  -13.7559    1.5411 O   0  0  0  0  0  0  0  0  0  0  0  0
    1.8458  -13.1351    3.6892 C   0  0  2  0  0  0  0  0  0  0  0  0
    0.6265   -5.2830    1.1153 C   0  0  0  0  0  0  0  0  0  0  0  0
   -0.5317   -4.8404    0.5535 O   0  0  0  0  0  0  0  0  0  0  0  0
    1.4575   -4.3081    1.4894 O   0  0  0  0  0  0  0  0  0  0  0  0
    1.8788  -14.6486    3.6481 F   0  0  0  0  0  0  0  0  0  0  0  0
    1.0116  -12.7524    4.5163 O   0  0  0  0  0  0  0  0  0  0  0  0
 10 11  1  0
 11 12  1  6
 11 13  1  0
  6 14  1  0
 14 15  2  0
 14 16  1  0
 13 17  1  0
 13 18  1  1
  4  5  2  0
  5  8  1  0
  8 10  2  0
  9 10  1  0
  3  9  2  0
  1  2  2  0
  2  6  1  0
  6  7  2  0
  4  7  1  0
  3  4  1  0
  1  3  1  0
M  END

$$$$
No_1548-/export/home/yangzhenyu/potential_scad_32_flow//YTHDC2/2024-12-06-03-22-00/
     RDKit          3D

 16 18  0  0  0  0  0  0  0  0999 V2000
    1.1787   -8.0297    3.5154 C   0  0  0  0  0  0  0  0  0  0  0  0
    1.0491   -6.8434    2.9820 C   0  0  0  0  0  0  0  0  0  0  0  0
    0.0950   -8.8404    3.2292 C   0  0  0  0  0  0  0  0  0  0  0  0
   -0.7663   -8.2602    2.4375 C   0  0  0  0  0  0  0  0  0  0  0  0
   -0.3589   -6.8665    2.1913 C   0  0  0  0  0  0  0  0  0  0  0  0
    0.1065  -10.2381    3.6126 C   0  0  0  0  0  0  0  0  0  0  0  0
   -1.1911  -10.7747    3.7647 C   0  0  0  0  0  0  0  0  0  0  0  0
   -2.2107  -10.1975    2.9844 C   0  0  0  0  0  0  0  0  0  0  0  0
   -2.0114   -8.8646    2.4814 C   0  0  0  0  0  0  0  0  0  0  0  0
   -3.4863  -10.6994    2.9380 C   0  0  0  0  0  0  0  0  0  0  0  0
   -4.4855  -10.1759    3.5060 C   0  0  0  0  0  0  0  0  0  0  0  0
   -5.7768  -10.7994    3.4859 C   0  0  0  0  0  0  0  0  0  0  0  0
   -5.8755  -11.9840    2.8160 C   0  0  0  0  0  0  0  0  0  0  0  0
   -4.8494  -12.6027    2.2278 C   0  0  0  0  0  0  0  0  0  0  0  0
   -3.5572  -11.9739    2.2767 C   0  0  0  0  0  0  0  0  0  0  0  0
   -0.8204   -5.8376    1.4862 C   0  0  0  0  0  0  0  0  0  0  0  0
  1  2  1  0
  2  5  2  0
  4  5  1  0
  8 10  1  0
  5 16  1  0
  1  3  1  0
 10 11  2  0
 11 12  1  0
 12 13  2  0
 13 14  1  0
 14 15  2  0
 10 15  1  0
  3  4  2  0
  4  9  1  0
  8  9  2  0
  7  8  1  0
  6  7  2  0
  3  6  1  0
M  END

$$$$
No_1549-/export/home/yangzhenyu/potential_scad_32_flow//YTHDC2/2024-12-06-03-22-00/
     RDKit          3D

 20 21  0  0  0  0  0  0  0  0999 V2000
    1.1787   -8.0297    3.5154 C   0  0  0  0  0  0  0  0  0  0  0  0
    1.0491   -6.8434    2.9820 C   0  0  0  0  0  0  0  0  0  0  0  0
    0.0950   -8.8404    3.2292 C   0  0  0  0  0  0  0  0  0  0  0  0
   -0.9173   -8.4596    2.5152 C   0  0  0  0  0  0  0  0  0  0  0  0
   -1.0331   -7.2162    2.0653 C   0  0  0  0  0  0  0  0  0  0  0  0
   -0.0105   -6.3168    2.3081 C   0  0  0  0  0  0  0  0  0  0  0  0
    0.1150   -4.9910    1.8495 C   0  0  0  0  0  0  0  0  0  0  0  0
   -0.1376   -4.7952    0.5550 O   0  0  0  0  0  0  0  0  0  0  0  0
    1.1204   -4.1243    2.3358 O   0  0  0  0  0  0  0  0  0  0  0  0
    0.1760  -10.4720    3.7297 C   0  0  0  0  0  0  0  0  0  0  0  0
    0.4814  -11.4404    2.8099 C   0  0  0  0  0  0  0  0  0  0  0  0
    0.4562  -11.2889    1.7212 C   0  0  0  0  0  0  0  0  0  0  0  0
    0.7982  -12.4423    0.8680 C   0  0  0  0  0  0  0  0  0  0  0  0
    1.1268  -13.6676    1.4762 C   0  0  0  0  0  0  0  0  0  0  0  0
    1.1419  -13.7474    2.9039 C   0  0  0  0  0  0  0  0  0  0  0  0
    0.8726  -12.6577    3.6569 C   0  0  0  0  0  0  0  0  0  0  0  0
    1.5157  -15.0173    3.5141 Cl  0  0  0  0  0  0  0  0  0  0  0  0
   -0.2101  -10.4708    5.0638 O   0  0  0  0  0  0  0  0  0  0  0  0
    1.4599  -14.6705    0.6571 C   0  0  0  0  0  0  0  0  0  0  0  0
    2.3521  -15.3581    0.5924 O   0  0  0  0  0  0  0  0  0  0  0  0
  6  7  1  0
  7  8  2  0
  7  9  1  0
  3 10  1  0
 10 11  1  0
 15 17  1  0
 10 18  2  0
 14 19  1  0
 19 20  2  0
 11 12  2  0
 12 13  1  0
 13 14  2  0
 14 15  1  0
 15 16  2  0
 11 16  1  0
  1  2  2  0
  2  6  1  0
  5  6  2  0
  4  5  1  0
  3  4  2  0
  1  3  1  0
M  END

$$$$
No_1550-/export/home/yangzhenyu/potential_scad_32_flow//YTHDC2/2024-12-06-03-22-00/
     RDKit          3D

 18 18  0  0  1  0  0  0  0  0999 V2000
    1.1787   -8.0297    3.5154 C   0  0  0  0  0  0  0  0  0  0  0  0
    1.0491   -6.8434    2.9820 C   0  0  0  0  0  0  0  0  0  0  0  0
    1.9985   -8.9840    2.8958 C   0  0  2  0  0  0  0  0  0  0  0  0
    1.7297   -9.2108    1.6335 C   0  0  0  0  0  0  0  0  0  0  0  0
    1.7343   -8.0566    0.8408 C   0  0  2  0  0  0  0  0  0  0  0  0
    1.0269   -6.8892    1.4456 C   0  0  0  0  0  0  0  0  0  0  0  0
    2.0740   -7.9416   -0.3682 C   0  0  0  0  0  0  0  0  0  0  0  0
    3.0714   -8.7358   -0.8759 C   0  0  0  0  0  0  0  0  0  0  0  0
    2.9993   -9.5731   -1.5107 O   0  0  0  0  0  0  0  0  0  0  0  0
    2.3728  -10.1583    3.6722 C   0  0  0  0  0  0  0  0  0  0  0  0
    3.4270  -10.3399    4.2286 C   0  0  0  0  0  0  0  0  0  0  0  0
    3.4916  -11.1624    5.3818 C   0  0  0  0  0  0  0  0  0  0  0  0
    1.4278  -11.2030    3.8247 C   0  0  0  0  0  0  0  0  0  0  0  0
    4.7336  -10.7771    6.1746 C   0  0  0  0  0  0  0  0  0  0  0  0
    4.3253   -8.2205   -0.8561 O   0  0  0  0  0  0  0  0  0  0  0  0
    0.0639  -11.1598    3.9503 O   0  0  0  0  0  0  0  0  0  0  0  0
    1.7725  -12.5406    3.4691 C   0  0  0  0  0  0  0  0  0  0  0  0
    0.9946  -13.3551    2.5730 C   0  0  0  0  0  0  0  0  0  0  0  0
  1  2  1  0
  1  3  1  0
  3  4  1  0
  4  5  1  0
  2  6  1  0
  5  6  1  0
  5  7  1  6
  7  8  1  0
  8  9  2  0
  3 10  1  1
 10 11  1  0
 11 12  1  0
 10 13  1  0
 12 14  1  0
  8 15  1  0
 13 16  2  0
 13 17  1  0
 17 18  1  0
M  END

$$$$
No_1551-/export/home/yangzhenyu/potential_scad_32_flow//YTHDC2/2024-12-06-03-22-00/
     RDKit          3D

 18 19  0  0  0  0  0  0  0  0999 V2000
    1.1787   -8.0297    3.5154 C   0  0  0  0  0  0  0  0  0  0  0  0
    1.1048   -9.2215    3.2892 C   0  0  0  0  0  0  0  0  0  0  0  0
    1.2339   -9.7611    2.0189 C   0  0  0  0  0  0  0  0  0  0  0  0
    1.3583   -9.0036    0.9764 C   0  0  0  0  0  0  0  0  0  0  0  0
    1.5996   -7.6362    1.1311 C   0  0  0  0  0  0  0  0  0  0  0  0
    1.4830   -7.0928    2.3626 C   0  0  0  0  0  0  0  0  0  0  0  0
    1.1171  -11.3311    1.8661 C   0  0  0  0  0  0  0  0  0  0  0  0
    1.9975  -12.1095    2.2478 C   0  0  0  0  0  0  0  0  0  0  0  0
    1.7697  -13.4418    1.9079 C   0  0  0  0  0  0  0  0  0  0  0  0
    0.8824  -13.8563    1.1154 C   0  0  0  0  0  0  0  0  0  0  0  0
   -0.0664  -12.9335    0.5986 C   0  0  0  0  0  0  0  0  0  0  0  0
    0.1158  -11.5559    0.9634 C   0  0  0  0  0  0  0  0  0  0  0  0
    1.5514   -5.6395    2.6394 C   0  0  0  0  0  0  0  0  0  0  0  0
   -0.8269  -10.6579    0.5192 Cl  0  0  0  0  0  0  0  0  0  0  0  0
    1.2067   -4.8009    1.6233 O   0  0  0  0  0  0  0  0  0  0  0  0
    1.5915   -5.0829    3.8335 O   0  0  0  0  0  0  0  0  0  0  0  0
    2.7822  -14.3908    2.4386 I   0  0  0  0  0  0  0  0  0  0  0  0
    1.6263   -9.3932   -0.3416 O   0  0  0  0  0  0  0  0  0  0  0  0
  3  7  1  0
  6 13  1  0
 12 14  1  0
 13 15  2  0
 13 16  1  0
  9 17  1  0
  4 18  1  0
  1  2  2  0
  2  3  1  0
  3  4  2  0
  4  5  1  0
  5  6  2  0
  1  6  1  0
  7  8  2  0
  8  9  1  0
  9 10  2  0
 10 11  1  0
 11 12  2  0
  7 12  1  0
M  END

$$$$
No_1552-/export/home/yangzhenyu/potential_scad_32_flow//YTHDC2/2024-12-06-03-22-00/
     RDKit          3D

 18 19  0  0  0  0  0  0  0  0999 V2000
    1.1787   -8.0297    3.5154 C   0  0  0  0  0  0  0  0  0  0  0  0
    1.0491   -6.8434    2.9820 C   0  0  0  0  0  0  0  0  0  0  0  0
    0.0950   -8.8404    3.2292 C   0  0  0  0  0  0  0  0  0  0  0  0
   -0.9173   -8.4596    2.5152 C   0  0  0  0  0  0  0  0  0  0  0  0
   -1.0331   -7.2162    2.0653 C   0  0  0  0  0  0  0  0  0  0  0  0
   -0.0105   -6.3168    2.3081 C   0  0  0  0  0  0  0  0  0  0  0  0
    0.1150   -4.9910    1.8495 C   0  0  0  0  0  0  0  0  0  0  0  0
   -0.1376   -4.7952    0.5550 C   0  0  0  0  0  0  0  0  0  0  0  0
   -0.9836   -3.7108    0.4454 C   0  0  0  0  0  0  0  0  0  0  0  0
   -1.0222   -2.6675    1.3784 C   0  0  0  0  0  0  0  0  0  0  0  0
   -0.6087   -2.9661    2.5968 C   0  0  0  0  0  0  0  0  0  0  0  0
   -0.0766   -4.1432    2.9551 C   0  0  0  0  0  0  0  0  0  0  0  0
    0.1179  -10.3960    3.8404 Br  0  0  0  0  0  0  0  0  0  0  0  0
   -1.2835   -3.2548   -0.9977 Br  0  0  0  0  0  0  0  0  0  0  0  0
   -2.0876   -9.2731    2.4070 O   0  0  0  0  0  0  0  0  0  0  0  0
   -3.1351   -9.0681    3.1436 C   0  0  0  0  0  0  0  0  0  0  0  0
   -3.2889   -9.7511    4.0938 C   0  0  0  0  0  0  0  0  0  0  0  0
   -3.2260   -9.4113    5.4705 C   0  0  0  0  0  0  0  0  0  0  0  0
  6  7  1  0
  3 13  1  0
  9 14  1  0
  4 15  1  0
 15 16  1  0
 16 17  1  0
 17 18  1  0
  1  2  2  0
  2  6  1  0
  5  6  2  0
  4  5  1  0
  3  4  2  0
  1  3  1  0
  7  8  2  0
  8  9  1  0
  9 10  2  0
 10 11  1  0
 11 12  2  0
  7 12  1  0
M  END

$$$$
No_1553-/export/home/yangzhenyu/potential_scad_32_flow//YTHDC2/2024-12-06-03-22-00/
     RDKit          3D

 19 21  0  0  0  0  0  0  0  0999 V2000
    1.1787   -8.0297    3.5154 C   0  0  0  0  0  0  0  0  0  0  0  0
    1.0491   -6.8434    2.9820 C   0  0  0  0  0  0  0  0  0  0  0  0
    0.0950   -8.8404    3.2292 C   0  0  0  0  0  0  0  0  0  0  0  0
   -0.7663   -8.2602    2.4375 C   0  0  0  0  0  0  0  0  0  0  0  0
   -0.3589   -6.8665    2.1913 C   0  0  0  0  0  0  0  0  0  0  0  0
    0.1246  -10.2854    3.6319 C   0  0  0  0  0  0  0  0  0  0  0  0
    1.1137  -10.8956    4.0517 C   0  0  0  0  0  0  0  0  0  0  0  0
    1.0040  -12.3107    4.3315 N   0  0  0  0  0  0  0  0  0  0  0  0
   -0.1077  -12.7036    3.7610 N   0  0  0  0  0  0  0  0  0  0  0  0
   -0.8147  -11.3519    3.3892 C   0  0  0  0  0  0  0  0  0  0  0  0
   -0.9141   -5.7477    1.5819 C   0  0  0  0  0  0  0  0  0  0  0  0
   -1.6430   -6.0633    0.4819 C   0  0  0  0  0  0  0  0  0  0  0  0
   -2.6373   -5.2083    0.2340 C   0  0  0  0  0  0  0  0  0  0  0  0
   -2.6064   -3.9030    0.8555 C   0  0  0  0  0  0  0  0  0  0  0  0
   -1.8178   -3.6560    1.9480 C   0  0  0  0  0  0  0  0  0  0  0  0
   -0.8592   -4.5616    2.2182 C   0  0  0  0  0  0  0  0  0  0  0  0
    0.0714   -4.2018    3.1934 C   0  0  0  0  0  0  0  0  0  0  0  0
    0.3651   -2.8885    3.3875 C   0  0  0  0  0  0  0  0  0  0  0  0
   -2.0218  -11.2416    2.9505 C   0  0  0  0  0  0  0  0  0  0  0  0
  1  2  1  0
  1  3  2  0
  3  4  1  0
  2  5  2  0
  4  5  1  0
  3  6  1  0
  6  7  2  0
  7  8  1  0
  8  9  2  0
  6 10  1  0
  9 10  1  0
  5 11  1  0
 16 17  1  0
 17 18  2  0
 10 19  1  0
 11 12  2  0
 12 13  1  0
 13 14  2  0
 14 15  1  0
 15 16  2  0
 11 16  1  0
M  END

$$$$
No_1554-/export/home/yangzhenyu/potential_scad_32_flow//YTHDC2/2024-12-06-03-22-00/
     RDKit          3D

 19 20  0  0  0  0  0  0  0  0999 V2000
    1.1787   -8.0297    3.5154 C   0  0  0  0  0  0  0  0  0  0  0  0
    1.0491   -6.8434    2.9820 C   0  0  0  0  0  0  0  0  0  0  0  0
    0.0950   -8.8404    3.2292 C   0  0  0  0  0  0  0  0  0  0  0  0
   -0.9173   -8.4596    2.5152 C   0  0  0  0  0  0  0  0  0  0  0  0
   -1.0331   -7.2162    2.0653 C   0  0  0  0  0  0  0  0  0  0  0  0
   -2.2155   -6.7621    1.5011 C   0  0  0  0  0  0  0  0  0  0  0  0
    0.0919   -6.3006    2.2576 C   0  0  0  0  0  0  0  0  0  0  0  0
   -2.4371   -7.0823    0.2852 N   0  0  0  0  0  0  0  0  0  0  0  0
    0.2001  -10.2827    3.7404 C   0  0  0  0  0  0  0  0  0  0  0  0
    1.3061  -10.8778    4.0175 C   0  0  0  0  0  0  0  0  0  0  0  0
    1.1989  -12.2968    4.3731 O   0  0  0  0  0  0  0  0  0  0  0  0
   -1.8023   -7.8708   -0.3273 C   0  0  0  0  0  0  0  0  0  0  0  0
   -2.2012   -8.1703   -1.6142 C   0  0  0  0  0  0  0  0  0  0  0  0
   -3.1639   -7.3986   -1.9621 C   0  0  0  0  0  0  0  0  0  0  0  0
   -3.3974   -6.6748   -0.6360 C   0  0  0  0  0  0  0  0  0  0  0  0
    2.4687  -10.3864    4.4280 N   0  0  0  0  0  0  0  0  0  0  0  0
   -1.5600   -9.0774   -2.6298 C   0  0  0  0  0  0  0  0  0  0  0  0
   -0.6953   -8.7901   -3.5252 C   0  0  0  0  0  0  0  0  0  0  0  0
   -0.4988   -9.7964   -4.4875 O   0  0  0  0  0  0  0  0  0  0  0  0
  5  6  1  0
  6  8  1  0
  3  9  1  0
  9 10  2  3
 10 11  1  0
  8 12  1  0
 12 13  2  0
 13 14  1  0
  8 15  1  0
 14 15  1  0
 10 16  1  0
 13 17  1  0
 17 18  1  0
 18 19  2  0
  1  2  2  0
  2  7  1  0
  5  7  2  0
  4  5  1  0
  3  4  2  0
  1  3  1  0
M  END

$$$$
No_1555-/export/home/yangzhenyu/potential_scad_32_flow//YTHDC2/2024-12-06-03-22-00/
     RDKit          3D

 18 18  0  0  1  0  0  0  0  0999 V2000
    1.1787   -8.0297    3.5154 C   0  0  0  0  0  0  0  0  0  0  0  0
    1.1048   -9.2215    3.2892 C   0  0  0  0  0  0  0  0  0  0  0  0
    1.2339   -9.7611    2.0189 C   0  0  0  0  0  0  0  0  0  0  0  0
    1.3583   -9.0036    0.9764 C   0  0  0  0  0  0  0  0  0  0  0  0
    1.5996   -7.6362    1.1311 C   0  0  0  0  0  0  0  0  0  0  0  0
    1.4830   -7.0928    2.3626 C   0  0  0  0  0  0  0  0  0  0  0  0
    1.4898   -5.7274    2.6199 C   0  0  0  0  0  0  0  0  0  0  0  0
    1.1681  -11.2222    1.8390 C   0  0  1  0  0  0  0  0  0  0  0  0
    0.7145  -11.5870    0.5424 O   0  0  0  0  0  0  0  0  0  0  0  0
    1.6081  -12.0518    2.6142 C   0  0  1  0  0  0  0  0  0  0  0  0
    1.6003  -13.4586    2.1291 Cl  0  0  0  0  0  0  0  0  0  0  0  0
    2.6897  -11.6954    3.2986 C   0  0  0  0  0  0  0  0  0  0  0  0
    1.2321   -4.8658    1.6269 O   0  0  0  0  0  0  0  0  0  0  0  0
    1.4785   -5.1628    3.8807 Cl  0  0  0  0  0  0  0  0  0  0  0  0
    2.5385  -11.9132    4.7649 O   0  0  0  0  0  0  0  0  0  0  0  0
    1.6214   -9.4491   -0.4994 C   0  0  2  0  0  0  0  0  0  0  0  0
    2.6948   -9.8165   -0.7572 Cl  0  0  0  0  0  0  0  0  0  0  0  0
    0.5855   -9.1656   -1.2458 C   0  0  0  0  0  0  0  0  0  0  0  0
  6  7  1  0
  3  8  1  0
  8  9  1  6
  8 10  1  0
 10 11  1  6
 10 12  1  0
  7 13  2  0
  7 14  1  0
 12 15  1  0
  4 16  1  0
 16 17  1  0
 16 18  1  6
  1  2  2  0
  2  3  1  0
  3  4  2  0
  4  5  1  0
  5  6  2  0
  1  6  1  0
M  END

$$$$
No_1556-/export/home/yangzhenyu/potential_scad_32_flow//YTHDC2/2024-12-06-03-22-00/
     RDKit          3D

 19 21  0  0  0  0  0  0  0  0999 V2000
    1.1787   -8.0297    3.5154 C   0  0  0  0  0  0  0  0  0  0  0  0
    1.1048   -9.2215    3.2892 C   0  0  0  0  0  0  0  0  0  0  0  0
    1.3627  -10.1721    4.3044 C   0  0  0  0  0  0  0  0  0  0  0  0
    1.0682  -11.5187    4.0618 C   0  0  0  0  0  0  0  0  0  0  0  0
    0.7653  -11.7320    2.7387 C   0  0  0  0  0  0  0  0  0  0  0  0
    0.5661  -10.9730    1.8367 N   0  0  0  0  0  0  0  0  0  0  0  0
    0.7883   -9.7145    2.0329 C   0  0  0  0  0  0  0  0  0  0  0  0
    0.4278   -7.1005    2.7718 C   0  0  0  0  0  0  0  0  0  0  0  0
    0.5101   -5.6068    2.9195 C   0  0  0  0  0  0  0  0  0  0  0  0
   -0.3693   -4.7976    2.5221 C   0  0  0  0  0  0  0  0  0  0  0  0
   -1.3943   -5.4436    1.7570 C   0  0  0  0  0  0  0  0  0  0  0  0
   -1.6053   -6.6953    1.6333 C   0  0  0  0  0  0  0  0  0  0  0  0
   -0.5979   -7.5567    2.0290 C   0  0  0  0  0  0  0  0  0  0  0  0
    0.4797  -13.2049    2.4246 C   0  0  0  0  0  0  0  0  0  0  0  0
    1.4317  -14.2081    2.8935 C   0  0  0  0  0  0  0  0  0  0  0  0
    1.1005  -15.5345    2.6433 C   0  0  0  0  0  0  0  0  0  0  0  0
    0.1285  -15.8863    1.9975 C   0  0  0  0  0  0  0  0  0  0  0  0
   -0.7470  -14.9842    1.4165 C   0  0  0  0  0  0  0  0  0  0  0  0
   -0.4817  -13.5615    1.6942 C   0  0  0  0  0  0  0  0  0  0  0  0
  1  2  1  0
  5 14  1  0
  1  8  1  0
  2  3  2  0
  3  4  1  0
  4  5  2  0
  5  6  1  0
  6  7  2  0
  2  7  1  0
  8  9  2  0
  9 10  1  0
 10 11  2  0
 11 12  1  0
 12 13  2  0
  8 13  1  0
 14 15  2  0
 15 16  1  0
 16 17  2  0
 17 18  1  0
 18 19  2  0
 14 19  1  0
M  END

$$$$
No_1557-/export/home/yangzhenyu/potential_scad_32_flow//YTHDC2/2024-12-06-03-22-00/
     RDKit          3D

 17 17  0  0  0  0  0  0  0  0999 V2000
    1.1787   -8.0297    3.5154 C   0  0  0  0  0  0  0  0  0  0  0  0
    1.0491   -6.8434    2.9820 C   0  0  0  0  0  0  0  0  0  0  0  0
    1.9985   -8.9840    2.8958 C   0  0  0  0  0  0  0  0  0  0  0  0
    1.9135  -10.3404    3.6266 C   0  0  0  0  0  0  0  0  0  0  0  0
    0.7479  -10.9191    3.7202 C   0  0  0  0  0  0  0  0  0  0  0  0
    0.2782   -6.7158    1.8352 C   0  0  0  0  0  0  0  0  0  0  0  0
    0.0493   -5.5581    1.3972 O   0  0  0  0  0  0  0  0  0  0  0  0
   -0.2323   -7.7198    1.3502 O   0  0  0  0  0  0  0  0  0  0  0  0
   -0.2432  -10.3841    3.7046 C   0  0  0  0  0  0  0  0  0  0  0  0
   -0.1670   -8.8102    3.6493 C   0  0  0  0  0  0  0  0  0  0  0  0
    0.8590  -12.2764    3.7913 C   0  0  0  0  0  0  0  0  0  0  0  0
    1.9150  -13.0623    3.5510 N   0  0  0  0  0  0  0  0  0  0  0  0
    1.8947  -14.1069    2.5689 C   0  0  0  0  0  0  0  0  0  0  0  0
    2.8741  -15.0356    2.4454 O   0  0  0  0  0  0  0  0  0  0  0  0
    0.9711  -14.1668    1.4897 C   0  0  0  0  0  0  0  0  0  0  0  0
    1.1297  -13.1707    0.5404 C   0  0  0  0  0  0  0  0  0  0  0  0
    1.9648  -12.0792    0.6956 C   0  0  0  0  0  0  0  0  0  0  0  0
  1  2  1  0
  1  3  1  0
  3  4  1  0
  4  5  1  0
  2  6  1  0
  6  7  2  0
  6  8  1  0
  5  9  1  0
  1 10  1  0
  9 10  1  0
  5 11  1  0
 11 12  1  0
 12 13  1  0
 13 14  2  0
 13 15  1  0
 15 16  1  0
 16 17  1  0
M  END

$$$$
No_1558-/export/home/yangzhenyu/potential_scad_32_flow//YTHDC2/2024-12-06-03-22-00/
     RDKit          3D

 20 22  0  0  0  0  0  0  0  0999 V2000
    1.1787   -8.0297    3.5154 N   0  0  0  0  0  0  0  0  0  0  0  0
    1.0818   -9.0751    3.2053 C   0  0  0  0  0  0  0  0  0  0  0  0
    0.7576   -9.3725    1.9159 C   0  0  0  0  0  0  0  0  0  0  0  0
    0.8823   -8.4917    1.0547 N   0  0  0  0  0  0  0  0  0  0  0  0
    1.3895   -7.3352    1.8925 C   0  0  0  0  0  0  0  0  0  0  0  0
    1.4492   -6.1136    1.7561 N   0  0  0  0  0  0  0  0  0  0  0  0
    0.9904  -10.1697    4.2164 C   0  0  0  0  0  0  0  0  0  0  0  0
   -0.2731  -10.9516    4.3229 C   0  0  0  0  0  0  0  0  0  0  0  0
   -0.6420  -11.3060    3.0094 C   0  0  0  0  0  0  0  0  0  0  0  0
   -0.1666  -10.6606    1.8429 C   0  0  0  0  0  0  0  0  0  0  0  0
    1.5603   -5.1506    2.5278 C   0  0  0  0  0  0  0  0  0  0  0  0
    0.8118   -8.3731   -0.2699 C   0  0  0  0  0  0  0  0  0  0  0  0
   -0.5785   -8.6411   -0.7445 O   0  0  0  0  0  0  0  0  0  0  0  0
    1.7340   -8.5485   -1.1096 C   0  0  0  0  0  0  0  0  0  0  0  0
    1.1930   -3.8181    2.0510 C   0  0  0  0  0  0  0  0  0  0  0  0
    0.6439   -3.7763    0.9391 C   0  0  0  0  0  0  0  0  0  0  0  0
    0.6290   -2.5750    0.2290 C   0  0  0  0  0  0  0  0  0  0  0  0
    1.0047   -1.4356    0.8008 C   0  0  0  0  0  0  0  0  0  0  0  0
    1.5256   -1.4584    2.0420 C   0  0  0  0  0  0  0  0  0  0  0  0
    1.6526   -2.6539    2.6989 C   0  0  0  0  0  0  0  0  0  0  0  0
  1  2  1  0
  3  4  1  0
  1  5  1  0
  4  5  1  0
  5  6  2  3
  6 11  1  0
  4 12  1  0
 12 13  2  0
 12 14  1  0
 11 15  1  0
 15 16  2  0
 16 17  1  0
 17 18  2  0
 18 19  1  0
 19 20  2  0
 15 20  1  0
  2  3  2  0
  3 10  1  0
  9 10  2  0
  8  9  1  0
  7  8  2  0
  2  7  1  0
M  END

$$$$
No_1559-/export/home/yangzhenyu/potential_scad_32_flow//YTHDC2/2024-12-06-03-22-00/
     RDKit          3D

 21 21  0  0  1  0  0  0  0  0999 V2000
    1.1787   -8.0297    3.5154 C   0  0  0  0  0  0  0  0  0  0  0  0
    1.1048   -9.2215    3.2892 C   0  0  0  0  0  0  0  0  0  0  0  0
    1.2339   -9.7611    2.0189 C   0  0  0  0  0  0  0  0  0  0  0  0
    1.3583   -9.0036    0.9764 C   0  0  0  0  0  0  0  0  0  0  0  0
    1.5996   -7.6362    1.1311 C   0  0  0  0  0  0  0  0  0  0  0  0
    1.4830   -7.0928    2.3626 C   0  0  0  0  0  0  0  0  0  0  0  0
    1.5395   -5.7300    2.6182 C   0  0  0  0  0  0  0  0  0  0  0  0
    1.1775  -11.2233    1.8407 C   0  0  0  0  0  0  0  0  0  0  0  0
    0.5085  -11.9762    2.1989 C   0  0  0  0  0  0  0  0  0  0  0  0
    0.4247  -13.3704    2.0465 C   0  0  0  0  0  0  0  0  0  0  0  0
    1.6054  -14.1557    2.4664 C   0  0  0  0  0  0  0  0  0  0  0  0
    1.8180  -15.4260    2.0939 C   0  0  1  0  0  0  0  0  0  0  0  0
    3.0186  -15.8296    1.7222 C   0  0  0  0  0  0  0  0  0  0  0  0
    1.0869  -16.5272    2.8698 C   0  0  1  0  0  0  0  0  0  0  0  0
    1.2976   -4.7972    1.6893 O   0  0  0  0  0  0  0  0  0  0  0  0
    1.7995   -5.1551    3.8257 O   0  0  0  0  0  0  0  0  0  0  0  0
    0.4425  -16.1824    3.9077 C   0  0  0  0  0  0  0  0  0  0  0  0
    1.1202  -17.6993    2.3588 C   0  0  0  0  0  0  0  0  0  0  0  0
    1.6158  -18.6040    3.1383 C   0  0  0  0  0  0  0  0  0  0  0  0
    2.3053  -19.7397    2.7307 O   0  0  0  0  0  0  0  0  0  0  0  0
    1.1463  -18.7634    4.3263 O   0  0  0  0  0  0  0  0  0  0  0  0
  6  7  1  0
  3  8  1  0
  8  9  2  3
  9 10  1  0
 10 11  1  0
 11 12  1  0
 12 13  1  1
 12 14  1  0
  7 15  2  0
  7 16  1  0
 14 17  1  6
 14 18  1  0
 18 19  1  0
 19 20  2  0
 19 21  1  0
  1  2  2  0
  2  3  1  0
  3  4  2  0
  4  5  1  0
  5  6  2  0
  1  6  1  0
M  END

$$$$
No_1560-/export/home/yangzhenyu/potential_scad_32_flow//YTHDC2/2024-12-06-03-22-00/
     RDKit          3D

 17 18  0  0  1  0  0  0  0  0999 V2000
    1.1787   -8.0297    3.5154 N   0  0  0  0  0  0  0  0  0  0  0  0
    1.0818   -9.0751    3.2053 C   0  0  0  0  0  0  0  0  0  0  0  0
    0.7576   -9.3725    1.9159 C   0  0  0  0  0  0  0  0  0  0  0  0
    0.7445  -10.8746    1.6491 C   0  0  0  0  0  0  0  0  0  0  0  0
    0.9910  -11.7526    2.6067 C   0  0  0  0  0  0  0  0  0  0  0  0
    1.4405  -11.4331    3.8064 C   0  0  0  0  0  0  0  0  0  0  0  0
    1.4304  -10.0463    4.1669 C   0  0  0  0  0  0  0  0  0  0  0  0
    1.1357   -6.7948    2.7839 C   0  0  0  0  0  0  0  0  0  0  0  0
    1.2086   -5.5150    3.2459 O   0  0  0  0  0  0  0  0  0  0  0  0
    1.2557   -6.8362    1.3359 N   0  0  0  0  0  0  0  0  0  0  0  0
    0.9524  -13.1907    2.2734 C   0  0  1  0  0  0  0  0  0  0  0  0
    1.9634  -13.9312    2.2207 C   0  0  0  0  0  0  0  0  0  0  0  0
    1.7190  -15.3385    2.3096 C   0  0  0  0  0  0  0  0  0  0  0  0
    0.5481  -15.8517    2.4864 C   0  0  0  0  0  0  0  0  0  0  0  0
   -0.5400  -15.0417    2.7660 C   0  0  0  0  0  0  0  0  0  0  0  0
   -0.3728  -13.6849    2.6844 C   0  0  0  0  0  0  0  0  0  0  0  0
   -1.4229  -12.8172    2.7512 O   0  0  0  0  0  0  0  0  0  0  0  0
  1  2  1  0
  1  8  2  3
  8  9  1  0
  8 10  1  0
 11  5  1  1
 11 12  1  0
 13 14  1  0
 11 16  1  0
 15 16  1  0
 16 17  2  0
 12 13  1  0
 14 15  1  0
  2  3  2  0
  3  4  1  0
  4  5  2  0
  5  6  1  0
  6  7  2  0
  2  7  1  0
M  END

$$$$
No_1561-/export/home/yangzhenyu/potential_scad_32_flow//YTHDC2/2024-12-06-03-22-00/
     RDKit          3D

 20 21  0  0  1  0  0  0  0  0999 V2000
    1.1787   -8.0297    3.5154 C   0  0  0  0  0  0  0  0  0  0  0  0
    1.1048   -9.2215    3.2892 C   0  0  1  0  0  0  0  0  0  0  0  0
    1.2339   -9.7611    2.0189 C   0  0  1  0  0  0  0  0  0  0  0  0
    1.3583   -9.0036    0.9764 C   0  0  2  0  0  0  0  0  0  0  0  0
    1.7077   -9.6100   -0.3010 C   0  0  0  0  0  0  0  0  0  0  0  0
    1.3637   -7.1087    2.3226 C   0  0  1  0  0  0  0  0  0  0  0  0
    1.4257   -7.6645    1.0231 C   0  0  0  0  0  0  0  0  0  0  0  0
    1.6722  -10.7840   -0.4044 O   0  0  0  0  0  0  0  0  0  0  0  0
    1.2336   -8.9275   -1.4153 O   0  0  0  0  0  0  0  0  0  0  0  0
    1.1479  -10.1808    4.3865 Cl  0  0  0  0  0  0  0  0  0  0  0  0
    1.3164   -5.3653    2.6018 F   0  0  0  0  0  0  0  0  0  0  0  0
    1.6034   -6.7137    0.1628 O   0  0  0  0  0  0  0  0  0  0  0  0
    1.3487  -11.1620    1.9863 C   0  0  0  0  0  0  0  0  0  0  0  0
    0.4234  -12.1391    1.8721 N   0  0  0  0  0  0  0  0  0  0  0  0
    0.5809  -13.4408    1.8605 C   0  0  0  0  0  0  0  0  0  0  0  0
    1.6992  -13.8742    2.2236 C   0  0  0  0  0  0  0  0  0  0  0  0
    1.9054  -15.1566    2.4896 C   0  0  0  0  0  0  0  0  0  0  0  0
    0.8919  -16.0600    2.3971 C   0  0  0  0  0  0  0  0  0  0  0  0
   -0.3591  -15.5887    2.2090 C   0  0  0  0  0  0  0  0  0  0  0  0
   -0.5349  -14.2647    1.9490 C   0  0  0  0  0  0  0  0  0  0  0  0
  1  2  1  0
  3  4  1  0
  4  5  1  1
  4  7  1  0
  6  7  1  0
  5  8  2  0
  5  9  1  0
  2 10  1  1
  6 11  1  6
  7 12  2  0
  3 13  1  1
 13 14  1  0
 14 15  1  0
  2  3  1  0
  1  6  1  0
 15 16  2  0
 16 17  1  0
 17 18  2  0
 18 19  1  0
 19 20  2  0
 15 20  1  0
M  END

$$$$
No_1562-/export/home/yangzhenyu/potential_scad_32_flow//YTHDC2/2024-12-06-03-22-00/
     RDKit          3D

 17 18  0  0  0  0  0  0  0  0999 V2000
    1.1787   -8.0297    3.5154 C   0  0  0  0  0  0  0  0  0  0  0  0
    1.1048   -9.2215    3.2892 C   0  0  0  0  0  0  0  0  0  0  0  0
    1.3627  -10.1721    4.3044 C   0  0  0  0  0  0  0  0  0  0  0  0
    1.0682  -11.5187    4.0618 C   0  0  0  0  0  0  0  0  0  0  0  0
    0.6332  -11.9655    2.9682 C   0  0  0  0  0  0  0  0  0  0  0  0
    0.4776  -11.1308    1.9203 C   0  0  0  0  0  0  0  0  0  0  0  0
    0.7470   -9.8274    2.0368 C   0  0  0  0  0  0  0  0  0  0  0  0
    1.0387   -7.0301    2.5175 N   0  0  0  0  0  0  0  0  0  0  0  0
    1.1978   -5.6481    2.8506 C   0  0  0  0  0  0  0  0  0  0  0  0
    0.4246  -13.4203    2.7866 C   0  0  0  0  0  0  0  0  0  0  0  0
    0.8593  -14.0572    1.6962 N   0  0  0  0  0  0  0  0  0  0  0  0
    0.2956  -14.7846    1.0920 C   0  0  0  0  0  0  0  0  0  0  0  0
   -0.9514  -15.1380    1.6495 C   0  0  0  0  0  0  0  0  0  0  0  0
   -1.3174  -14.7606    2.8654 C   0  0  0  0  0  0  0  0  0  0  0  0
   -0.5951  -13.7918    3.3991 N   0  0  0  0  0  0  0  0  0  0  0  0
    0.7567   -4.7616    1.8568 O   0  0  0  0  0  0  0  0  0  0  0  0
    1.6600   -4.9798    3.9111 O   0  0  0  0  0  0  0  0  0  0  0  0
  1  2  1  0
  1  8  2  3
  8  9  1  0
  5 10  1  0
  9 16  2  0
  9 17  1  0
  2  3  2  0
  3  4  1  0
  4  5  2  0
  5  6  1  0
  6  7  2  0
  2  7  1  0
 10 11  2  0
 11 12  1  0
 12 13  2  0
 13 14  1  0
 14 15  2  0
 10 15  1  0
M  END

$$$$
No_1563-/export/home/yangzhenyu/potential_scad_32_flow//YTHDC2/2024-12-06-03-22-00/
     RDKit          3D

 20 22  0  0  0  0  0  0  0  0999 V2000
    1.1787   -8.0297    3.5154 C   0  0  0  0  0  0  0  0  0  0  0  0
    1.0491   -6.8434    2.9820 C   0  0  0  0  0  0  0  0  0  0  0  0
    0.0950   -8.8404    3.2292 C   0  0  0  0  0  0  0  0  0  0  0  0
   -0.9173   -8.4596    2.5152 C   0  0  0  0  0  0  0  0  0  0  0  0
   -1.0331   -7.2162    2.0653 C   0  0  0  0  0  0  0  0  0  0  0  0
   -0.0105   -6.3168    2.3081 C   0  0  0  0  0  0  0  0  0  0  0  0
    0.1935  -10.3737    3.7416 C   0  0  0  0  0  0  0  0  0  0  0  0
    1.2406  -10.8901    4.0986 C   0  0  0  0  0  0  0  0  0  0  0  0
    1.1973  -12.3085    3.9531 C   0  0  0  0  0  0  0  0  0  0  0  0
    0.0747  -12.9277    3.6246 C   0  0  0  0  0  0  0  0  0  0  0  0
   -0.9472  -12.3441    3.2083 C   0  0  0  0  0  0  0  0  0  0  0  0
   -0.9569  -10.9394    3.2616 C   0  0  0  0  0  0  0  0  0  0  0  0
   -0.1387   -5.0202    1.8199 C   0  0  0  0  0  0  0  0  0  0  0  0
   -0.6492   -4.7259    0.7250 C   0  0  0  0  0  0  0  0  0  0  0  0
   -0.8082   -3.3264    0.4179 C   0  0  0  0  0  0  0  0  0  0  0  0
   -0.0525   -2.3416    1.0043 C   0  0  0  0  0  0  0  0  0  0  0  0
    0.7789   -2.6628    2.0259 C   0  0  0  0  0  0  0  0  0  0  0  0
    0.8065   -4.0097    2.4630 C   0  0  0  0  0  0  0  0  0  0  0  0
    0.1388  -14.3611    3.6185 O   0  0  0  0  0  0  0  0  0  0  0  0
    0.4273  -15.0810    2.5121 C   0  0  0  0  0  0  0  0  0  0  0  0
  3  7  1  0
  6 13  1  0
 10 19  1  0
 19 20  1  0
 13 14  2  0
 14 15  1  0
 15 16  2  0
 16 17  1  0
 17 18  2  0
 13 18  1  0
  1  2  2  0
  2  6  1  0
  5  6  2  0
  4  5  1  0
  3  4  2  0
  1  3  1  0
  7  8  2  0
  8  9  1  0
  9 10  2  0
 10 11  1  0
 11 12  2  0
  7 12  1  0
M  END

$$$$
No_1564-/export/home/yangzhenyu/potential_scad_32_flow//YTHDC2/2024-12-06-03-22-00/
     RDKit          3D

 18 20  0  0  0  0  0  0  0  0999 V2000
    1.1787   -8.0297    3.5154 C   0  0  0  0  0  0  0  0  0  0  0  0
    1.1048   -9.2215    3.2892 C   0  0  0  0  0  0  0  0  0  0  0  0
    1.3627  -10.1721    4.3044 C   0  0  0  0  0  0  0  0  0  0  0  0
    1.7354  -11.4730    3.9023 C   0  0  0  0  0  0  0  0  0  0  0  0
    1.8080  -11.8127    2.7216 C   0  0  0  0  0  0  0  0  0  0  0  0
    1.5854  -11.0021    1.7249 C   0  0  0  0  0  0  0  0  0  0  0  0
    1.3573   -9.7389    1.9287 C   0  0  0  0  0  0  0  0  0  0  0  0
    1.2865   -8.8078    0.9161 C   0  0  0  0  0  0  0  0  0  0  0  0
    0.9210   -7.5140    1.1674 C   0  0  0  0  0  0  0  0  0  0  0  0
    1.0097   -7.0192    2.4369 C   0  0  0  0  0  0  0  0  0  0  0  0
    2.0228  -13.2586    2.4222 C   0  0  0  0  0  0  0  0  0  0  0  0
    1.1773  -14.0575    1.7714 C   0  0  0  0  0  0  0  0  0  0  0  0
    0.7652  -15.1816    2.3606 C   0  0  0  0  0  0  0  0  0  0  0  0
   -0.3142  -15.1911    3.0372 C   0  0  0  0  0  0  0  0  0  0  0  0
   -0.7482  -16.4454    3.7155 C   0  0  0  0  0  0  0  0  0  0  0  0
    0.0402  -17.4948    3.8435 C   0  0  0  0  0  0  0  0  0  0  0  0
    1.3185  -17.5032    3.2332 C   0  0  0  0  0  0  0  0  0  0  0  0
    1.7732  -16.3951    2.4902 C   0  0  0  0  0  0  0  0  0  0  0  0
  5 11  1  0
 11 12  1  0
 12 13  1  0
  1  2  2  0
  7  8  2  0
  8  9  1  0
  9 10  2  0
  1 10  1  0
  2  3  1  0
  3  4  2  0
  4  5  1  0
  5  6  2  0
  6  7  1  0
  2  7  1  0
 13 14  2  0
 14 15  1  0
 15 16  2  0
 16 17  1  0
 17 18  2  0
 13 18  1  0
M  END

$$$$
No_1565-/export/home/yangzhenyu/potential_scad_32_flow//YTHDC2/2024-12-06-03-22-00/
     RDKit          3D

 19 19  0  0  0  0  0  0  0  0999 V2000
    1.1787   -8.0297    3.5154 C   0  0  0  0  0  0  0  0  0  0  0  0
    1.1048   -9.2215    3.2892 C   0  0  0  0  0  0  0  0  0  0  0  0
    1.2339   -9.7611    2.0189 C   0  0  0  0  0  0  0  0  0  0  0  0
    1.4306   -8.9466    1.1170 C   0  0  0  0  0  0  0  0  0  0  0  0
    1.6532   -7.5949    1.1786 C   0  0  0  0  0  0  0  0  0  0  0  0
    1.4973   -7.0739    2.4258 C   0  0  0  0  0  0  0  0  0  0  0  0
    1.6687   -9.4438   -0.3021 C   0  0  0  0  0  0  0  0  0  0  0  0
    1.1891  -10.5277   -0.5331 O   0  0  0  0  0  0  0  0  0  0  0  0
    2.2562   -8.7531   -1.2161 O   0  0  0  0  0  0  0  0  0  0  0  0
    0.8516  -10.3587    4.5515 Cl  0  0  0  0  0  0  0  0  0  0  0  0
    1.5399   -5.6241    2.7715 O   0  0  0  0  0  0  0  0  0  0  0  0
    0.5980   -4.7919    2.5403 C   0  0  0  0  0  0  0  0  0  0  0  0
    1.2459  -11.1679    1.9089 C   0  0  0  0  0  0  0  0  0  0  0  0
    0.2891  -12.0152    1.7510 C   0  0  0  0  0  0  0  0  0  0  0  0
    0.3660  -13.4374    1.6749 C   0  0  0  0  0  0  0  0  0  0  0  0
    1.3777  -14.1108    2.3782 C   0  0  0  0  0  0  0  0  0  0  0  0
    1.3635  -14.6101    3.4291 C   0  0  0  0  0  0  0  0  0  0  0  0
    0.5445  -15.7982    3.4809 C   0  0  0  0  0  0  0  0  0  0  0  0
    0.0259  -16.4894    4.5113 O   0  0  0  0  0  0  0  0  0  0  0  0
  4  7  1  0
  7  8  2  0
  7  9  1  0
  2 10  1  0
  6 11  1  0
 11 12  1  0
  3 13  1  0
 13 14  2  3
 14 15  1  0
 15 16  1  0
 16 17  1  0
 17 18  1  0
 18 19  1  0
  1  2  2  0
  2  3  1  0
  3  4  2  0
  4  5  1  0
  5  6  2  0
  1  6  1  0
M  END

$$$$
No_1566-/export/home/yangzhenyu/potential_scad_32_flow//YTHDC2/2024-12-06-03-22-00/
     RDKit          3D

 19 20  0  0  1  0  0  0  0  0999 V2000
    1.1787   -8.0297    3.5154 C   0  0  0  0  0  0  0  0  0  0  0  0
    1.1048   -9.2215    3.2892 C   0  0  0  0  0  0  0  0  0  0  0  0
    1.2339   -9.7611    2.0189 C   0  0  0  0  0  0  0  0  0  0  0  0
    1.3583   -9.0036    0.9764 C   0  0  0  0  0  0  0  0  0  0  0  0
    1.5996   -7.6362    1.1311 C   0  0  0  0  0  0  0  0  0  0  0  0
    1.4830   -7.0928    2.3626 C   0  0  0  0  0  0  0  0  0  0  0  0
    1.5395   -5.7300    2.6182 C   0  0  0  0  0  0  0  0  0  0  0  0
    1.1969  -11.3760    1.8433 C   0  0  0  0  0  0  0  0  0  0  0  0
    0.2951  -11.9827    2.0623 C   0  0  0  0  0  0  0  0  0  0  0  0
    0.2264  -13.3724    1.9493 C   0  0  0  0  0  0  0  0  0  0  0  0
   -0.6651  -14.1398    1.6389 C   0  0  0  0  0  0  0  0  0  0  0  0
   -1.9495  -13.5954    1.3434 C   0  0  0  0  0  0  0  0  0  0  0  0
   -2.0595  -12.1565    1.3693 C   0  0  0  0  0  0  0  0  0  0  0  0
   -0.9785  -11.3666    1.6865 C   0  0  0  0  0  0  0  0  0  0  0  0
    1.5855  -14.0233    2.1924 C   0  0  0  0  0  0  0  0  0  0  0  0
    1.6650  -15.4636    2.0887 C   0  0  1  0  0  0  0  0  0  0  0  0
    2.5329  -16.0399    1.1960 C   0  0  0  0  0  0  0  0  0  0  0  0
    2.7027  -17.4562    1.5363 C   0  0  0  0  0  0  0  0  0  0  0  0
    1.0903  -16.0634    3.2645 C   0  0  0  0  0  0  0  0  0  0  0  0
  6  7  1  0
  3  8  1  0
 10 15  1  0
 15 16  1  0
 16 17  1  0
 17 18  2  0
 16 19  1  1
  8  9  1  0
  1  2  2  0
  2  3  1  0
  3  4  2  0
  4  5  1  0
  5  6  2  0
  1  6  1  0
  9 10  2  0
 10 11  1  0
 11 12  2  0
 12 13  1  0
 13 14  2  0
  9 14  1  0
M  END

$$$$
No_1567-/export/home/yangzhenyu/potential_scad_32_flow//YTHDC2/2024-12-06-03-22-00/
     RDKit          3D

 17 18  0  0  0  0  0  0  0  0999 V2000
    1.1787   -8.0297    3.5154 C   0  0  0  0  0  0  0  0  0  0  0  0
    1.1048   -9.2215    3.2892 C   0  0  0  0  0  0  0  0  0  0  0  0
    1.3627  -10.1721    4.3044 C   0  0  0  0  0  0  0  0  0  0  0  0
    1.7354  -11.4730    3.9023 C   0  0  0  0  0  0  0  0  0  0  0  0
    1.8080  -11.8127    2.7216 C   0  0  0  0  0  0  0  0  0  0  0  0
    1.5854  -11.0021    1.7249 C   0  0  0  0  0  0  0  0  0  0  0  0
    1.3573   -9.7389    1.9287 C   0  0  0  0  0  0  0  0  0  0  0  0
    1.1102   -8.8712    0.9017 C   0  0  0  0  0  0  0  0  0  0  0  0
    0.5299   -7.6926    1.0325 C   0  0  0  0  0  0  0  0  0  0  0  0
    0.7526   -7.0802    2.3301 C   0  0  0  0  0  0  0  0  0  0  0  0
    2.0528  -13.2563    2.4302 O   0  0  0  0  0  0  0  0  0  0  0  0
    0.5638   -5.7065    2.5407 C   0  0  0  0  0  0  0  0  0  0  0  0
    1.0232   -4.8366    1.6427 C   0  0  0  0  0  0  0  0  0  0  0  0
    0.2456   -4.5266    0.6183 C   0  0  0  0  0  0  0  0  0  0  0  0
    0.2810   -3.1185    0.2927 C   0  0  0  0  0  0  0  0  0  0  0  0
    1.2575   -2.2538    0.7836 C   0  0  0  0  0  0  0  0  0  0  0  0
    2.0776   -2.6178    1.7467 C   0  0  0  0  0  0  0  0  0  0  0  0
  5 11  1  0
 10 12  1  0
 12 13  1  0
 13 14  1  0
 14 15  2  3
 15 16  1  0
 16 17  2  0
  1  2  2  0
  7  8  2  0
  8  9  1  0
  9 10  2  0
  1 10  1  0
  2  3  1  0
  3  4  2  0
  4  5  1  0
  5  6  2  0
  6  7  1  0
  2  7  1  0
M  END

$$$$
No_1568-/export/home/yangzhenyu/potential_scad_32_flow//YTHDC2/2024-12-06-03-22-00/
     RDKit          3D

 18 19  0  0  0  0  0  0  0  0999 V2000
    1.1787   -8.0297    3.5154 C   0  0  0  0  0  0  0  0  0  0  0  0
    1.1048   -9.2215    3.2892 C   0  0  0  0  0  0  0  0  0  0  0  0
    1.3627  -10.1721    4.3044 C   0  0  0  0  0  0  0  0  0  0  0  0
    1.0682  -11.5187    4.0618 C   0  0  0  0  0  0  0  0  0  0  0  0
    0.6332  -11.9655    2.9682 C   0  0  0  0  0  0  0  0  0  0  0  0
    0.4776  -11.1308    1.9203 C   0  0  0  0  0  0  0  0  0  0  0  0
    0.7470   -9.8274    2.0368 C   0  0  0  0  0  0  0  0  0  0  0  0
    1.0387   -7.0301    2.5175 C   0  0  0  0  0  0  0  0  0  0  0  0
    0.9130   -7.5288    1.2013 C   0  0  0  0  0  0  0  0  0  0  0  0
    0.7893   -8.7980    0.9542 C   0  0  0  0  0  0  0  0  0  0  0  0
    0.5241   -9.2578   -0.2817 C   0  0  0  0  0  0  0  0  0  0  0  0
   -0.7560   -9.7391   -0.6285 O   0  0  0  0  0  0  0  0  0  0  0  0
    1.2516   -8.8971   -1.2594 O   0  0  0  0  0  0  0  0  0  0  0  0
    0.5093  -13.3710    2.6925 N   0  0  0  0  0  0  0  0  0  0  0  0
    1.4649  -14.2977    3.0426 C   0  0  0  0  0  0  0  0  0  0  0  0
    1.6067  -15.4271    2.1829 C   0  0  0  0  0  0  0  0  0  0  0  0
    1.1893  -15.3767    1.0550 C   0  0  0  0  0  0  0  0  0  0  0  0
    0.1216  -14.2622    0.9890 C   0  0  0  0  0  0  0  0  0  0  0  0
 10 11  1  0
 11 12  1  0
 11 13  2  0
  5 14  1  0
 14 15  1  0
 15 16  1  0
 16 17  1  0
 17 18  1  0
  2  3  1  0
  3  4  2  0
  4  5  1  0
  5  6  2  0
  6  7  1  0
  1  2  2  0
  2  7  1  0
  7 10  2  0
  9 10  1  0
  8  9  2  0
  1  8  1  0
M  END

$$$$
No_1569-/export/home/yangzhenyu/potential_scad_32_flow//YTHDC2/2024-12-06-03-22-00/
     RDKit          3D

 17 17  0  0  0  0  0  0  0  0999 V2000
    1.1787   -8.0297    3.5154 C   0  0  0  0  0  0  0  0  0  0  0  0
    1.0491   -6.8434    2.9820 C   0  0  0  0  0  0  0  0  0  0  0  0
    0.0950   -8.8404    3.2292 C   0  0  0  0  0  0  0  0  0  0  0  0
    0.0602  -10.1764    3.8231 C   0  0  0  0  0  0  0  0  0  0  0  0
    0.2248   -6.3830    2.0648 C   0  0  0  0  0  0  0  0  0  0  0  0
   -0.6745   -7.2322    1.6857 C   0  0  0  0  0  0  0  0  0  0  0  0
   -0.7374   -8.4992    2.1291 C   0  0  0  0  0  0  0  0  0  0  0  0
    1.0517  -10.8728    4.0967 C   0  0  0  0  0  0  0  0  0  0  0  0
    2.3550  -10.7132    3.6249 C   0  0  0  0  0  0  0  0  0  0  0  0
    0.3532   -5.1181    1.3971 Cl  0  0  0  0  0  0  0  0  0  0  0  0
    2.4773  -10.6102    2.2333 C   0  0  0  0  0  0  0  0  0  0  0  0
    1.9630  -11.3694    1.3257 C   0  0  0  0  0  0  0  0  0  0  0  0
    1.3112  -10.8363    0.2638 O   0  0  0  0  0  0  0  0  0  0  0  0
    2.0187  -12.6179    1.5523 O   0  0  0  0  0  0  0  0  0  0  0  0
    3.4234  -10.8660    4.4535 O   0  0  0  0  0  0  0  0  0  0  0  0
   -1.1885  -10.3364    4.6102 Cl  0  0  0  0  0  0  0  0  0  0  0  0
   -1.6576   -6.9316    0.6827 O   0  0  0  0  0  0  0  0  0  0  0  0
  3  4  1  0
  4  8  2  3
  8  9  1  0
  5 10  1  0
  9 11  1  0
 11 12  1  0
 12 13  2  0
 12 14  1  0
  9 15  2  0
  4 16  1  0
  6 17  1  0
  1  2  2  0
  2  5  1  0
  5  6  2  0
  6  7  1  0
  3  7  2  0
  1  3  1  0
M  END

$$$$
No_1570-/export/home/yangzhenyu/potential_scad_32_flow//YTHDC2/2024-12-06-03-22-00/
     RDKit          3D

 19 20  0  0  1  0  0  0  0  0999 V2000
    1.1787   -8.0297    3.5154 C   0  0  0  0  0  0  0  0  0  0  0  0
    1.0491   -6.8434    2.9820 C   0  0  0  0  0  0  0  0  0  0  0  0
    0.9905   -9.0774    2.6527 C   0  0  0  0  0  0  0  0  0  0  0  0
    0.7897   -8.9519    1.3691 C   0  0  0  0  0  0  0  0  0  0  0  0
    0.7018   -7.7198    0.7892 C   0  0  0  0  0  0  0  0  0  0  0  0
    0.8918   -6.5957    1.6117 C   0  0  0  0  0  0  0  0  0  0  0  0
    1.0711  -10.4814    3.2282 C   0  0  0  0  0  0  0  0  0  0  0  0
    1.1227  -11.5770    2.4616 C   0  0  0  0  0  0  0  0  0  0  0  0
    1.0412  -11.3415    1.0713 C   0  0  0  0  0  0  0  0  0  0  0  0
    1.0019  -10.1422    0.5250 C   0  0  0  0  0  0  0  0  0  0  0  0
    1.3059  -12.8546    2.9967 C   0  0  0  0  0  0  0  0  0  0  0  0
    1.3833  -13.9416    2.0200 C   0  0  1  0  0  0  0  0  0  0  0  0
    2.8541  -14.3785    1.9790 C   0  0  0  0  0  0  0  0  0  0  0  0
    0.7409   -5.2944    1.0877 Cl  0  0  0  0  0  0  0  0  0  0  0  0
    0.6450  -15.1880    2.4854 C   0  0  0  0  0  0  0  0  0  0  0  0
    1.3319  -16.1858    2.8939 C   0  0  0  0  0  0  0  0  0  0  0  0
    0.5591  -17.2326    3.3586 C   0  0  0  0  0  0  0  0  0  0  0  0
   -0.7081  -17.2344    3.5476 C   0  0  0  0  0  0  0  0  0  0  0  0
   -1.4164  -16.1104    3.3077 C   0  0  0  0  0  0  0  0  0  0  0  0
  8 11  1  0
 11 12  1  0
 12 13  1  1
  6 14  1  0
 12 15  1  0
 15 16  1  0
 16 17  2  3
 17 18  1  0
 18 19  2  0
  4 10  2  0
  9 10  1  0
  8  9  2  0
  7  8  1  0
  3  7  2  0
  1  2  2  0
  2  6  1  0
  5  6  2  0
  4  5  1  0
  3  4  1  0
  1  3  1  0
M  END

$$$$
No_1571-/export/home/yangzhenyu/potential_scad_32_flow//YTHDC2/2024-12-06-03-22-00/
     RDKit          3D

 20 20  0  0  1  0  0  0  0  0999 V2000
    1.1787   -8.0297    3.5154 C   0  0  0  0  0  0  0  0  0  0  0  0
    1.1048   -9.2215    3.2892 C   0  0  0  0  0  0  0  0  0  0  0  0
    1.2339   -9.7611    2.0189 C   0  0  0  0  0  0  0  0  0  0  0  0
    1.3583   -9.0036    0.9764 C   0  0  0  0  0  0  0  0  0  0  0  0
    1.5996   -7.6362    1.1311 C   0  0  0  0  0  0  0  0  0  0  0  0
    1.4830   -7.0928    2.3626 C   0  0  0  0  0  0  0  0  0  0  0  0
    1.1008  -11.2372    1.8542 C   0  0  0  0  0  0  0  0  0  0  0  0
    0.5178  -11.9759    2.3445 C   0  0  0  0  0  0  0  0  0  0  0  0
    0.4575  -13.3705    2.1281 C   0  0  0  0  0  0  0  0  0  0  0  0
    1.1632  -14.1013    2.0451 C   0  0  0  0  0  0  0  0  0  0  0  0
    2.4646  -13.5566    1.4445 C   0  0  0  0  0  0  0  0  0  0  0  0
    1.2467  -15.5603    2.2927 C   0  0  0  0  0  0  0  0  0  0  0  0
    0.3854  -15.9779    3.1650 O   0  0  0  0  0  0  0  0  0  0  0  0
    2.1231  -16.4014    1.8509 O   0  0  0  0  0  0  0  0  0  0  0  0
    1.5556   -5.6573    2.6304 C   0  0  0  0  0  0  0  0  0  0  0  0
    1.1880   -4.7837    1.6417 N   0  0  0  0  0  0  0  0  0  0  0  0
    0.4814   -3.6443    1.7922 C   0  0  1  0  0  0  0  0  0  0  0  0
    0.8413   -2.8167    2.6411 C   0  0  0  0  0  0  0  0  0  0  0  0
    0.3909   -2.8865    0.3541 C   0  0  0  0  0  0  0  0  0  0  0  0
   -0.8075   -2.1219    0.2309 C   0  0  0  0  0  0  0  0  0  0  0  0
  3  7  1  0
  7  8  2  3
  8  9  1  0
  9 10  2  3
 10 11  1  0
 10 12  1  0
 12 13  1  0
 12 14  2  0
  6 15  1  0
 15 16  1  0
 16 17  1  0
 17 18  1  1
 17 19  1  0
 19 20  1  0
  1  2  2  0
  2  3  1  0
  3  4  2  0
  4  5  1  0
  5  6  2  0
  1  6  1  0
M  END

$$$$
No_1572-/export/home/yangzhenyu/potential_scad_32_flow//YTHDC2/2024-12-06-03-22-00/
     RDKit          3D

 19 19  0  0  0  0  0  0  0  0999 V2000
    1.1787   -8.0297    3.5154 C   0  0  0  0  0  0  0  0  0  0  0  0
    1.0491   -6.8434    2.9820 C   0  0  0  0  0  0  0  0  0  0  0  0
    0.9905   -9.0774    2.6527 C   0  0  0  0  0  0  0  0  0  0  0  0
    0.7897   -8.9519    1.3691 C   0  0  0  0  0  0  0  0  0  0  0  0
    0.7018   -7.7198    0.7892 C   0  0  0  0  0  0  0  0  0  0  0  0
    0.8918   -6.5957    1.6117 C   0  0  0  0  0  0  0  0  0  0  0  0
    1.0711  -10.4814    3.2282 C   0  0  0  0  0  0  0  0  0  0  0  0
    1.1227  -11.5770    2.4616 C   0  0  0  0  0  0  0  0  0  0  0  0
    1.1500  -12.9052    3.0782 C   0  0  0  0  0  0  0  0  0  0  0  0
    0.6702  -13.9897    2.4998 C   0  0  0  0  0  0  0  0  0  0  0  0
    1.0009  -15.3315    3.2443 O   0  0  0  0  0  0  0  0  0  0  0  0
    0.8418   -5.2744    1.1554 N   0  0  0  0  0  0  0  0  0  0  0  0
    0.4498  -16.4798    3.0799 C   0  0  0  0  0  0  0  0  0  0  0  0
    0.0411  -14.2252    1.4577 O   0  0  0  0  0  0  0  0  0  0  0  0
   -0.2651   -4.5886    0.9732 C   0  0  0  0  0  0  0  0  0  0  0  0
   -0.2391   -3.3174    0.6345 C   0  0  0  0  0  0  0  0  0  0  0  0
   -0.9844   -2.4963    1.3081 C   0  0  0  0  0  0  0  0  0  0  0  0
   -2.1255   -3.0146    1.8986 C   0  0  0  0  0  0  0  0  0  0  0  0
   -2.3032   -4.2928    2.2132 C   0  0  0  0  0  0  0  0  0  0  0  0
  3  7  1  0
  7  8  2  3
  8  9  1  0
  9 10  1  0
 10 11  1  0
  6 12  1  0
 11 13  1  0
 10 14  2  0
 12 15  1  0
 15 16  1  0
 16 17  2  3
 17 18  1  0
 18 19  2  0
  1  2  2  0
  2  6  1  0
  5  6  2  0
  4  5  1  0
  3  4  2  0
  1  3  1  0
M  END

$$$$
No_1573-/export/home/yangzhenyu/potential_scad_32_flow//YTHDC2/2024-12-06-03-22-00/
     RDKit          3D

 20 21  0  0  0  0  0  0  0  0999 V2000
    1.1787   -8.0297    3.5154 C   0  0  0  0  0  0  0  0  0  0  0  0
    1.0491   -6.8434    2.9820 C   0  0  0  0  0  0  0  0  0  0  0  0
    1.9985   -8.9840    2.8958 C   0  0  0  0  0  0  0  0  0  0  0  0
    1.9135  -10.3404    3.6266 C   0  0  0  0  0  0  0  0  0  0  0  0
    0.7479  -10.9191    3.7202 C   0  0  0  0  0  0  0  0  0  0  0  0
    0.2782   -6.7158    1.8352 C   0  0  0  0  0  0  0  0  0  0  0  0
    0.0493   -5.5581    1.3972 O   0  0  0  0  0  0  0  0  0  0  0  0
   -0.2323   -7.7198    1.3502 N   0  0  0  0  0  0  0  0  0  0  0  0
   -0.2181  -10.4381    3.8865 C   0  0  0  0  0  0  0  0  0  0  0  0
    0.9243  -12.3424    3.6130 C   0  0  0  0  0  0  0  0  0  0  0  0
   -0.0026  -12.9436    2.8400 C   0  0  0  0  0  0  0  0  0  0  0  0
   -1.2343  -12.2819    2.7678 C   0  0  0  0  0  0  0  0  0  0  0  0
   -1.3963  -10.9991    3.3418 C   0  0  0  0  0  0  0  0  0  0  0  0
    0.1721  -14.2439    2.3390 C   0  0  0  0  0  0  0  0  0  0  0  0
   -0.6495  -14.7456    1.5247 C   0  0  0  0  0  0  0  0  0  0  0  0
    1.5146  -14.8977    2.5928 C   0  0  0  0  0  0  0  0  0  0  0  0
    1.6735  -16.1927    2.1818 C   0  0  0  0  0  0  0  0  0  0  0  0
    0.8724  -16.7424    1.3576 C   0  0  0  0  0  0  0  0  0  0  0  0
   -0.3167  -16.1124    1.0507 C   0  0  0  0  0  0  0  0  0  0  0  0
    1.0543  -17.9802    0.7933 P   0  0  0  0  0  0  0  0  0  0  0  0
  1  2  1  0
  1  3  1  0
  3  4  1  0
  4  5  1  0
  2  6  1  0
  6  7  2  0
  6  8  1  0
 11 14  1  0
 18 20  1  0
  5  9  2  0
  9 13  1  0
 12 13  2  0
 11 12  1  0
 10 11  2  0
  5 10  1  0
 14 15  2  0
 15 19  1  0
 18 19  2  0
 17 18  1  0
 16 17  2  0
 14 16  1  0
M  END

$$$$
No_1574-/export/home/yangzhenyu/potential_scad_32_flow//YTHDC2/2024-12-06-03-22-00/
     RDKit          3D

 20 20  0  0  1  0  0  0  0  0999 V2000
    1.1787   -8.0297    3.5154 C   0  0  0  0  0  0  0  0  0  0  0  0
    1.1048   -9.2215    3.2892 C   0  0  0  0  0  0  0  0  0  0  0  0
    1.2339   -9.7611    2.0189 C   0  0  0  0  0  0  0  0  0  0  0  0
    1.3583   -9.0036    0.9764 C   0  0  0  0  0  0  0  0  0  0  0  0
    1.5996   -7.6362    1.1311 C   0  0  0  0  0  0  0  0  0  0  0  0
    1.4830   -7.0928    2.3626 C   0  0  0  0  0  0  0  0  0  0  0  0
    1.5395   -5.7300    2.6182 C   0  0  0  0  0  0  0  0  0  0  0  0
    1.1775  -11.2233    1.8407 C   0  0  1  0  0  0  0  0  0  0  0  0
    0.7252  -11.5870    0.5413 C   0  0  0  0  0  0  0  0  0  0  0  0
   -0.1807  -10.9849   -0.0827 C   0  0  0  0  0  0  0  0  0  0  0  0
    1.7325  -12.0565    2.7078 C   0  0  1  0  0  0  0  0  0  0  0  0
    1.7477  -11.8545    3.8150 C   0  0  0  0  0  0  0  0  0  0  0  0
    1.4642  -13.4659    2.3353 C   0  0  0  0  0  0  0  0  0  0  0  0
    2.0852  -14.3635    3.0104 C   0  0  0  0  0  0  0  0  0  0  0  0
    1.9563  -15.8013    2.4018 C   0  0  2  0  0  0  0  0  0  0  0  0
    3.1795  -16.3765    2.1994 O   0  0  0  0  0  0  0  0  0  0  0  0
    1.0075  -16.3389    2.0073 Cl  0  0  0  0  0  0  0  0  0  0  0  0
    1.3397   -4.8142    1.6384 O   0  0  0  0  0  0  0  0  0  0  0  0
    2.1354   -5.1480    3.6874 O   0  0  0  0  0  0  0  0  0  0  0  0
   -1.1276  -10.2630    0.6326 C   0  0  0  0  0  0  0  0  0  0  0  0
  6  7  1  0
  8  3  1  6
  8  9  1  0
  9 10  2  3
  8 11  1  0
 11 12  1  1
 11 13  1  0
 13 14  1  0
 14 15  1  0
 15 16  1  6
 15 17  1  0
  7 18  1  0
  7 19  2  0
 10 20  1  0
  1  2  2  0
  2  3  1  0
  3  4  2  0
  4  5  1  0
  5  6  2  0
  1  6  1  0
M  END

$$$$
No_1575-/export/home/yangzhenyu/potential_scad_32_flow//YTHDC2/2024-12-06-03-22-00/
     RDKit          3D

 19 19  0  0  1  0  0  0  0  0999 V2000
    1.1787   -8.0297    3.5154 C   0  0  0  0  0  0  0  0  0  0  0  0
    1.0491   -6.8434    2.9820 C   0  0  0  0  0  0  0  0  0  0  0  0
    0.0950   -8.8404    3.2292 C   0  0  0  0  0  0  0  0  0  0  0  0
   -0.9173   -8.4596    2.5152 C   0  0  0  0  0  0  0  0  0  0  0  0
   -1.0331   -7.2162    2.0653 C   0  0  0  0  0  0  0  0  0  0  0  0
   -0.0105   -6.3168    2.3081 C   0  0  0  0  0  0  0  0  0  0  0  0
    0.1465  -10.2446    3.6981 C   0  0  0  0  0  0  0  0  0  0  0  0
    1.2433  -10.8239    4.0166 C   0  0  0  0  0  0  0  0  0  0  0  0
    2.4912  -10.5210    3.8610 C   0  0  0  0  0  0  0  0  0  0  0  0
   -0.0801   -5.0324    1.8109 C   0  0  1  0  0  0  0  0  0  0  0  0
    0.7355   -4.0517    2.3421 C   0  0  0  0  0  0  0  0  0  0  0  0
    2.8370  -10.2396    2.6036 C   0  0  0  0  0  0  0  0  0  0  0  0
    2.4061  -11.0096    1.5534 C   0  0  0  0  0  0  0  0  0  0  0  0
    2.2098  -12.4000    1.7942 O   0  0  0  0  0  0  0  0  0  0  0  0
    2.0448  -10.6240    0.3754 O   0  0  0  0  0  0  0  0  0  0  0  0
   -0.6536   -4.6247    0.6812 C   0  0  0  0  0  0  0  0  0  0  0  0
   -1.1101   -5.1952   -0.1299 O   0  0  0  0  0  0  0  0  0  0  0  0
   -0.9202   -3.1643    0.5754 N   0  0  0  0  0  0  0  0  0  0  0  0
    0.5788   -2.6811    2.2910 N   0  0  0  0  0  0  0  0  0  0  0  0
  3  7  1  0
  7  8  2  3
  8  9  1  0
  6 10  1  0
 10 11  1  6
  9 12  1  0
 12 13  1  0
 13 14  1  0
 13 15  2  0
 10 16  1  0
 16 17  2  0
 16 18  1  0
 11 19  1  0
  1  2  2  0
  2  6  1  0
  5  6  2  0
  4  5  1  0
  3  4  2  0
  1  3  1  0
M  END

$$$$
No_1576-/export/home/yangzhenyu/potential_scad_32_flow//YTHDC2/2024-12-06-03-22-00/
     RDKit          3D

 17 18  0  0  0  0  0  0  0  0999 V2000
    1.1787   -8.0297    3.5154 N   0  0  0  0  0  0  0  0  0  0  0  0
    1.0818   -9.0751    3.2053 C   0  0  0  0  0  0  0  0  0  0  0  0
    1.5216  -10.1164    3.9747 C   0  0  0  0  0  0  0  0  0  0  0  0
    1.4420  -11.4363    3.6461 C   0  0  0  0  0  0  0  0  0  0  0  0
    0.5969  -11.7648    2.6785 C   0  0  0  0  0  0  0  0  0  0  0  0
    0.0342  -10.7440    2.0899 C   0  0  0  0  0  0  0  0  0  0  0  0
    0.2724   -9.5056    2.2113 C   0  0  0  0  0  0  0  0  0  0  0  0
    0.8736   -6.9127    2.6458 C   0  0  0  0  0  0  0  0  0  0  0  0
    0.3724   -7.2182    1.4910 C   0  0  0  0  0  0  0  0  0  0  0  0
   -0.0184   -8.5211    1.2488 C   0  0  0  0  0  0  0  0  0  0  0  0
   -0.6502   -8.7648    0.0775 C   0  0  0  0  0  0  0  0  0  0  0  0
   -0.0184   -8.9237   -1.1502 N   0  0  0  0  0  0  0  0  0  0  0  0
   -1.8666   -9.4478    0.2323 O   0  0  0  0  0  0  0  0  0  0  0  0
   -0.3968   -8.7568   -2.1283 O   0  0  0  0  0  0  0  0  0  0  0  0
    1.3485   -5.5496    3.0775 C   0  0  0  0  0  0  0  0  0  0  0  0
    0.3114  -13.4144    2.4323 C   0  0  0  0  0  0  0  0  0  0  0  0
   -0.8583  -13.7246    2.1440 C   0  0  0  0  0  0  0  0  0  0  0  0
 10 11  1  0
 11 12  1  0
 11 13  2  0
 12 14  2  0
  8 15  1  0
  5 16  1  0
 16 17  1  0
  2  3  1  0
  3  4  2  0
  4  5  1  0
  5  6  2  0
  6  7  1  0
  1  2  2  0
  2  7  1  0
  7 10  2  0
  9 10  1  0
  8  9  2  0
  1  8  1  0
M  END

$$$$
No_1577-/export/home/yangzhenyu/potential_scad_32_flow//YTHDC2/2024-12-06-03-22-00/
     RDKit          3D

 19 20  0  0  1  0  0  0  0  0999 V2000
    1.1787   -8.0297    3.5154 C   0  0  0  0  0  0  0  0  0  0  0  0
    1.1048   -9.2215    3.2892 C   0  0  0  0  0  0  0  0  0  0  0  0
    1.3627  -10.1721    4.3044 C   0  0  0  0  0  0  0  0  0  0  0  0
    1.0682  -11.5187    4.0618 C   0  0  0  0  0  0  0  0  0  0  0  0
    0.6332  -11.9655    2.9682 C   0  0  0  0  0  0  0  0  0  0  0  0
    0.4776  -11.1308    1.9203 C   0  0  0  0  0  0  0  0  0  0  0  0
    0.7470   -9.8274    2.0368 C   0  0  0  0  0  0  0  0  0  0  0  0
    1.0387   -7.0301    2.5175 C   0  0  0  0  0  0  0  0  0  0  0  0
    0.9130   -7.5288    1.2013 C   0  0  0  0  0  0  0  0  0  0  0  0
    0.7893   -8.7979    0.9542 C   0  0  2  0  0  0  0  0  0  0  0  0
    0.5241   -9.2578   -0.2817 C   0  0  0  0  0  0  0  0  0  0  0  0
   -0.7560   -9.7391   -0.6285 C   0  0  0  0  0  0  0  0  0  0  0  0
    0.9569   -6.6582    0.2211 O   0  0  0  0  0  0  0  0  0  0  0  0
    0.4742  -13.5481    2.7198 C   0  0  1  0  0  0  0  0  0  0  0  0
   -0.5933  -13.9654    2.5396 C   0  0  0  0  0  0  0  0  0  0  0  0
    1.6641  -14.2821    2.6827 C   0  0  0  0  0  0  0  0  0  0  0  0
    1.5690  -15.6267    2.6546 N   0  0  0  0  0  0  0  0  0  0  0  0
   -0.7529  -15.2930    2.3915 C   0  0  0  0  0  0  0  0  0  0  0  0
    0.6610  -16.0690    2.6607 H   0  0  0  0  0  0  0  0  0  0  0  0
  1  2  1  0
  8  9  1  0
  7 10  1  0
  9 10  1  0
 10 11  1  1
 11 12  2  0
  9 13  2  0
  5 14  1  0
 14 15  1  6
 14 16  1  0
 16 17  2  0
 15 18  1  0
  1  8  1  0
  2  3  2  0
  3  4  1  0
  4  5  2  0
  5  6  1  0
  6  7  2  0
  2  7  1  0
 17 19  1  0
M  END

$$$$
No_1578-/export/home/yangzhenyu/potential_scad_32_flow//YTHDC2/2024-12-06-03-22-00/
     RDKit          3D

 19 19  0  0  1  0  0  0  0  0999 V2000
    1.1787   -8.0297    3.5154 C   0  0  0  0  0  0  0  0  0  0  0  0
    1.1048   -9.2215    3.2892 C   0  0  0  0  0  0  0  0  0  0  0  0
    1.2339   -9.7611    2.0189 C   0  0  0  0  0  0  0  0  0  0  0  0
    1.3583   -9.0036    0.9764 C   0  0  0  0  0  0  0  0  0  0  0  0
    1.7077   -9.6100   -0.3010 C   0  0  0  0  0  0  0  0  0  0  0  0
    1.3637   -7.1087    2.3226 C   0  0  0  0  0  0  0  0  0  0  0  0
    1.4257   -7.6645    1.0231 C   0  0  0  0  0  0  0  0  0  0  0  0
    1.6722  -10.7840   -0.4044 O   0  0  0  0  0  0  0  0  0  0  0  0
    1.4862   -8.9147   -1.4018 O   0  0  0  0  0  0  0  0  0  0  0  0
    1.1383  -10.1804    4.3877 C   0  0  0  0  0  0  0  0  0  0  0  0
    1.9382  -11.5205    4.1144 C   0  0  0  0  0  0  0  0  0  0  0  0
    1.1035  -12.4680    3.4297 C   0  0  1  0  0  0  0  0  0  0  0  0
    1.6773  -13.6839    3.0049 C   0  0  0  0  0  0  0  0  0  0  0  0
    1.9989  -13.8348    1.8296 C   0  0  0  0  0  0  0  0  0  0  0  0
    1.3323  -14.6199    1.0632 Cl  0  0  0  0  0  0  0  0  0  0  0  0
    1.2798   -5.6066    2.5762 C   0  0  0  0  0  0  0  0  0  0  0  0
    1.6564   -5.1949    3.6852 O   0  0  0  0  0  0  0  0  0  0  0  0
    0.7221   -4.8409    1.7296 O   0  0  0  0  0  0  0  0  0  0  0  0
   -0.2207  -12.3651    3.2566 C   0  0  0  0  0  0  0  0  0  0  0  0
  4  5  1  0
  5  8  2  0
  5  9  1  0
  2 10  1  0
 10 11  1  0
 11 12  1  0
 12 13  1  0
 13 14  1  0
 14 15  1  0
  6 16  1  0
 16 17  1  0
 16 18  2  0
 12 19  1  1
  1  2  2  0
  2  3  1  0
  3  4  2  0
  4  7  1  0
  6  7  2  0
  1  6  1  0
M  END

$$$$
No_1579-/export/home/yangzhenyu/potential_scad_32_flow//YTHDC2/2024-12-06-03-22-00/
     RDKit          3D

 19 20  0  0  0  0  0  0  0  0999 V2000
    1.1787   -8.0297    3.5154 C   0  0  0  0  0  0  0  0  0  0  0  0
    1.1048   -9.2215    3.2892 C   0  0  0  0  0  0  0  0  0  0  0  0
    1.3627  -10.1721    4.3044 C   0  0  0  0  0  0  0  0  0  0  0  0
    1.7354  -11.4730    3.9023 C   0  0  0  0  0  0  0  0  0  0  0  0
    1.8080  -11.8127    2.7216 C   0  0  0  0  0  0  0  0  0  0  0  0
    2.0797  -13.2205    2.4264 C   0  0  0  0  0  0  0  0  0  0  0  0
    1.0424   -7.1607    2.3029 C   0  0  0  0  0  0  0  0  0  0  0  0
    1.1066   -7.6297    1.0940 C   0  0  0  0  0  0  0  0  0  0  0  0
    1.2742   -8.8824    0.8244 C   0  0  0  0  0  0  0  0  0  0  0  0
    1.2734   -9.8055    1.8891 C   0  0  0  0  0  0  0  0  0  0  0  0
    1.6366  -11.0387    1.6628 C   0  0  0  0  0  0  0  0  0  0  0  0
    2.3320  -13.7470    1.2146 O   0  0  0  0  0  0  0  0  0  0  0  0
    2.3886  -14.1597    3.3961 O   0  0  0  0  0  0  0  0  0  0  0  0
    0.9034   -5.6426    2.5080 N   0  0  0  0  0  0  0  0  0  0  0  0
    1.4244   -9.2887   -0.4683 C   0  0  0  0  0  0  0  0  0  0  0  0
    1.4871   -8.8685   -1.3863 O   0  0  0  0  0  0  0  0  0  0  0  0
    1.1432  -10.5893   -0.7227 O   0  0  0  0  0  0  0  0  0  0  0  0
   -0.0279   -4.9497    1.9286 C   0  0  0  0  0  0  0  0  0  0  0  0
    0.2229   -3.5118    1.9817 C   0  0  0  0  0  0  0  0  0  0  0  0
  5  6  1  0
  6 12  2  0
  6 13  1  0
  7 14  1  0
  9 15  1  0
 15 16  2  0
 15 17  1  0
 14 18  1  0
 18 19  1  0
  1  2  2  0
  9 10  2  0
  8  9  1  0
  7  8  2  0
  1  7  1  0
  2  3  1  0
  3  4  2  0
  4  5  1  0
  5 11  2  0
 10 11  1  0
  2 10  1  0
M  END

$$$$
No_1580-/export/home/yangzhenyu/potential_scad_32_flow//YTHDC2/2024-12-06-03-22-00/
     RDKit          3D

 18 19  0  0  0  0  0  0  0  0999 V2000
    1.1787   -8.0297    3.5154 C   0  0  0  0  0  0  0  0  0  0  0  0
    1.1048   -9.2215    3.2892 C   0  0  0  0  0  0  0  0  0  0  0  0
    1.2339   -9.7611    2.0189 C   0  0  0  0  0  0  0  0  0  0  0  0
    1.3583   -9.0036    0.9764 C   0  0  0  0  0  0  0  0  0  0  0  0
    1.5996   -7.6362    1.1311 C   0  0  0  0  0  0  0  0  0  0  0  0
    1.4830   -7.0928    2.3626 C   0  0  0  0  0  0  0  0  0  0  0  0
    1.4898   -5.7274    2.6199 C   0  0  0  0  0  0  0  0  0  0  0  0
    1.1882  -11.3736    1.8424 C   0  0  0  0  0  0  0  0  0  0  0  0
    0.2883  -11.9819    2.0702 C   0  0  0  0  0  0  0  0  0  0  0  0
    0.3067  -13.4537    1.9657 C   0  0  0  0  0  0  0  0  0  0  0  0
    1.5493  -14.1524    2.4293 C   0  0  0  0  0  0  0  0  0  0  0  0
    1.7111  -15.5016    2.1544 C   0  0  0  0  0  0  0  0  0  0  0  0
    0.6764  -16.3285    2.5022 C   0  0  0  0  0  0  0  0  0  0  0  0
    0.7534  -17.6634    2.4855 C   0  0  0  0  0  0  0  0  0  0  0  0
    2.1384  -18.1924    2.2458 C   0  0  0  0  0  0  0  0  0  0  0  0
    3.2501  -17.3714    2.0571 C   0  0  0  0  0  0  0  0  0  0  0  0
    3.0659  -15.9827    2.1194 C   0  0  0  0  0  0  0  0  0  0  0  0
    0.6639   -4.9816    2.7253 C   0  0  0  0  0  0  0  0  0  0  0  0
  6  7  1  0
  3  8  1  0
  8  9  2  3
  9 10  1  0
 10 11  1  0
 11 12  1  0
  7 18  2  0
 12 13  2  0
 13 14  1  0
 14 15  2  0
 15 16  1  0
 16 17  2  0
 12 17  1  0
  1  2  2  0
  2  3  1  0
  3  4  2  0
  4  5  1  0
  5  6  2  0
  1  6  1  0
M  END

$$$$
No_1581-/export/home/yangzhenyu/potential_scad_32_flow//YTHDC2/2024-12-06-03-22-00/
     RDKit          3D

 19 19  0  0  0  0  0  0  0  0999 V2000
    1.1787   -8.0297    3.5154 C   0  0  0  0  0  0  0  0  0  0  0  0
    1.0491   -6.8434    2.9820 C   0  0  0  0  0  0  0  0  0  0  0  0
    0.9905   -9.0774    2.6527 C   0  0  0  0  0  0  0  0  0  0  0  0
    0.7897   -8.9519    1.3691 C   0  0  0  0  0  0  0  0  0  0  0  0
    0.7018   -7.7198    0.7892 C   0  0  0  0  0  0  0  0  0  0  0  0
    0.8918   -6.5957    1.6117 C   0  0  0  0  0  0  0  0  0  0  0  0
    1.0998  -10.4710    3.2437 Cl  0  0  0  0  0  0  0  0  0  0  0  0
    0.8848   -5.2618    1.2216 C   0  0  0  0  0  0  0  0  0  0  0  0
    1.5654   -4.3617    1.9345 O   0  0  0  0  0  0  0  0  0  0  0  0
    0.3246   -4.8879    0.2752 O   0  0  0  0  0  0  0  0  0  0  0  0
    0.6198  -10.0598    0.4548 C   0  0  0  0  0  0  0  0  0  0  0  0
   -0.3776  -10.1339   -0.2538 O   0  0  0  0  0  0  0  0  0  0  0  0
    1.6765  -10.8523    0.1316 O   0  0  0  0  0  0  0  0  0  0  0  0
    1.5783   -2.9403    1.6109 C   0  0  0  0  0  0  0  0  0  0  0  0
    0.8099   -2.2914    2.3058 C   0  0  0  0  0  0  0  0  0  0  0  0
   -0.1490   -1.8284    1.8175 C   0  0  0  0  0  0  0  0  0  0  0  0
   -0.0903   -0.8997    0.8217 C   0  0  0  0  0  0  0  0  0  0  0  0
    0.7843   -1.4446   -0.3190 C   0  0  0  0  0  0  0  0  0  0  0  0
    0.8494   -2.4452   -0.5189 C   0  0  0  0  0  0  0  0  0  0  0  0
  3  7  1  0
  6  8  1  0
  8  9  1  0
  8 10  2  0
  4 11  1  0
 11 12  2  0
 11 13  1  0
  9 14  1  0
 14 15  1  0
 15 16  1  0
 16 17  1  0
 17 18  1  0
 18 19  1  0
  1  2  2  0
  2  6  1  0
  5  6  2  0
  4  5  1  0
  3  4  2  0
  1  3  1  0
M  END

$$$$
No_1582-/export/home/yangzhenyu/potential_scad_32_flow//YTHDC2/2024-12-06-03-22-00/
     RDKit          3D

 19 21  0  0  0  0  0  0  0  0999 V2000
    1.1787   -8.0297    3.5154 C   0  0  0  0  0  0  0  0  0  0  0  0
    1.0491   -6.8434    2.9820 C   0  0  0  0  0  0  0  0  0  0  0  0
    0.0950   -8.8404    3.2292 C   0  0  0  0  0  0  0  0  0  0  0  0
   -0.9173   -8.4596    2.5152 C   0  0  0  0  0  0  0  0  0  0  0  0
   -1.0331   -7.2162    2.0653 C   0  0  0  0  0  0  0  0  0  0  0  0
   -0.0105   -6.3168    2.3081 C   0  0  0  0  0  0  0  0  0  0  0  0
    0.1465  -10.2446    3.6981 C   0  0  0  0  0  0  0  0  0  0  0  0
    1.2433  -10.8239    4.0166 C   0  0  0  0  0  0  0  0  0  0  0  0
    1.0790  -12.2885    4.3779 C   0  0  0  0  0  0  0  0  0  0  0  0
    0.8834  -12.9822    3.2583 C   0  0  0  0  0  0  0  0  0  0  0  0
    0.0265  -12.5445    2.3035 C   0  0  0  0  0  0  0  0  0  0  0  0
   -0.3056  -11.1111    2.4912 C   0  0  0  0  0  0  0  0  0  0  0  0
    1.0942  -14.4341    3.2894 C   0  0  0  0  0  0  0  0  0  0  0  0
    1.5134  -15.1513    2.6331 C   0  0  0  0  0  0  0  0  0  0  0  0
    1.7189  -16.5847    2.9166 N   0  0  0  0  0  0  0  0  0  0  0  0
    1.0460  -16.7172    4.1151 C   0  0  0  0  0  0  0  0  0  0  0  0
    0.7081  -15.4022    4.5611 N   0  0  0  0  0  0  0  0  0  0  0  0
   -0.1067   -4.9926    1.8744 C   0  0  0  0  0  0  0  0  0  0  0  0
   -0.7462   -4.1462    2.2762 C   0  0  0  0  0  0  0  0  0  0  0  0
  3  7  1  0
 10 13  1  0
 13 14  2  0
 14 15  1  0
 15 16  2  0
 13 17  1  0
 16 17  1  0
  6 18  1  0
 18 19  1  0
  1  2  2  0
  2  6  1  0
  5  6  2  0
  4  5  1  0
  3  4  2  0
  1  3  1  0
  7  8  2  0
  8  9  1  0
  9 10  2  0
 10 11  1  0
 11 12  2  0
  7 12  1  0
M  END

$$$$
No_1583-/export/home/yangzhenyu/potential_scad_32_flow//YTHDC2/2024-12-06-03-22-00/
     RDKit          3D

 19 19  0  0  1  0  0  0  0  0999 V2000
    1.1787   -8.0297    3.5154 C   0  0  0  0  0  0  0  0  0  0  0  0
    1.0491   -6.8434    2.9820 C   0  0  0  0  0  0  0  0  0  0  0  0
    1.9985   -8.9840    2.8958 C   0  0  0  0  0  0  0  0  0  0  0  0
    1.9135  -10.3404    3.6266 C   0  0  0  0  0  0  0  0  0  0  0  0
    0.7479  -10.9191    3.7202 C   0  0  0  0  0  0  0  0  0  0  0  0
    0.2782   -6.7158    1.8352 C   0  0  0  0  0  0  0  0  0  0  0  0
    0.0493   -5.5581    1.3972 C   0  0  0  0  0  0  0  0  0  0  0  0
    0.2430  -11.4821    2.5107 C   0  0  0  0  0  0  0  0  0  0  0  0
    0.7237   -4.3904    1.9565 C   0  0  0  0  0  0  0  0  0  0  0  0
    1.6601   -4.5957    3.0532 C   0  0  0  0  0  0  0  0  0  0  0  0
    1.6956   -5.8278    3.6267 C   0  0  0  0  0  0  0  0  0  0  0  0
    1.1118  -12.2885    1.7838 C   0  0  2  0  0  0  0  0  0  0  0  0
    1.1996  -11.9636    0.5600 C   0  0  0  0  0  0  0  0  0  0  0  0
    1.7888  -10.5595    0.3387 C   0  0  0  0  0  0  0  0  0  0  0  0
    1.6524  -13.5005    2.3419 C   0  0  0  0  0  0  0  0  0  0  0  0
    1.3297  -14.0234    3.4487 O   0  0  0  0  0  0  0  0  0  0  0  0
    2.4642  -14.2334    1.5778 O   0  0  0  0  0  0  0  0  0  0  0  0
    0.5944   -3.1179    1.3138 O   0  0  0  0  0  0  0  0  0  0  0  0
    1.1342   -2.0286    1.8059 C   0  0  0  0  0  0  0  0  0  0  0  0
  1  2  1  0
  1  3  1  0
  3  4  1  0
  4  5  1  0
  5  8  1  0
 12  8  1  6
 12 13  1  0
 13 14  1  0
 12 15  1  0
 15 16  1  0
 15 17  2  0
  9 18  1  0
 18 19  1  0
  2  6  2  0
  6  7  1  0
  7  9  2  0
  9 10  1  0
 10 11  2  0
  2 11  1  0
M  END

$$$$
No_1584-/export/home/yangzhenyu/potential_scad_32_flow//YTHDC2/2024-12-06-03-22-00/
     RDKit          3D

 20 21  0  0  1  0  0  0  0  0999 V2000
    1.1787   -8.0297    3.5154 N   0  0  0  0  0  0  0  0  0  0  0  0
    1.0818   -9.0751    3.2053 C   0  0  0  0  0  0  0  0  0  0  0  0
    1.5216  -10.1164    3.9747 C   0  0  0  0  0  0  0  0  0  0  0  0
    1.4420  -11.4363    3.6461 C   0  0  0  0  0  0  0  0  0  0  0  0
    0.5969  -11.7648    2.6785 C   0  0  0  0  0  0  0  0  0  0  0  0
    0.0096  -10.8332    1.9506 C   0  0  0  0  0  0  0  0  0  0  0  0
    0.3359   -9.5186    2.1388 C   0  0  0  0  0  0  0  0  0  0  0  0
    1.1574   -6.9183    2.6875 C   0  0  0  0  0  0  0  0  0  0  0  0
    0.6585   -7.2272    1.4255 C   0  0  0  0  0  0  0  0  0  0  0  0
    0.2266   -8.4755    1.1116 C   0  0  2  0  0  0  0  0  0  0  0  0
   -0.4196   -8.6475   -0.0393 C   0  0  0  0  0  0  0  0  0  0  0  0
    0.2801   -9.0443   -1.2378 C   0  0  0  0  0  0  0  0  0  0  0  0
    1.5301   -9.3981   -1.1417 O   0  0  0  0  0  0  0  0  0  0  0  0
   -0.2846   -9.2503   -2.3382 O   0  0  0  0  0  0  0  0  0  0  0  0
    0.3298  -13.4058    2.3648 O   0  0  0  0  0  0  0  0  0  0  0  0
    1.3196  -14.1957    2.7712 C   0  0  0  0  0  0  0  0  0  0  0  0
    0.3880   -6.1039    0.7000 O   0  0  0  0  0  0  0  0  0  0  0  0
    0.7747  -15.4721    2.9257 C   0  0  0  0  0  0  0  0  0  0  0  0
    1.5541  -16.4909    3.3846 O   0  0  0  0  0  0  0  0  0  0  0  0
   -0.4160  -15.6788    2.7609 O   0  0  0  0  0  0  0  0  0  0  0  0
  1  2  1  0
  8  9  1  0
  7 10  1  0
  9 10  1  0
 10 11  1  1
 11 12  1  0
 12 13  1  0
 12 14  2  0
  5 15  1  0
 15 16  1  0
  9 17  2  0
 16 18  1  0
 18 19  1  0
 18 20  2  0
  1  8  1  0
  2  3  2  0
  3  4  1  0
  4  5  2  0
  5  6  1  0
  6  7  2  0
  2  7  1  0
M  END

$$$$
No_1585-/export/home/yangzhenyu/potential_scad_32_flow//YTHDC2/2024-12-06-03-22-00/
     RDKit          3D

 20 21  0  0  0  0  0  0  0  0999 V2000
    1.1787   -8.0297    3.5154 C   0  0  0  0  0  0  0  0  0  0  0  0
    1.0491   -6.8434    2.9820 C   0  0  0  0  0  0  0  0  0  0  0  0
    0.2462   -8.9560    3.0873 C   0  0  0  0  0  0  0  0  0  0  0  0
    0.3295   -6.5187    1.9069 C   0  0  0  0  0  0  0  0  0  0  0  0
   -0.5260   -8.7862    2.1368 C   0  0  0  0  0  0  0  0  0  0  0  0
   -0.5458   -7.5614    1.5054 C   0  0  0  0  0  0  0  0  0  0  0  0
    0.4051  -10.4356    3.8147 C   0  0  0  0  0  0  0  0  0  0  0  0
    0.4763  -11.5737    2.9103 C   0  0  0  0  0  0  0  0  0  0  0  0
    1.1829  -12.3364    3.1096 C   0  0  0  0  0  0  0  0  0  0  0  0
    1.2050  -13.6317    2.4680 C   0  0  0  0  0  0  0  0  0  0  0  0
    0.3678  -13.8791    1.5889 C   0  0  0  0  0  0  0  0  0  0  0  0
   -0.4581  -12.8991    1.1243 C   0  0  0  0  0  0  0  0  0  0  0  0
   -0.4977  -11.7356    1.8363 C   0  0  0  0  0  0  0  0  0  0  0  0
    0.3328   -5.2802    1.3192 Cl  0  0  0  0  0  0  0  0  0  0  0  0
    2.1916  -14.7180    2.8356 Cl  0  0  0  0  0  0  0  0  0  0  0  0
    0.0749  -10.3819    5.0410 O   0  0  0  0  0  0  0  0  0  0  0  0
   -1.4059  -13.0577    0.0538 N   0  0  0  0  0  0  0  0  0  0  0  0
   -1.2354  -12.3672   -1.0084 C   0  0  0  0  0  0  0  0  0  0  0  0
   -1.9955  -12.7289   -2.1141 C   0  0  0  0  0  0  0  0  0  0  0  0
   -2.0069  -12.0318   -3.2791 C   0  0  0  0  0  0  0  0  0  0  0  0
  3  7  1  0
  7  8  1  0
  4 14  1  0
 10 15  1  0
  7 16  2  0
 12 17  1  0
 17 18  1  0
 18 19  1  0
 19 20  2  0
  1  2  2  0
  2  4  1  0
  4  6  2  0
  5  6  1  0
  3  5  2  0
  1  3  1  0
  8  9  2  0
  9 10  1  0
 10 11  2  0
 11 12  1  0
 12 13  2  0
  8 13  1  0
M  END

$$$$
No_1586-/export/home/yangzhenyu/potential_scad_32_flow//YTHDC2/2024-12-06-03-22-00/
     RDKit          3D

 19 20  0  0  0  0  0  0  0  0999 V2000
    1.1787   -8.0297    3.5154 C   0  0  0  0  0  0  0  0  0  0  0  0
    1.0491   -6.8434    2.9820 N   0  0  0  0  0  0  0  0  0  0  0  0
    1.0164   -9.0814    2.6596 C   0  0  0  0  0  0  0  0  0  0  0  0
    0.8420   -8.8183    1.4191 I   0  0  0  0  0  0  0  0  0  0  0  0
    1.2808  -10.4746    3.4321 C   0  0  0  0  0  0  0  0  0  0  0  0
    1.1734  -11.5475    2.9548 C   0  0  0  0  0  0  0  0  0  0  0  0
    1.4533  -12.7736    3.6783 C   0  0  0  0  0  0  0  0  0  0  0  0
    1.2213  -14.0543    3.1320 C   0  0  0  0  0  0  0  0  0  0  0  0
    0.9839  -14.1900    1.8045 C   0  0  0  0  0  0  0  0  0  0  0  0
    0.8569  -13.0163    0.9529 C   0  0  0  0  0  0  0  0  0  0  0  0
    0.9504  -11.7847    1.5508 C   0  0  0  0  0  0  0  0  0  0  0  0
    0.3161   -6.1902    2.1980 C   0  0  0  0  0  0  0  0  0  0  0  0
   -0.9206   -6.1995    2.4438 C   0  0  0  0  0  0  0  0  0  0  0  0
   -1.8058   -5.3058    1.6963 C   0  0  0  0  0  0  0  0  0  0  0  0
   -1.2239   -4.5317    0.7731 C   0  0  0  0  0  0  0  0  0  0  0  0
    0.1061   -4.5661    0.5449 C   0  0  0  0  0  0  0  0  0  0  0  0
    0.9385   -5.3694    1.3402 C   0  0  0  0  0  0  0  0  0  0  0  0
    1.0053  -15.3881    1.2407 C   0  0  0  0  0  0  0  0  0  0  0  0
    1.7331  -16.4210    1.7192 C   0  0  0  0  0  0  0  0  0  0  0  0
  1  2  1  0
  1  3  2  3
  3  4  1  0
  3  5  1  0
  2 12  1  0
  9 18  1  0
 18 19  2  0
  5  6  1  0
 12 13  2  0
 13 14  1  0
 14 15  2  0
 15 16  1  0
 16 17  2  0
 12 17  1  0
  6  7  2  0
  7  8  1  0
  8  9  2  0
  9 10  1  0
 10 11  2  0
  6 11  1  0
M  END

$$$$
No_1587-/export/home/yangzhenyu/potential_scad_32_flow//YTHDC2/2024-12-06-03-22-00/
     RDKit          3D

 19 21  0  0  0  0  0  0  0  0999 V2000
    1.1787   -8.0297    3.5154 C   0  0  0  0  0  0  0  0  0  0  0  0
    1.1048   -9.2215    3.2892 C   0  0  0  0  0  0  0  0  0  0  0  0
    1.3627  -10.1721    4.3044 C   0  0  0  0  0  0  0  0  0  0  0  0
    1.0682  -11.5187    4.0618 C   0  0  0  0  0  0  0  0  0  0  0  0
    0.6332  -11.9655    2.9682 C   0  0  0  0  0  0  0  0  0  0  0  0
    0.4776  -11.1308    1.9203 C   0  0  0  0  0  0  0  0  0  0  0  0
    0.7470   -9.8274    2.0368 C   0  0  0  0  0  0  0  0  0  0  0  0
    1.0387   -7.0301    2.5175 C   0  0  0  0  0  0  0  0  0  0  0  0
    0.9130   -7.5288    1.2013 C   0  0  0  0  0  0  0  0  0  0  0  0
    0.7893   -8.7980    0.9542 C   0  0  0  0  0  0  0  0  0  0  0  0
    0.5241   -9.2578   -0.2817 C   0  0  0  0  0  0  0  0  0  0  0  0
   -0.7560   -9.7391   -0.6285 O   0  0  0  0  0  0  0  0  0  0  0  0
    1.3013   -8.9300   -1.2618 O   0  0  0  0  0  0  0  0  0  0  0  0
    0.5064  -13.3732    2.6887 C   0  0  0  0  0  0  0  0  0  0  0  0
    1.4653  -14.2195    3.1737 C   0  0  0  0  0  0  0  0  0  0  0  0
    1.2477  -15.6435    2.9859 C   0  0  0  0  0  0  0  0  0  0  0  0
    0.3617  -16.1097    2.2420 C   0  0  0  0  0  0  0  0  0  0  0  0
   -0.5255  -15.2630    1.6521 C   0  0  0  0  0  0  0  0  0  0  0  0
   -0.3683  -13.9088    1.8551 C   0  0  0  0  0  0  0  0  0  0  0  0
 10 11  1  0
 11 12  2  0
 11 13  1  0
  5 14  1  0
  2  3  1  0
  3  4  2  0
  4  5  1  0
  5  6  2  0
  6  7  1  0
  1  2  2  0
  2  7  1  0
  7 10  2  0
  9 10  1  0
  8  9  2  0
  1  8  1  0
 14 15  2  0
 15 16  1  0
 16 17  2  0
 17 18  1  0
 18 19  2  0
 14 19  1  0
M  END

$$$$
No_1588-/export/home/yangzhenyu/potential_scad_32_flow//YTHDC2/2024-12-06-03-22-00/
     RDKit          3D

 19 20  0  0  1  0  0  0  0  0999 V2000
    1.1787   -8.0297    3.5154 C   0  0  0  0  0  0  0  0  0  0  0  0
    1.0491   -6.8434    2.9820 C   0  0  1  0  0  0  0  0  0  0  0  0
    0.0950   -8.8404    3.2292 N   0  0  0  0  0  0  0  0  0  0  0  0
    1.1585   -5.6295    3.6597 C   0  0  0  0  0  0  0  0  0  0  0  0
    0.1915  -10.0365    3.7532 C   0  0  2  0  0  0  0  0  0  0  0  0
    1.3765  -10.5715    4.3102 C   0  0  0  0  0  0  0  0  0  0  0  0
    1.9016  -11.7074    3.6423 C   0  0  0  0  0  0  0  0  0  0  0  0
    1.0532  -12.4816    2.9755 C   0  0  0  0  0  0  0  0  0  0  0  0
   -0.2804  -12.1560    2.8038 C   0  0  0  0  0  0  0  0  0  0  0  0
   -0.7113  -10.9233    3.2223 C   0  0  0  0  0  0  0  0  0  0  0  0
    1.4803  -13.8393    2.6148 C   0  0  1  0  0  0  0  0  0  0  0  0
    2.6063  -14.0013    1.8801 C   0  0  0  0  0  0  0  0  0  0  0  0
    0.9476   -4.4087    3.0179 C   0  0  0  0  0  0  0  0  0  0  0  0
    0.9565   -4.4105    1.6028 C   0  0  0  0  0  0  0  0  0  0  0  0
    0.8785   -5.5500    0.9065 C   0  0  0  0  0  0  0  0  0  0  0  0
    0.9749   -6.7804    1.5586 C   0  0  0  0  0  0  0  0  0  0  0  0
    1.0834   -7.8472    0.8268 S   0  0  0  0  0  0  0  0  0  0  0  0
    0.9483  -15.0088    3.1583 C   0  0  0  0  0  0  0  0  0  0  0  0
    1.4504  -16.2691    2.7669 C   0  0  0  0  0  0  0  0  0  0  0  0
  2  1  1  6
  1  3  1  0
  2  4  1  0
  5  3  1  6
  5  6  1  0
  6  7  2  0
  7  8  1  0
  8  9  2  0
  5 10  1  0
  9 10  1  0
  8 11  1  0
 11 12  1  1
  4 13  2  0
 13 14  1  0
 14 15  2  0
  2 16  1  0
 15 16  1  0
 16 17  2  0
 11 18  1  0
 18 19  2  0
M  END

$$$$
No_1589-/export/home/yangzhenyu/potential_scad_32_flow//YTHDC2/2024-12-06-03-22-00/
     RDKit          3D

 17 18  0  0  0  0  0  0  0  0999 V2000
    1.1787   -8.0297    3.5154 C   0  0  0  0  0  0  0  0  0  0  0  0
    1.1048   -9.2215    3.2892 C   0  0  0  0  0  0  0  0  0  0  0  0
    1.2339   -9.7611    2.0189 C   0  0  0  0  0  0  0  0  0  0  0  0
    1.3583   -9.0036    0.9764 C   0  0  0  0  0  0  0  0  0  0  0  0
    1.5996   -7.6362    1.1311 C   0  0  0  0  0  0  0  0  0  0  0  0
    1.4830   -7.0928    2.3626 C   0  0  0  0  0  0  0  0  0  0  0  0
    1.1008  -11.2372    1.8542 C   0  0  0  0  0  0  0  0  0  0  0  0
    1.9749  -12.0938    2.2342 C   0  0  0  0  0  0  0  0  0  0  0  0
    1.5180  -13.3509    2.5910 C   0  0  0  0  0  0  0  0  0  0  0  0
    0.4120  -13.9272    2.2191 C   0  0  0  0  0  0  0  0  0  0  0  0
   -0.5860  -13.0563    1.8308 C   0  0  0  0  0  0  0  0  0  0  0  0
   -0.2264  -11.7453    1.4928 C   0  0  0  0  0  0  0  0  0  0  0  0
    1.5759   -5.6593    2.6277 Cl  0  0  0  0  0  0  0  0  0  0  0  0
    0.0877  -15.3776    2.5878 C   0  0  0  0  0  0  0  0  0  0  0  0
    1.0365  -16.0479    3.2252 C   0  0  0  0  0  0  0  0  0  0  0  0
    0.8880  -17.3917    3.5562 C   0  0  0  0  0  0  0  0  0  0  0  0
    0.1184  -18.0413    3.2466 C   0  0  0  0  0  0  0  0  0  0  0  0
  3  7  1  0
  6 13  1  0
 10 14  1  0
 14 15  2  3
 15 16  1  0
 16 17  2  0
  1  2  2  0
  2  3  1  0
  3  4  2  0
  4  5  1  0
  5  6  2  0
  1  6  1  0
  7  8  2  0
  8  9  1  0
  9 10  2  0
 10 11  1  0
 11 12  2  0
  7 12  1  0
M  END

$$$$
No_1590-/export/home/yangzhenyu/potential_scad_32_flow//YTHDC2/2024-12-06-03-22-00/
     RDKit          3D

 16 17  0  0  0  0  0  0  0  0999 V2000
    1.1787   -8.0297    3.5154 C   0  0  0  0  0  0  0  0  0  0  0  0
    1.0491   -6.8434    2.9820 C   0  0  0  0  0  0  0  0  0  0  0  0
    0.9905   -9.0774    2.6527 C   0  0  0  0  0  0  0  0  0  0  0  0
    0.7897   -8.9519    1.3691 C   0  0  0  0  0  0  0  0  0  0  0  0
    0.7018   -7.7198    0.7892 C   0  0  0  0  0  0  0  0  0  0  0  0
    0.8918   -6.5957    1.6117 C   0  0  0  0  0  0  0  0  0  0  0  0
    1.0998  -10.4710    3.2437 C   0  0  0  0  0  0  0  0  0  0  0  0
    0.0471  -11.2546    3.3963 C   0  0  0  0  0  0  0  0  0  0  0  0
   -0.3712  -11.7969    2.5371 C   0  0  0  0  0  0  0  0  0  0  0  0
    0.5261  -12.4782    1.6616 C   0  0  0  0  0  0  0  0  0  0  0  0
    1.8059  -11.8186    1.4781 C   0  0  0  0  0  0  0  0  0  0  0  0
    2.0775  -10.8941    2.3564 C   0  0  0  0  0  0  0  0  0  0  0  0
    0.8967   -5.2354    1.2225 O   0  0  0  0  0  0  0  0  0  0  0  0
    0.2409  -13.5094    0.7853 C   0  0  0  0  0  0  0  0  0  0  0  0
   -0.7314  -13.3516   -0.2157 C   0  0  0  0  0  0  0  0  0  0  0  0
   -1.0892  -14.3474   -1.0907 C   0  0  0  0  0  0  0  0  0  0  0  0
  1  2  1  0
  3  4  1  0
  2  6  1  0
  5  6  1  0
  3  7  1  0
  6 13  2  0
 10 14  1  0
 14 15  1  0
 15 16  2  0
  1  3  1  0
  4  5  1  0
  7  8  2  0
  8  9  1  0
  9 10  2  0
 10 11  1  0
 11 12  2  0
  7 12  1  0
M  END

$$$$
No_1591-/export/home/yangzhenyu/potential_scad_32_flow//YTHDC2/2024-12-06-03-22-00/
     RDKit          3D

 19 21  0  0  0  0  0  0  0  0999 V2000
    1.1787   -8.0297    3.5154 C   0  0  0  0  0  0  0  0  0  0  0  0
    1.1048   -9.2215    3.2892 C   0  0  0  0  0  0  0  0  0  0  0  0
    1.3627  -10.1721    4.3044 C   0  0  0  0  0  0  0  0  0  0  0  0
    1.0682  -11.5187    4.0618 C   0  0  0  0  0  0  0  0  0  0  0  0
    0.6332  -11.9655    2.9682 C   0  0  0  0  0  0  0  0  0  0  0  0
    0.4776  -11.1308    1.9203 C   0  0  0  0  0  0  0  0  0  0  0  0
    0.7470   -9.8274    2.0368 C   0  0  0  0  0  0  0  0  0  0  0  0
    1.0387   -7.0301    2.5175 C   0  0  0  0  0  0  0  0  0  0  0  0
    0.9130   -7.5288    1.2013 C   0  0  0  0  0  0  0  0  0  0  0  0
    0.7893   -8.7979    0.9542 C   0  0  0  0  0  0  0  0  0  0  0  0
    0.3998  -13.3695    2.7114 C   0  0  0  0  0  0  0  0  0  0  0  0
   -0.8069  -13.8090    2.3159 C   0  0  0  0  0  0  0  0  0  0  0  0
   -1.0012  -15.1954    2.1657 C   0  0  0  0  0  0  0  0  0  0  0  0
   -0.0060  -16.1116    2.2775 C   0  0  0  0  0  0  0  0  0  0  0  0
    1.3310  -15.6885    2.7363 C   0  0  0  0  0  0  0  0  0  0  0  0
    1.5390  -14.2972    2.9647 C   0  0  0  0  0  0  0  0  0  0  0  0
    0.4415   -9.2683   -0.3642 Cl  0  0  0  0  0  0  0  0  0  0  0  0
    1.2937   -5.5878    2.6510 C   0  0  0  0  0  0  0  0  0  0  0  0
    1.0620   -4.7121    1.7218 O   0  0  0  0  0  0  0  0  0  0  0  0
  5 11  1  0
 10 17  1  0
  8 18  1  0
 18 19  2  0
 11 12  2  0
 12 13  1  0
 13 14  2  0
 14 15  1  0
 15 16  2  0
 11 16  1  0
  2  3  1  0
  3  4  2  0
  4  5  1  0
  5  6  2  0
  6  7  1  0
  1  2  2  0
  2  7  1  0
  7 10  2  0
  9 10  1  0
  8  9  2  0
  1  8  1  0
M  END

$$$$
No_1592-/export/home/yangzhenyu/potential_scad_32_flow//YTHDC2/2024-12-06-03-22-00/
     RDKit          3D

 15 16  0  0  1  0  0  0  0  0999 V2000
    1.1787   -8.0297    3.5154 C   0  0  0  0  0  0  0  0  0  0  0  0
    1.1048   -9.2215    3.2892 C   0  0  0  0  0  0  0  0  0  0  0  0
    1.3627  -10.1721    4.3044 C   0  0  0  0  0  0  0  0  0  0  0  0
    1.7354  -11.4730    3.9023 C   0  0  0  0  0  0  0  0  0  0  0  0
    1.8080  -11.8127    2.7216 C   0  0  0  0  0  0  0  0  0  0  0  0
    1.5854  -11.0021    1.7249 C   0  0  0  0  0  0  0  0  0  0  0  0
    1.3573   -9.7389    1.9287 C   0  0  0  0  0  0  0  0  0  0  0  0
    1.2865   -8.8078    0.9161 C   0  0  0  0  0  0  0  0  0  0  0  0
    1.6845   -9.1638   -0.2896 O   0  0  0  0  0  0  0  0  0  0  0  0
    0.6173   -7.6210    0.9782 N   0  0  0  0  0  0  0  0  0  0  0  0
    0.6678   -7.1338    2.2964 C   0  0  2  0  0  0  0  0  0  0  0  0
    0.4336   -5.7725    2.4079 C   0  0  0  0  0  0  0  0  0  0  0  0
    1.4067   -4.9031    2.7472 C   0  0  0  0  0  0  0  0  0  0  0  0
    2.1362  -13.4413    2.3269 N   0  0  0  0  0  0  0  0  0  0  0  0
    1.9417  -13.8043    1.1112 O   0  0  0  0  0  0  0  0  0  0  0  0
  1  2  1  0
  7  8  1  0
  8  9  2  0
  8 10  1  0
  1 11  1  0
 10 11  1  0
 11 12  1  6
 12 13  1  0
  5 14  1  0
 14 15  2  0
  2  3  2  0
  3  4  1  0
  4  5  2  0
  5  6  1  0
  6  7  2  0
  2  7  1  0
M  END

$$$$
No_1593-/export/home/yangzhenyu/potential_scad_32_flow//YTHDC2/2024-12-06-03-22-00/
     RDKit          3D

 19 20  0  0  1  0  0  0  0  0999 V2000
    1.1787   -8.0297    3.5154 C   0  0  0  0  0  0  0  0  0  0  0  0
    1.1048   -9.2215    3.2892 C   0  0  0  0  0  0  0  0  0  0  0  0
    1.2339   -9.7611    2.0189 C   0  0  0  0  0  0  0  0  0  0  0  0
    1.3583   -9.0036    0.9764 C   0  0  0  0  0  0  0  0  0  0  0  0
    1.5996   -7.6362    1.1311 C   0  0  0  0  0  0  0  0  0  0  0  0
    1.4830   -7.0928    2.3626 C   0  0  0  0  0  0  0  0  0  0  0  0
    1.4898   -5.7274    2.6199 C   0  0  0  0  0  0  0  0  0  0  0  0
    1.1681  -11.2222    1.8390 C   0  0  1  0  0  0  0  0  0  0  0  0
    1.9047  -12.1147    2.3357 C   0  0  0  0  0  0  0  0  0  0  0  0
    1.2927  -13.3233    2.7474 C   0  0  0  0  0  0  0  0  0  0  0  0
    0.1154  -13.2943    3.1567 C   0  0  0  0  0  0  0  0  0  0  0  0
   -0.7041  -12.5647    2.3499 C   0  0  2  0  0  0  0  0  0  0  0  0
   -0.1189  -11.3574    1.9115 C   0  0  0  0  0  0  0  0  0  0  0  0
    1.2563   -4.8432    1.6164 C   0  0  0  0  0  0  0  0  0  0  0  0
    1.1724   -3.3890    1.8602 C   0  0  0  0  0  0  0  0  0  0  0  0
   -2.0926  -12.5241    2.7601 C   0  0  0  0  0  0  0  0  0  0  0  0
   -2.8255  -13.7131    2.6348 C   0  0  0  0  0  0  0  0  0  0  0  0
   -2.1330  -14.5961    1.8621 C   0  0  0  0  0  0  0  0  0  0  0  0
   -0.9816  -14.6074    1.2959 C   0  0  0  0  0  0  0  0  0  0  0  0
  6  7  1  0
  8  3  1  1
  8  9  1  0
  9 10  1  0
 10 11  1  0
 12 11  1  1
  8 13  1  0
 12 13  1  0
  7 14  2  3
 14 15  1  0
 12 16  1  0
 16 17  2  3
 17 18  1  0
 18 19  2  0
  1  2  2  0
  2  3  1  0
  3  4  2  0
  4  5  1  0
  5  6  2  0
  1  6  1  0
M  END

$$$$
No_1594-/export/home/yangzhenyu/potential_scad_32_flow//YTHDC2/2024-12-06-03-22-00/
     RDKit          3D

 19 19  0  0  0  0  0  0  0  0999 V2000
    1.1787   -8.0297    3.5154 C   0  0  0  0  0  0  0  0  0  0  0  0
    1.0491   -6.8434    2.9820 C   0  0  0  0  0  0  0  0  0  0  0  0
    0.0950   -8.8404    3.2292 C   0  0  0  0  0  0  0  0  0  0  0  0
   -0.9173   -8.4596    2.5152 C   0  0  0  0  0  0  0  0  0  0  0  0
   -1.0331   -7.2162    2.0653 C   0  0  0  0  0  0  0  0  0  0  0  0
   -0.0105   -6.3168    2.3081 C   0  0  0  0  0  0  0  0  0  0  0  0
    0.1150   -4.9910    1.8495 C   0  0  0  0  0  0  0  0  0  0  0  0
   -0.5774   -4.1593    2.0596 N   0  0  0  0  0  0  0  0  0  0  0  0
    0.1680  -10.2877    3.7012 C   0  0  0  0  0  0  0  0  0  0  0  0
   -1.0762  -10.9526    3.8329 C   0  0  0  0  0  0  0  0  0  0  0  0
    1.4067  -10.9465    4.0445 C   0  0  0  0  0  0  0  0  0  0  0  0
    2.6181  -10.4353    4.1503 C   0  0  0  0  0  0  0  0  0  0  0  0
   -0.5628   -2.8976    1.5242 C   0  0  0  0  0  0  0  0  0  0  0  0
    0.9488   -4.6427    0.8128 O   0  0  0  0  0  0  0  0  0  0  0  0
    3.2659  -11.1520    5.3333 C   0  0  0  0  0  0  0  0  0  0  0  0
    3.0453  -10.3620    6.4316 O   0  0  0  0  0  0  0  0  0  0  0  0
    1.1500  -12.3002    4.1366 O   0  0  0  0  0  0  0  0  0  0  0  0
   -1.4778   -2.5622    0.5016 C   0  0  0  0  0  0  0  0  0  0  0  0
   -1.3010   -1.3135   -0.1906 C   0  0  0  0  0  0  0  0  0  0  0  0
  6  7  1  0
  7  8  1  0
  3  9  1  0
  9 10  2  0
  9 11  1  0
 11 12  1  0
  8 13  1  0
  7 14  2  0
 12 15  1  0
 15 16  1  0
 11 17  2  0
 13 18  2  3
 18 19  1  0
  1  2  2  0
  2  6  1  0
  5  6  2  0
  4  5  1  0
  3  4  2  0
  1  3  1  0
M  END

$$$$
No_1595-/export/home/yangzhenyu/potential_scad_32_flow//YTHDC2/2024-12-06-03-22-00/
     RDKit          3D

 19 19  0  0  1  0  0  0  0  0999 V2000
    1.1787   -8.0297    3.5154 C   0  0  0  0  0  0  0  0  0  0  0  0
    1.0491   -6.8434    2.9820 C   0  0  0  0  0  0  0  0  0  0  0  0
    0.0950   -8.8404    3.2292 C   0  0  0  0  0  0  0  0  0  0  0  0
   -0.9173   -8.4596    2.5152 C   0  0  0  0  0  0  0  0  0  0  0  0
   -1.0331   -7.2162    2.0653 C   0  0  0  0  0  0  0  0  0  0  0  0
   -0.0105   -6.3168    2.3081 C   0  0  0  0  0  0  0  0  0  0  0  0
    0.1465  -10.2446    3.6981 C   0  0  0  0  0  0  0  0  0  0  0  0
   -1.0337  -10.8619    3.9439 O   0  0  0  0  0  0  0  0  0  0  0  0
    1.2886  -10.9585    3.9479 N   0  0  0  0  0  0  0  0  0  0  0  0
    1.5817  -12.0825    3.6671 C   0  0  0  0  0  0  0  0  0  0  0  0
    1.5372  -12.3698    2.1850 C   0  0  1  0  0  0  0  0  0  0  0  0
    1.7837  -11.1634    1.4068 C   0  0  0  0  0  0  0  0  0  0  0  0
    1.2104  -11.0862    0.2317 C   0  0  0  0  0  0  0  0  0  0  0  0
    0.0921  -10.4917    0.1935 C   0  0  0  0  0  0  0  0  0  0  0  0
    1.4903  -13.6171    1.7533 C   0  0  0  0  0  0  0  0  0  0  0  0
   -0.0279   -5.0089    1.7957 C   0  0  0  0  0  0  0  0  0  0  0  0
   -0.6852   -4.6638    0.7402 C   0  0  0  0  0  0  0  0  0  0  0  0
   -1.0218   -3.3473    0.6383 C   0  0  0  0  0  0  0  0  0  0  0  0
   -0.2368   -2.3588    1.2264 C   0  0  0  0  0  0  0  0  0  0  0  0
  3  7  1  0
  7  8  2  0
  7  9  1  0
  9 10  1  0
 10 11  1  0
 11 12  1  0
 12 13  1  0
 13 14  1  0
 11 15  1  1
  6 16  1  0
 16 17  1  0
 17 18  2  3
 18 19  1  0
  1  2  2  0
  2  6  1  0
  5  6  2  0
  4  5  1  0
  3  4  2  0
  1  3  1  0
M  END

$$$$
No_1596-/export/home/yangzhenyu/potential_scad_32_flow//YTHDC2/2024-12-06-03-22-00/
     RDKit          3D

 18 18  0  0  1  0  0  0  0  0999 V2000
    1.1787   -8.0297    3.5154 C   0  0  0  0  0  0  0  0  0  0  0  0
    1.0491   -6.8434    2.9820 C   0  0  0  0  0  0  0  0  0  0  0  0
    0.9905   -9.0774    2.6527 C   0  0  0  0  0  0  0  0  0  0  0  0
    0.7897   -8.9519    1.3691 C   0  0  0  0  0  0  0  0  0  0  0  0
    0.7018   -7.7198    0.7892 C   0  0  0  0  0  0  0  0  0  0  0  0
    0.8918   -6.5957    1.6117 C   0  0  0  0  0  0  0  0  0  0  0  0
    1.0711  -10.4814    3.2282 C   0  0  1  0  0  0  0  0  0  0  0  0
    2.1432  -11.0138    3.5962 C   0  0  0  0  0  0  0  0  0  0  0  0
   -0.0912  -10.6996    4.1636 C   0  0  0  0  0  0  0  0  0  0  0  0
    0.8866   -5.0514    1.0520 Cl  0  0  0  0  0  0  0  0  0  0  0  0
    3.1236  -10.4189    4.0472 O   0  0  0  0  0  0  0  0  0  0  0  0
    2.0134  -12.4419    3.8754 O   0  0  0  0  0  0  0  0  0  0  0  0
   -1.4325  -10.7362    3.5649 C   0  0  0  0  0  0  0  0  0  0  0  0
   -2.3515   -9.9445    3.8409 C   0  0  0  0  0  0  0  0  0  0  0  0
   -2.3517   -9.3101    5.0515 C   0  0  0  0  0  0  0  0  0  0  0  0
   -2.9274   -7.9619    5.2337 C   0  0  0  0  0  0  0  0  0  0  0  0
   -3.5795   -7.5185    4.1618 C   0  0  0  0  0  0  0  0  0  0  0  0
   -3.5370   -8.0929    2.9248 C   0  0  0  0  0  0  0  0  0  0  0  0
  3  7  1  0
  7  8  1  0
  7  9  1  1
  6 10  1  0
  8 11  2  0
  8 12  1  0
  9 13  1  0
 13 14  1  0
 14 15  1  0
 15 16  2  3
 16 17  1  0
 17 18  2  0
  1  2  2  0
  2  6  1  0
  5  6  2  0
  4  5  1  0
  3  4  2  0
  1  3  1  0
M  END

$$$$
No_1597-/export/home/yangzhenyu/potential_scad_32_flow//YTHDC2/2024-12-06-03-22-00/
     RDKit          3D

 20 21  0  0  1  0  0  0  0  0999 V2000
    1.1787   -8.0297    3.5154 C   0  0  0  0  0  0  0  0  0  0  0  0
    1.0491   -6.8434    2.9820 C   0  0  0  0  0  0  0  0  0  0  0  0
    0.9905   -9.0774    2.6527 C   0  0  0  0  0  0  0  0  0  0  0  0
    0.7897   -8.9519    1.3691 C   0  0  0  0  0  0  0  0  0  0  0  0
    0.7018   -7.7198    0.7892 C   0  0  0  0  0  0  0  0  0  0  0  0
    0.8918   -6.5957    1.6117 C   0  0  0  0  0  0  0  0  0  0  0  0
    1.0711  -10.4814    3.2282 C   0  0  0  0  0  0  0  0  0  0  0  0
   -0.1055  -11.1328    3.5223 C   0  0  1  0  0  0  0  0  0  0  0  0
   -1.2061  -10.3495    3.8837 I   0  0  0  0  0  0  0  0  0  0  0  0
   -0.2270  -12.1802    2.4251 C   0  0  0  0  0  0  0  0  0  0  0  0
    0.8186  -13.2866    2.4075 C   0  0  0  0  0  0  0  0  0  0  0  0
    1.2562  -13.8704    1.3507 C   0  0  2  0  0  0  0  0  0  0  0  0
    1.1084  -13.3240    0.1378 C   0  0  0  0  0  0  0  0  0  0  0  0
    0.9806  -15.3737    1.3434 C   0  0  0  0  0  0  0  0  0  0  0  0
    0.1755  -15.7844    0.4813 N   0  0  0  0  0  0  0  0  0  0  0  0
    2.1515  -16.1535    1.5685 O   0  0  0  0  0  0  0  0  0  0  0  0
    0.1002  -13.8000   -0.7128 C   0  0  0  0  0  0  0  0  0  0  0  0
   -0.1537  -15.1408   -0.7247 C   0  0  0  0  0  0  0  0  0  0  0  0
    0.8632   -5.2849    1.1022 O   0  0  0  0  0  0  0  0  0  0  0  0
    0.6867   -9.9489    0.3276 C   0  0  0  0  0  0  0  0  0  0  0  0
  3  7  1  0
  7  8  1  0
  8  9  1  6
  8 10  1  0
 10 11  1  0
 12 11  1  1
 12 13  1  0
 12 14  1  0
 14 15  1  0
 14 16  2  0
 15 18  1  0
 17 18  1  0
  6 19  1  0
  4 20  1  0
 13 17  1  0
  1  2  2  0
  2  6  1  0
  5  6  2  0
  4  5  1  0
  3  4  2  0
  1  3  1  0
M  END

$$$$
No_1598-/export/home/yangzhenyu/potential_scad_32_flow//YTHDC2/2024-12-06-03-22-00/
     RDKit          3D

 20 21  0  0  1  0  0  0  0  0999 V2000
    1.1787   -8.0297    3.5154 C   0  0  0  0  0  0  0  0  0  0  0  0
    1.0491   -6.8434    2.9820 C   0  0  0  0  0  0  0  0  0  0  0  0
    1.9985   -8.9840    2.8958 C   0  0  2  0  0  0  0  0  0  0  0  0
    1.7297   -9.2108    1.6335 C   0  0  0  0  0  0  0  0  0  0  0  0
    1.7343   -8.0566    0.8408 C   0  0  0  0  0  0  0  0  0  0  0  0
    1.0269   -6.8892    1.4456 C   0  0  0  0  0  0  0  0  0  0  0  0
    2.0740   -7.9416   -0.3682 O   0  0  0  0  0  0  0  0  0  0  0  0
    1.9646  -10.3580    3.5767 C   0  0  2  0  0  0  0  0  0  0  0  0
    2.8852  -10.5868    4.4417 C   0  0  0  0  0  0  0  0  0  0  0  0
    1.2069  -11.3402    3.1365 C   0  0  0  0  0  0  0  0  0  0  0  0
   -0.1988  -11.1175    3.2845 C   0  0  0  0  0  0  0  0  0  0  0  0
   -1.1206  -12.0454    2.7980 C   0  0  0  0  0  0  0  0  0  0  0  0
   -0.6912  -13.1944    2.2785 C   0  0  0  0  0  0  0  0  0  0  0  0
    0.6705  -13.5403    2.2306 C   0  0  0  0  0  0  0  0  0  0  0  0
    1.6251  -12.5350    2.6310 C   0  0  0  0  0  0  0  0  0  0  0  0
    3.2219  -11.4572    5.2350 O   0  0  0  0  0  0  0  0  0  0  0  0
    1.1244  -14.7513    1.7250 C   0  0  0  0  0  0  0  0  0  0  0  0
    0.6858  -15.7869    2.1881 O   0  0  0  0  0  0  0  0  0  0  0  0
    2.2941  -14.8544    1.1388 O   0  0  0  0  0  0  0  0  0  0  0  0
    2.1919  -10.2382    0.8603 O   0  0  0  0  0  0  0  0  0  0  0  0
  1  2  1  0
  3  1  1  1
  3  4  1  0
  4  5  1  0
  2  6  1  0
  5  6  1  0
  5  7  2  0
  3  8  1  0
  8  9  1  6
  8 10  1  0
  9 16  2  0
 14 17  1  0
 17 18  2  0
 17 19  1  0
  4 20  2  0
 10 11  2  0
 11 12  1  0
 12 13  2  0
 13 14  1  0
 14 15  2  0
 10 15  1  0
M  END

$$$$
No_1599-/export/home/yangzhenyu/potential_scad_32_flow//YTHDC2/2024-12-06-03-22-00/
     RDKit          3D

 17 17  0  0  1  0  0  0  0  0999 V2000
    1.1787   -8.0297    3.5154 C   0  0  0  0  0  0  0  0  0  0  0  0
    1.1048   -9.2215    3.2892 C   0  0  0  0  0  0  0  0  0  0  0  0
    1.2339   -9.7611    2.0189 C   0  0  0  0  0  0  0  0  0  0  0  0
    1.3583   -9.0036    0.9764 C   0  0  0  0  0  0  0  0  0  0  0  0
    1.5996   -7.6362    1.1311 C   0  0  0  0  0  0  0  0  0  0  0  0
    1.4830   -7.0928    2.3626 C   0  0  0  0  0  0  0  0  0  0  0  0
    1.5395   -5.7300    2.6182 C   0  0  0  0  0  0  0  0  0  0  0  0
    1.1969  -11.3760    1.8433 C   0  0  0  0  0  0  0  0  0  0  0  0
    1.7910  -12.1287    2.5491 P   0  0  2  0  0  0  0  0  0  0  0  0
    0.9451  -12.9117    3.3449 O   0  0  0  0  0  0  0  0  0  0  0  0
    2.9725  -12.4497    2.6467 O   0  0  0  0  0  0  0  0  0  0  0  0
    1.2975   -4.8120    1.6782 O   0  0  0  0  0  0  0  0  0  0  0  0
    1.7979   -5.1648    3.8207 O   0  0  0  0  0  0  0  0  0  0  0  0
    1.5731   -9.4342   -0.3309 Cl  0  0  0  0  0  0  0  0  0  0  0  0
    1.9425  -13.1631    2.1737 O   0  0  0  0  0  0  0  0  0  0  0  0
    0.9134  -10.1478    4.4184 I   0  0  0  0  0  0  0  0  0  0  0  0
    2.1749  -14.6865    2.5272 C   0  0  0  0  0  0  0  0  0  0  0  0
  6  7  1  0
  3  8  1  0
  8  9  1  0
  9 10  1  6
  9 11  2  0
  7 12  2  0
  7 13  1  0
  4 14  1  0
  9 15  1  0
  2 16  1  0
 15 17  1  0
  1  2  2  0
  2  3  1  0
  3  4  2  0
  4  5  1  0
  5  6  2  0
  1  6  1  0
M  END

$$$$
No_1600-/export/home/yangzhenyu/potential_scad_32_flow//YTHDC2/2024-12-06-03-22-00/
     RDKit          3D

 16 16  0  0  0  0  0  0  0  0999 V2000
    1.1787   -8.0297    3.5154 C   0  0  0  0  0  0  0  0  0  0  0  0
    1.1048   -9.2215    3.2892 C   0  0  0  0  0  0  0  0  0  0  0  0
    1.2339   -9.7611    2.0189 C   0  0  0  0  0  0  0  0  0  0  0  0
    1.1954  -11.2312    1.8661 C   0  0  0  0  0  0  0  0  0  0  0  0
    1.5546  -12.1691    2.7931 C   0  0  0  0  0  0  0  0  0  0  0  0
    0.5849   -7.0929    2.5729 C   0  0  0  0  0  0  0  0  0  0  0  0
    0.5567   -7.6699    1.1955 C   0  0  0  0  0  0  0  0  0  0  0  0
    0.7903   -8.9699    0.9209 C   0  0  0  0  0  0  0  0  0  0  0  0
    0.7585  -13.2773    2.9106 C   0  0  0  0  0  0  0  0  0  0  0  0
    1.3821  -14.5517    2.8039 C   0  0  0  0  0  0  0  0  0  0  0  0
    0.5134  -15.6902    3.0759 O   0  0  0  0  0  0  0  0  0  0  0  0
    0.6494   -9.3985   -0.3005 C   0  0  0  0  0  0  0  0  0  0  0  0
    1.2460   -9.0216   -1.3578 O   0  0  0  0  0  0  0  0  0  0  0  0
   -0.5238  -10.0920   -0.6307 O   0  0  0  0  0  0  0  0  0  0  0  0
    0.6034   -5.6645    2.6934 C   0  0  0  0  0  0  0  0  0  0  0  0
    2.6141  -14.7768    2.5838 O   0  0  0  0  0  0  0  0  0  0  0  0
  3  4  1  0
  4  5  1  0
  5  9  1  0
  9 10  1  0
 10 11  1  0
  8 12  1  0
 12 13  2  0
 12 14  1  0
  6 15  1  0
 10 16  2  0
  1  2  2  0
  2  3  1  0
  3  8  2  0
  7  8  1  0
  6  7  2  0
  1  6  1  0
M  END

$$$$
No_1601-/export/home/yangzhenyu/potential_scad_32_flow//YTHDC2/2024-12-06-03-22-00/
     RDKit          3D

 19 20  0  0  0  0  0  0  0  0999 V2000
    1.1787   -8.0297    3.5154 C   0  0  0  0  0  0  0  0  0  0  0  0
    1.0491   -6.8434    2.9820 C   0  0  0  0  0  0  0  0  0  0  0  0
    1.9985   -8.9840    2.8958 C   0  0  0  0  0  0  0  0  0  0  0  0
    1.9135  -10.3404    3.6266 C   0  0  0  0  0  0  0  0  0  0  0  0
    0.7479  -10.9191    3.7202 C   0  0  0  0  0  0  0  0  0  0  0  0
    0.2782   -6.7158    1.8352 C   0  0  0  0  0  0  0  0  0  0  0  0
    0.0493   -5.5581    1.3972 O   0  0  0  0  0  0  0  0  0  0  0  0
   -0.1344   -7.6810    1.1379 O   0  0  0  0  0  0  0  0  0  0  0  0
    0.3124  -11.6257    2.6079 C   0  0  0  0  0  0  0  0  0  0  0  0
    1.2196  -12.4558    1.9369 C   0  0  0  0  0  0  0  0  0  0  0  0
    1.4071  -12.2182    0.7372 C   0  0  0  0  0  0  0  0  0  0  0  0
    0.6600  -11.3706    0.1263 C   0  0  0  0  0  0  0  0  0  0  0  0
   -0.3837  -10.7088    0.6759 C   0  0  0  0  0  0  0  0  0  0  0  0
   -0.5289  -10.7776    2.0675 C   0  0  0  0  0  0  0  0  0  0  0  0
    1.9787  -13.4262    2.7444 C   0  0  0  0  0  0  0  0  0  0  0  0
    2.4443  -14.6027    2.0832 O   0  0  0  0  0  0  0  0  0  0  0  0
   -1.1776   -9.5817    0.2357 C   0  0  0  0  0  0  0  0  0  0  0  0
   -2.1769   -9.2025    0.9673 C   0  0  0  0  0  0  0  0  0  0  0  0
   -1.7019   -9.9933    2.3160 C   0  0  0  0  0  0  0  0  0  0  0  0
  1  2  1  0
  1  3  1  0
  3  4  1  0
  4  5  1  0
  2  6  1  0
  6  7  2  0
  6  8  1  0
  5  9  1  0
 10 15  1  0
 15 16  2  0
 13 17  1  0
 17 18  2  0
 14 19  1  0
 18 19  1  0
  9 10  2  0
 10 11  1  0
 11 12  2  0
 12 13  1  0
 13 14  2  0
  9 14  1  0
M  END

$$$$
No_1602-/export/home/yangzhenyu/potential_scad_32_flow//YTHDC2/2024-12-06-03-22-00/
     RDKit          3D

 19 19  0  0  1  0  0  0  0  0999 V2000
    1.1787   -8.0297    3.5154 C   0  0  0  0  0  0  0  0  0  0  0  0
    1.0491   -6.8434    2.9820 C   0  0  0  0  0  0  0  0  0  0  0  0
    0.9905   -9.0774    2.6527 C   0  0  0  0  0  0  0  0  0  0  0  0
    0.7897   -8.9519    1.3691 C   0  0  0  0  0  0  0  0  0  0  0  0
    0.7018   -7.7198    0.7892 C   0  0  0  0  0  0  0  0  0  0  0  0
    0.8918   -6.5957    1.6117 C   0  0  0  0  0  0  0  0  0  0  0  0
    1.0600  -10.5680    3.3321 C   0  0  2  0  0  0  0  0  0  0  0  0
    2.1422  -11.0089    3.6867 C   0  0  0  0  0  0  0  0  0  0  0  0
    0.8986   -5.2530    1.1685 O   0  0  0  0  0  0  0  0  0  0  0  0
    0.3651  -11.5290    2.4693 C   0  0  0  0  0  0  0  0  0  0  0  0
    1.0511  -12.4440    1.9489 C   0  0  0  0  0  0  0  0  0  0  0  0
    1.7747  -12.3070    0.9686 C   0  0  0  0  0  0  0  0  0  0  0  0
    1.9633  -13.2258    3.1228 C   0  0  0  0  0  0  0  0  0  0  0  0
    2.7459  -10.1509    4.9404 C   0  0  0  0  0  0  0  0  0  0  0  0
    3.8560  -11.0282    5.4706 O   0  0  0  0  0  0  0  0  0  0  0  0
    0.0441  -13.5698    1.6657 C   0  0  0  0  0  0  0  0  0  0  0  0
   -1.0652  -13.3516    1.4945 C   0  0  0  0  0  0  0  0  0  0  0  0
   -1.5504  -12.6979    0.3638 O   0  0  0  0  0  0  0  0  0  0  0  0
   -2.2076  -13.5553    2.2158 O   0  0  0  0  0  0  0  0  0  0  0  0
  1  2  1  0
  3  4  1  0
  2  6  1  0
  5  6  1  0
  3  7  1  0
  7  8  1  6
  6  9  2  0
  7 10  1  0
 10 11  1  0
 11 12  1  0
 11 13  1  0
  8 14  1  0
 14 15  1  0
 11 16  1  0
 16 17  1  0
 17 18  2  0
 17 19  1  0
  1  3  1  0
  4  5  1  0
M  END

$$$$
No_1603-/export/home/yangzhenyu/potential_scad_32_flow//YTHDC2/2024-12-06-03-22-00/
     RDKit          3D

 18 19  0  0  1  0  0  0  0  0999 V2000
    1.1787   -8.0297    3.5154 C   0  0  0  0  0  0  0  0  0  0  0  0
    1.0491   -6.8434    2.9820 C   0  0  0  0  0  0  0  0  0  0  0  0
    0.9905   -9.0774    2.6527 C   0  0  0  0  0  0  0  0  0  0  0  0
    1.1655  -10.4663    3.1286 C   0  0  2  0  0  0  0  0  0  0  0  0
    1.7409  -10.6480    4.4599 C   0  0  0  0  0  0  0  0  0  0  0  0
    0.4783   -6.4688    1.7590 C   0  0  0  0  0  0  0  0  0  0  0  0
    0.2119   -7.5787    0.9640 C   0  0  0  0  0  0  0  0  0  0  0  0
    0.4248   -8.8744    1.3136 C   0  0  0  0  0  0  0  0  0  0  0  0
    1.0421  -11.5142    2.2935 C   0  0  0  0  0  0  0  0  0  0  0  0
    1.2250  -12.5379    2.5401 C   0  0  0  0  0  0  0  0  0  0  0  0
    0.9531  -13.7936    1.6405 C   0  0  0  0  0  0  0  0  0  0  0  0
    1.9817  -14.6363    1.2966 C   0  0  0  0  0  0  0  0  0  0  0  0
    1.8016  -15.6270    0.5877 C   0  0  0  0  0  0  0  0  0  0  0  0
    0.5127  -15.9603    0.2453 C   0  0  0  0  0  0  0  0  0  0  0  0
   -0.4878  -15.2102    0.5187 C   0  0  0  0  0  0  0  0  0  0  0  0
   -0.3014  -14.0332    1.2976 C   0  0  0  0  0  0  0  0  0  0  0  0
    0.3096   -5.2031    1.2546 C   0  0  0  0  0  0  0  0  0  0  0  0
    1.3207   -4.2496    1.6420 C   0  0  0  0  0  0  0  0  0  0  0  0
  3  4  1  0
  4  5  1  6
  4  9  1  0
  9 10  2  3
 10 11  1  0
  6 17  1  0
 17 18  2  0
 11 12  2  0
 12 13  1  0
 13 14  2  0
 14 15  1  0
 15 16  2  0
 11 16  1  0
  1  2  2  0
  2  6  1  0
  6  7  2  0
  7  8  1  0
  3  8  2  0
  1  3  1  0
M  END

$$$$
No_1604-/export/home/yangzhenyu/potential_scad_32_flow//YTHDC2/2024-12-06-03-22-00/
     RDKit          3D

 19 21  0  0  1  0  0  0  0  0999 V2000
    1.1787   -8.0297    3.5154 C   0  0  0  0  0  0  0  0  0  0  0  0
    1.1048   -9.2215    3.2892 C   0  0  0  0  0  0  0  0  0  0  0  0
    1.3627  -10.1721    4.3044 C   0  0  0  0  0  0  0  0  0  0  0  0
    1.0682  -11.5187    4.0618 C   0  0  0  0  0  0  0  0  0  0  0  0
    0.6332  -11.9655    2.9682 C   0  0  0  0  0  0  0  0  0  0  0  0
    0.4776  -11.1308    1.9203 N   0  0  0  0  0  0  0  0  0  0  0  0
    0.7538   -9.8638    2.0376 C   0  0  0  0  0  0  0  0  0  0  0  0
    1.0189   -7.0491    2.4282 C   0  0  0  0  0  0  0  0  0  0  0  0
    0.8608   -7.5942    1.1378 C   0  0  0  0  0  0  0  0  0  0  0  0
    0.7325   -8.9278    0.9186 C   0  0  0  0  0  0  0  0  0  0  0  0
    0.3876  -13.3459    2.6826 C   0  0  0  0  0  0  0  0  0  0  0  0
   -0.6925  -13.7991    2.2993 C   0  0  0  0  0  0  0  0  0  0  0  0
    1.5919  -14.1945    2.4937 C   0  0  0  0  0  0  0  0  0  0  0  0
    1.6337  -15.4832    2.3379 C   0  0  0  0  0  0  0  0  0  0  0  0
    0.3918  -15.9695    1.9940 C   0  0  0  0  0  0  0  0  0  0  0  0
   -0.7671  -15.1668    2.0319 C   0  0  0  0  0  0  0  0  0  0  0  0
    0.4192   -9.4990   -0.4922 C   0  0  1  0  0  0  0  0  0  0  0  0
   -0.8410  -10.0312   -0.6038 O   0  0  0  0  0  0  0  0  0  0  0  0
    1.0968   -9.0887   -1.3703 Cl  0  0  0  0  0  0  0  0  0  0  0  0
  5 11  1  0
 10 17  1  0
 17 18  1  6
 17 19  1  0
  2  3  1  0
  3  4  2  0
  4  5  1  0
  5  6  2  0
  6  7  1  0
  1  2  2  0
  2  7  1  0
  7 10  2  0
  9 10  1  0
  8  9  2  0
  1  8  1  0
 11 12  2  0
 12 16  1  0
 15 16  2  0
 14 15  1  0
 13 14  2  0
 11 13  1  0
M  END

$$$$
No_1605-/export/home/yangzhenyu/potential_scad_32_flow//YTHDC2/2024-12-06-03-22-00/
     RDKit          3D

 18 20  0  0  0  0  0  0  0  0999 V2000
    1.1787   -8.0297    3.5154 C   0  0  0  0  0  0  0  0  0  0  0  0
    1.0491   -6.8434    2.9820 C   0  0  0  0  0  0  0  0  0  0  0  0
    0.0950   -8.8404    3.2292 C   0  0  0  0  0  0  0  0  0  0  0  0
   -0.9173   -8.4596    2.5152 C   0  0  0  0  0  0  0  0  0  0  0  0
   -1.0331   -7.2162    2.0653 C   0  0  0  0  0  0  0  0  0  0  0  0
   -0.0105   -6.3168    2.3081 C   0  0  0  0  0  0  0  0  0  0  0  0
    0.1465  -10.2446    3.6981 C   0  0  0  0  0  0  0  0  0  0  0  0
    1.2433  -10.8239    4.0166 C   0  0  0  0  0  0  0  0  0  0  0  0
    1.0790  -12.2885    4.3779 C   0  0  0  0  0  0  0  0  0  0  0  0
    0.0275  -12.8546    3.8829 C   0  0  0  0  0  0  0  0  0  0  0  0
   -0.9912  -12.3424    3.4171 C   0  0  0  0  0  0  0  0  0  0  0  0
   -1.0024  -10.9675    3.2748 C   0  0  0  0  0  0  0  0  0  0  0  0
   -0.1252   -5.0186    1.8241 C   0  0  0  0  0  0  0  0  0  0  0  0
   -0.5049   -4.7300    0.7005 C   0  0  0  0  0  0  0  0  0  0  0  0
   -0.6241   -3.3105    0.3934 C   0  0  0  0  0  0  0  0  0  0  0  0
    0.0028   -2.3870    1.1569 C   0  0  0  0  0  0  0  0  0  0  0  0
    0.5967   -2.6456    2.2408 C   0  0  0  0  0  0  0  0  0  0  0  0
    0.5892   -3.9723    2.7000 C   0  0  0  0  0  0  0  0  0  0  0  0
  3  7  1  0
  6 13  1  0
 13 14  2  0
 14 15  1  0
 15 16  2  0
 16 17  1  0
 17 18  2  0
 13 18  1  0
  1  2  2  0
  2  6  1  0
  5  6  2  0
  4  5  1  0
  3  4  2  0
  1  3  1  0
  7  8  2  0
  8  9  1  0
  9 10  2  0
 10 11  1  0
 11 12  2  0
  7 12  1  0
M  END

$$$$
No_1606-/export/home/yangzhenyu/potential_scad_32_flow//YTHDC2/2024-12-06-03-22-00/
     RDKit          3D

 12 12  0  0  0  0  0  0  0  0999 V2000
    1.1787   -8.0297    3.5154 C   0  0  0  0  0  0  0  0  0  0  0  0
    1.0491   -6.8434    2.9820 C   0  0  0  0  0  0  0  0  0  0  0  0
    0.9905   -9.0774    2.6527 C   0  0  0  0  0  0  0  0  0  0  0  0
    0.7897   -8.9519    1.3691 C   0  0  0  0  0  0  0  0  0  0  0  0
    0.7018   -7.7198    0.7892 C   0  0  0  0  0  0  0  0  0  0  0  0
    0.8918   -6.5957    1.6117 C   0  0  0  0  0  0  0  0  0  0  0  0
    1.0711  -10.4814    3.2282 C   0  0  0  0  0  0  0  0  0  0  0  0
   -0.1055  -11.1328    3.5223 O   0  0  0  0  0  0  0  0  0  0  0  0
    2.1479  -11.0046    3.8568 N   0  0  0  0  0  0  0  0  0  0  0  0
    0.8352   -5.2900    1.1015 C   0  0  0  0  0  0  0  0  0  0  0  0
   -0.3534   -4.7720    0.7258 N   0  0  0  0  0  0  0  0  0  0  0  0
   -1.5010   -5.5017    1.0938 O   0  0  0  0  0  0  0  0  0  0  0  0
  3  7  1  0
  7  8  2  0
  7  9  1  0
  6 10  1  0
 10 11  1  0
 11 12  2  0
  1  2  2  0
  2  6  1  0
  5  6  2  0
  4  5  1  0
  3  4  2  0
  1  3  1  0
M  END

$$$$
No_1607-/export/home/yangzhenyu/potential_scad_32_flow//YTHDC2/2024-12-06-03-22-00/
     RDKit          3D

 19 20  0  0  0  0  0  0  0  0999 V2000
    1.1787   -8.0297    3.5154 C   0  0  0  0  0  0  0  0  0  0  0  0
    1.1048   -9.2215    3.2892 C   0  0  0  0  0  0  0  0  0  0  0  0
    1.2339   -9.7611    2.0189 C   0  0  0  0  0  0  0  0  0  0  0  0
    1.3583   -9.0036    0.9764 C   0  0  0  0  0  0  0  0  0  0  0  0
    1.5996   -7.6362    1.1311 C   0  0  0  0  0  0  0  0  0  0  0  0
    1.4830   -7.0928    2.3626 C   0  0  0  0  0  0  0  0  0  0  0  0
    1.1171  -11.3311    1.8661 C   0  0  0  0  0  0  0  0  0  0  0  0
    1.9975  -12.1095    2.2478 C   0  0  0  0  0  0  0  0  0  0  0  0
    1.5366  -13.3685    2.6023 C   0  0  0  0  0  0  0  0  0  0  0  0
    0.4347  -13.9535    2.2152 C   0  0  0  0  0  0  0  0  0  0  0  0
   -0.5653  -13.0755    1.8340 C   0  0  0  0  0  0  0  0  0  0  0  0
   -0.1982  -11.7643    1.4990 C   0  0  0  0  0  0  0  0  0  0  0  0
    1.5698   -5.6644    2.6285 C   0  0  0  0  0  0  0  0  0  0  0  0
    0.1050  -15.2423    2.5680 C   0  0  0  0  0  0  0  0  0  0  0  0
    1.0372  -16.0458    3.2077 C   0  0  0  0  0  0  0  0  0  0  0  0
    0.8726  -17.3829    3.5517 C   0  0  0  0  0  0  0  0  0  0  0  0
    1.8425  -18.2908    3.3914 C   0  0  0  0  0  0  0  0  0  0  0  0
    3.2437  -17.9174    2.8897 N   0  0  0  0  0  0  0  0  0  0  0  0
    1.8073  -19.7206    3.5440 C   0  0  0  0  0  0  0  0  0  0  0  0
  3  7  1  0
  6 13  1  0
 10 14  1  0
 14 15  2  3
 15 16  1  0
 16 17  2  3
 17 18  1  0
 17 19  1  0
  1  2  2  0
  2  3  1  0
  3  4  2  0
  4  5  1  0
  5  6  2  0
  1  6  1  0
  7  8  2  0
  8  9  1  0
  9 10  2  0
 10 11  1  0
 11 12  2  0
  7 12  1  0
M  END

$$$$
No_1608-/export/home/yangzhenyu/potential_scad_32_flow//YTHDC2/2024-12-06-03-22-00/
     RDKit          3D

 21 23  0  0  1  0  0  0  0  0999 V2000
    1.1787   -8.0297    3.5154 C   0  0  0  0  0  0  0  0  0  0  0  0
    1.1048   -9.2215    3.2892 C   0  0  0  0  0  0  0  0  0  0  0  0
    1.3627  -10.1721    4.3044 C   0  0  0  0  0  0  0  0  0  0  0  0
    1.0682  -11.5187    4.0618 C   0  0  0  0  0  0  0  0  0  0  0  0
    0.6332  -11.9655    2.9682 C   0  0  0  0  0  0  0  0  0  0  0  0
    0.4776  -11.1308    1.9203 C   0  0  0  0  0  0  0  0  0  0  0  0
    0.7470   -9.8274    2.0368 C   0  0  0  0  0  0  0  0  0  0  0  0
    0.5535   -7.1314    2.6861 C   0  0  0  0  0  0  0  0  0  0  0  0
    0.2950   -7.6000    1.3275 C   0  0  0  0  0  0  0  0  0  0  0  0
    0.2693   -8.8631    1.0973 C   0  0  0  0  0  0  0  0  0  0  0  0
   -0.0069   -6.7080    0.3888 C   0  0  0  0  0  0  0  0  0  0  0  0
   -0.6284   -7.1406   -0.6609 O   0  0  0  0  0  0  0  0  0  0  0  0
    0.0873   -5.3387    0.4978 O   0  0  0  0  0  0  0  0  0  0  0  0
    0.4939  -13.3912    2.7260 C   0  0  1  0  0  0  0  0  0  0  0  0
   -0.6677  -13.8419    2.4344 C   0  0  0  0  0  0  0  0  0  0  0  0
   -1.7836  -13.0933    2.2937 C   0  0  0  0  0  0  0  0  0  0  0  0
    1.5621  -14.2891    2.7117 C   0  0  0  0  0  0  0  0  0  0  0  0
   -2.9863  -13.6510    1.8534 C   0  0  0  0  0  0  0  0  0  0  0  0
   -3.1208  -14.6940    1.1234 C   0  0  0  0  0  0  0  0  0  0  0  0
   -1.9592  -15.5747    1.1128 C   0  0  0  0  0  0  0  0  0  0  0  0
   -0.7272  -15.1754    1.7038 C   0  0  0  0  0  0  0  0  0  0  0  0
  9 11  1  0
 11 12  2  0
 11 13  1  0
  5 14  1  0
 14 15  1  0
 14 17  1  6
  2  3  1  0
  3  4  2  0
  4  5  1  0
  5  6  2  0
  6  7  1  0
  1  2  2  0
  2  7  1  0
  7 10  2  0
  9 10  1  0
  8  9  2  0
  1  8  1  0
 15 16  2  0
 16 18  1  0
 18 19  2  0
 19 20  1  0
 20 21  2  0
 15 21  1  0
M  END

$$$$
No_1609-/export/home/yangzhenyu/potential_scad_32_flow//YTHDC2/2024-12-06-03-22-00/
     RDKit          3D

 20 21  0  0  0  0  0  0  0  0999 V2000
    1.1787   -8.0297    3.5154 C   0  0  0  0  0  0  0  0  0  0  0  0
    1.1048   -9.2215    3.2892 C   0  0  0  0  0  0  0  0  0  0  0  0
    1.3627  -10.1721    4.3044 C   0  0  0  0  0  0  0  0  0  0  0  0
    1.0682  -11.5187    4.0618 C   0  0  0  0  0  0  0  0  0  0  0  0
    0.6332  -11.9655    2.9682 C   0  0  0  0  0  0  0  0  0  0  0  0
    0.4776  -11.1308    1.9203 C   0  0  0  0  0  0  0  0  0  0  0  0
    0.7470   -9.8274    2.0368 C   0  0  0  0  0  0  0  0  0  0  0  0
    1.0387   -7.0301    2.5175 C   0  0  0  0  0  0  0  0  0  0  0  0
    0.9130   -7.5288    1.2013 C   0  0  0  0  0  0  0  0  0  0  0  0
    0.7893   -8.7979    0.9542 C   0  0  0  0  0  0  0  0  0  0  0  0
    0.5241   -9.2578   -0.2817 C   0  0  0  0  0  0  0  0  0  0  0  0
    1.2450   -9.2169   -1.2769 O   0  0  0  0  0  0  0  0  0  0  0  0
   -0.9193   -9.0668   -0.6939 N   0  0  0  0  0  0  0  0  0  0  0  0
    0.5173  -13.3790    2.7034 C   0  0  0  0  0  0  0  0  0  0  0  0
   -0.5613  -13.9379    2.5213 C   0  0  0  0  0  0  0  0  0  0  0  0
   -0.6338  -15.3887    2.4208 Cl  0  0  0  0  0  0  0  0  0  0  0  0
   -1.7652  -13.2970    2.1159 O   0  0  0  0  0  0  0  0  0  0  0  0
   -1.3353   -9.2316   -2.0075 C   0  0  0  0  0  0  0  0  0  0  0  0
   -1.6173   -8.0112   -2.6687 C   0  0  0  0  0  0  0  0  0  0  0  0
   -1.9453   -6.9287   -1.9842 O   0  0  0  0  0  0  0  0  0  0  0  0
 10 11  1  0
 11 12  2  0
 11 13  1  0
  5 14  1  0
 14 15  1  0
 15 16  1  0
 15 17  2  0
 13 18  1  0
 18 19  1  0
 19 20  2  0
  2  3  1  0
  3  4  2  0
  4  5  1  0
  5  6  2  0
  6  7  1  0
  1  2  2  0
  2  7  1  0
  7 10  2  0
  9 10  1  0
  8  9  2  0
  1  8  1  0
M  END

$$$$
No_1610-/export/home/yangzhenyu/potential_scad_32_flow//YTHDC2/2024-12-06-03-22-00/
     RDKit          3D

 19 20  0  0  0  0  0  0  0  0999 V2000
    1.1787   -8.0297    3.5154 C   0  0  0  0  0  0  0  0  0  0  0  0
    1.0491   -6.8434    2.9820 C   0  0  0  0  0  0  0  0  0  0  0  0
    0.9905   -9.0774    2.6527 C   0  0  0  0  0  0  0  0  0  0  0  0
    0.7897   -8.9519    1.3691 C   0  0  0  0  0  0  0  0  0  0  0  0
    0.7018   -7.7198    0.7892 C   0  0  0  0  0  0  0  0  0  0  0  0
    0.8918   -6.5957    1.6117 C   0  0  0  0  0  0  0  0  0  0  0  0
    1.0998  -10.4710    3.2437 C   0  0  0  0  0  0  0  0  0  0  0  0
    1.3102  -11.5554    2.5214 C   0  0  0  0  0  0  0  0  0  0  0  0
    1.4257  -12.8124    3.1919 C   0  0  0  0  0  0  0  0  0  0  0  0
    1.4301  -14.0627    2.4374 C   0  0  0  0  0  0  0  0  0  0  0  0
    0.8588   -5.2558    1.2463 O   0  0  0  0  0  0  0  0  0  0  0  0
    1.0320  -15.2245    3.0586 C   0  0  0  0  0  0  0  0  0  0  0  0
    1.4526  -16.5021    2.5935 C   0  0  0  0  0  0  0  0  0  0  0  0
    2.3157  -16.5157    1.5279 C   0  0  0  0  0  0  0  0  0  0  0  0
    2.6017  -14.3473    1.5596 C   0  0  0  0  0  0  0  0  0  0  0  0
    2.9309  -15.4788    1.1119 C   0  0  0  0  0  0  0  0  0  0  0  0
    2.8249  -13.1559    0.9048 C   0  0  0  0  0  0  0  0  0  0  0  0
    0.8373  -17.7425    3.1467 C   0  0  0  0  0  0  0  0  0  0  0  0
   -0.0672  -17.7991    4.0337 O   0  0  0  0  0  0  0  0  0  0  0  0
  1  2  1  0
  3  4  1  0
  2  6  1  0
  5  6  1  0
  3  7  1  0
  7  8  2  3
  8  9  1  0
  9 10  1  0
  6 11  2  0
 15 17  1  0
 13 18  1  0
 18 19  2  0
  1  3  1  0
  4  5  1  0
 10 12  2  0
 12 13  1  0
 13 14  2  0
 14 16  1  0
 15 16  2  0
 10 15  1  0
M  END

$$$$
No_1611-/export/home/yangzhenyu/potential_scad_32_flow//YTHDC2/2024-12-06-03-22-00/
     RDKit          3D

 19 20  0  0  0  0  0  0  0  0999 V2000
    1.1787   -8.0297    3.5154 C   0  0  0  0  0  0  0  0  0  0  0  0
    1.0491   -6.8434    2.9820 C   0  0  0  0  0  0  0  0  0  0  0  0
    0.0950   -8.8404    3.2292 C   0  0  0  0  0  0  0  0  0  0  0  0
   -0.9173   -8.4596    2.5152 C   0  0  0  0  0  0  0  0  0  0  0  0
   -1.0331   -7.2162    2.0653 C   0  0  0  0  0  0  0  0  0  0  0  0
   -0.0105   -6.3168    2.3081 C   0  0  0  0  0  0  0  0  0  0  0  0
    0.1150   -4.9910    1.8495 C   0  0  0  0  0  0  0  0  0  0  0  0
   -0.5774   -4.1593    2.0596 O   0  0  0  0  0  0  0  0  0  0  0  0
    1.3665   -4.5425    1.2260 O   0  0  0  0  0  0  0  0  0  0  0  0
    0.1563  -10.2873    3.6555 C   0  0  0  0  0  0  0  0  0  0  0  0
    1.2117  -10.9366    4.1124 N   0  0  0  0  0  0  0  0  0  0  0  0
    1.1238  -12.2986    4.0601 C   0  0  0  0  0  0  0  0  0  0  0  0
    0.0336  -12.7856    3.5818 N   0  0  0  0  0  0  0  0  0  0  0  0
   -0.2456  -13.9672    3.2749 C   0  0  0  0  0  0  0  0  0  0  0  0
    0.0955  -14.3991    2.1825 C   0  0  0  0  0  0  0  0  0  0  0  0
    0.1443  -15.9191    1.9908 C   0  0  0  0  0  0  0  0  0  0  0  0
   -0.2650  -16.7015    2.9798 C   0  0  0  0  0  0  0  0  0  0  0  0
   -0.6772  -16.1962    4.1713 C   0  0  0  0  0  0  0  0  0  0  0  0
   -0.6151  -14.8863    4.3735 C   0  0  0  0  0  0  0  0  0  0  0  0
  6  7  1  0
  7  8  2  0
  7  9  1  0
  3 10  1  0
 10 11  1  0
 11 12  2  3
 12 13  1  0
 13 14  1  0
 14 15  2  0
 15 16  1  0
 16 17  2  0
 17 18  1  0
 18 19  2  0
 14 19  1  0
  1  2  2  0
  2  6  1  0
  5  6  2  0
  4  5  1  0
  3  4  2  0
  1  3  1  0
M  END

$$$$
No_1612-/export/home/yangzhenyu/potential_scad_32_flow//YTHDC2/2024-12-06-03-22-00/
     RDKit          3D

 19 21  0  0  1  0  0  0  0  0999 V2000
    1.1787   -8.0297    3.5154 C   0  0  0  0  0  0  0  0  0  0  0  0
    1.1048   -9.2215    3.2892 C   0  0  0  0  0  0  0  0  0  0  0  0
    1.2339   -9.7611    2.0189 C   0  0  1  0  0  0  0  0  0  0  0  0
    1.1954  -11.2312    1.8661 C   0  0  0  0  0  0  0  0  0  0  0  0
    1.5546  -12.1691    2.7931 C   0  0  0  0  0  0  0  0  0  0  0  0
    0.5849   -7.0929    2.5729 C   0  0  2  0  0  0  0  0  0  0  0  0
    0.5567   -7.6699    1.1955 C   0  0  0  0  0  0  0  0  0  0  0  0
    0.7903   -8.9699    0.9209 C   0  0  0  0  0  0  0  0  0  0  0  0
    1.5521  -13.4960    2.3485 C   0  0  0  0  0  0  0  0  0  0  0  0
    1.2403  -13.8919    1.1557 C   0  0  0  0  0  0  0  0  0  0  0  0
    1.0311  -12.9707    0.1488 C   0  0  0  0  0  0  0  0  0  0  0  0
    0.9678  -11.6394    0.4949 C   0  0  0  0  0  0  0  0  0  0  0  0
    0.6235   -5.6335    2.6368 C   0  0  0  0  0  0  0  0  0  0  0  0
    0.3286   -6.8520    0.1792 O   0  0  0  0  0  0  0  0  0  0  0  0
   -0.5946   -5.0169    2.5569 C   0  0  0  0  0  0  0  0  0  0  0  0
   -0.6237   -3.5602    2.4675 C   0  0  0  0  0  0  0  0  0  0  0  0
    0.5925   -2.9077    2.6811 C   0  0  0  0  0  0  0  0  0  0  0  0
    1.8054   -3.5740    2.9254 C   0  0  0  0  0  0  0  0  0  0  0  0
    1.7774   -4.9910    2.8416 C   0  0  0  0  0  0  0  0  0  0  0  0
  1  2  1  0
  3  4  1  1
  6  7  1  0
  3  8  1  0
  7  8  1  0
  6 13  1  6
  7 14  2  0
  1  6  1  0
  2  3  1  0
 13 15  2  0
 15 16  1  0
 16 17  2  0
 17 18  1  0
 18 19  2  0
 13 19  1  0
  4  5  2  0
  5  9  1  0
  9 10  2  0
 10 11  1  0
 11 12  2  0
  4 12  1  0
M  END

$$$$
No_1613-/export/home/yangzhenyu/potential_scad_32_flow//YTHDC2/2024-12-06-03-22-00/
     RDKit          3D

 19 20  0  0  1  0  0  0  0  0999 V2000
    1.1787   -8.0297    3.5154 C   0  0  0  0  0  0  0  0  0  0  0  0
    1.0491   -6.8434    2.9820 C   0  0  0  0  0  0  0  0  0  0  0  0
    0.2462   -8.9560    3.0873 C   0  0  0  0  0  0  0  0  0  0  0  0
    0.3295   -6.5187    1.9069 C   0  0  0  0  0  0  0  0  0  0  0  0
   -0.5260   -8.7862    2.1368 C   0  0  0  0  0  0  0  0  0  0  0  0
   -0.5458   -7.5614    1.5054 C   0  0  0  0  0  0  0  0  0  0  0  0
    0.4051  -10.4356    3.8147 O   0  0  0  0  0  0  0  0  0  0  0  0
    0.3097   -5.2977    1.3039 C   0  0  0  0  0  0  0  0  0  0  0  0
   -0.6087   -4.8074    0.5928 C   0  0  0  0  0  0  0  0  0  0  0  0
   -0.6164   -3.5033    0.0920 C   0  0  0  0  0  0  0  0  0  0  0  0
   -0.4796  -11.3643    3.5140 C   0  0  2  0  0  0  0  0  0  0  0  0
   -1.7118  -11.1574    3.7359 C   0  0  0  0  0  0  0  0  0  0  0  0
    0.0957  -12.5302    3.0449 C   0  0  0  0  0  0  0  0  0  0  0  0
    1.5318  -12.7164    3.3779 C   0  0  0  0  0  0  0  0  0  0  0  0
    1.8647  -14.1473    2.8545 C   0  0  0  0  0  0  0  0  0  0  0  0
    1.0756  -14.9100    2.2535 C   0  0  0  0  0  0  0  0  0  0  0  0
   -0.1680  -14.6399    2.0096 C   0  0  0  0  0  0  0  0  0  0  0  0
   -0.6587  -13.4693    2.4479 C   0  0  0  0  0  0  0  0  0  0  0  0
   -1.1884   -3.2409   -1.1144 C   0  0  0  0  0  0  0  0  0  0  0  0
  3  7  1  0
  4  8  1  0
  8  9  2  3
  9 10  1  0
  7 11  1  0
 11 12  1  1
 11 13  1  0
 10 19  2  0
 13 14  2  0
 14 15  1  0
 15 16  2  0
 16 17  1  0
 17 18  2  0
 13 18  1  0
  1  2  2  0
  2  4  1  0
  4  6  2  0
  5  6  1  0
  3  5  2  0
  1  3  1  0
M  END

$$$$
No_1614-/export/home/yangzhenyu/potential_scad_32_flow//YTHDC2/2024-12-06-03-22-00/
     RDKit          3D

 17 18  0  0  0  0  0  0  0  0999 V2000
    1.1787   -8.0297    3.5154 C   0  0  0  0  0  0  0  0  0  0  0  0
    1.1048   -9.2215    3.2892 C   0  0  0  0  0  0  0  0  0  0  0  0
    1.2339   -9.7611    2.0189 C   0  0  0  0  0  0  0  0  0  0  0  0
    1.3583   -9.0036    0.9764 C   0  0  0  0  0  0  0  0  0  0  0  0
    1.5996   -7.6362    1.1311 C   0  0  0  0  0  0  0  0  0  0  0  0
    1.4830   -7.0928    2.3626 C   0  0  0  0  0  0  0  0  0  0  0  0
    1.1008  -11.2372    1.8542 C   0  0  0  0  0  0  0  0  0  0  0  0
    0.5178  -11.9759    2.3445 C   0  0  0  0  0  0  0  0  0  0  0  0
    0.4575  -13.3705    2.1281 C   0  0  0  0  0  0  0  0  0  0  0  0
   -0.4455  -13.9844    1.5572 C   0  0  0  0  0  0  0  0  0  0  0  0
   -0.4380  -15.3839    1.3067 C   0  0  0  0  0  0  0  0  0  0  0  0
    0.3551  -16.0532    1.9044 C   0  0  0  0  0  0  0  0  0  0  0  0
    1.3205  -15.6094    2.7860 C   0  0  0  0  0  0  0  0  0  0  0  0
    1.3894  -14.2034    2.9744 C   0  0  0  0  0  0  0  0  0  0  0  0
    1.5720   -5.6589    2.6503 Br  0  0  0  0  0  0  0  0  0  0  0  0
    1.4880   -9.4483   -0.3858 C   0  0  0  0  0  0  0  0  0  0  0  0
    1.3330   -8.9835   -1.2813 O   0  0  0  0  0  0  0  0  0  0  0  0
  3  7  1  0
  7  8  2  3
  8  9  1  0
  6 15  1  0
  4 16  1  0
 16 17  2  0
  1  2  2  0
  2  3  1  0
  3  4  2  0
  4  5  1  0
  5  6  2  0
  1  6  1  0
  9 10  2  0
 10 11  1  0
 11 12  2  0
 12 13  1  0
 13 14  2  0
  9 14  1  0
M  END

$$$$
No_1615-/export/home/yangzhenyu/potential_scad_32_flow//YTHDC2/2024-12-06-03-22-00/
     RDKit          3D

 20 21  0  0  1  0  0  0  0  0999 V2000
    1.1787   -8.0297    3.5154 O   0  0  0  0  0  0  0  0  0  0  0  0
    0.9969   -8.9689    3.0048 C   0  0  1  0  0  0  0  0  0  0  0  0
    0.9976   -8.9567    1.6341 C   0  0  2  0  0  0  0  0  0  0  0  0
    1.6062   -9.9071    0.9292 C   0  0  0  0  0  0  0  0  0  0  0  0
    2.0210  -10.9286    1.8051 C   0  0  0  0  0  0  0  0  0  0  0  0
    2.0880  -10.9889    3.1028 C   0  0  1  0  0  0  0  0  0  0  0  0
    1.5324   -9.8769    3.7153 C   0  0  0  0  0  0  0  0  0  0  0  0
    0.4918   -7.8019    1.0483 C   0  0  0  0  0  0  0  0  0  0  0  0
   -0.2995   -7.9863    0.0386 O   0  0  0  0  0  0  0  0  0  0  0  0
    0.8297   -6.5288    1.1771 N   0  0  0  0  0  0  0  0  0  0  0  0
    0.2760   -5.4325    0.8766 C   0  0  0  0  0  0  0  0  0  0  0  0
   -1.0846   -5.4403    0.8157 C   0  0  0  0  0  0  0  0  0  0  0  0
    0.8576   -4.0794    1.3667 C   0  0  0  0  0  0  0  0  0  0  0  0
    0.1003   -2.9758    1.3122 C   0  0  0  0  0  0  0  0  0  0  0  0
   -1.2312   -3.0391    1.0460 C   0  0  0  0  0  0  0  0  0  0  0  0
   -1.8428   -4.3274    0.8097 C   0  0  0  0  0  0  0  0  0  0  0  0
    1.5413  -10.0636    5.0351 O   0  0  0  0  0  0  0  0  0  0  0  0
    2.5857  -12.2241    3.7259 O   0  0  0  0  0  0  0  0  0  0  0  0
    0.7708   -1.7583    1.6117 Cl  0  0  0  0  0  0  0  0  0  0  0  0
   -3.2367   -4.3742    0.5186 O   0  0  0  0  0  0  0  0  0  0  0  0
  2  1  1  1
  2  3  1  0
  4  5  1  0
  2  7  1  0
  6  7  1  0
  3  8  1  1
  8  9  2  0
  8 10  1  0
 10 11  1  0
  7 17  2  0
  6 18  1  1
 14 19  1  0
 16 20  1  0
  3  4  1  0
  5  6  1  0
 11 12  2  0
 12 16  1  0
 15 16  2  0
 14 15  1  0
 13 14  2  0
 11 13  1  0
M  END

$$$$
No_1616-/export/home/yangzhenyu/potential_scad_32_flow//YTHDC2/2024-12-06-03-22-00/
     RDKit          3D

 20 21  0  0  1  0  0  0  0  0999 V2000
    1.1787   -8.0297    3.5154 C   0  0  0  0  0  0  0  0  0  0  0  0
    1.0491   -6.8434    2.9820 C   0  0  0  0  0  0  0  0  0  0  0  0
    0.0950   -8.8404    3.2292 C   0  0  0  0  0  0  0  0  0  0  0  0
   -0.9173   -8.4596    2.5152 C   0  0  0  0  0  0  0  0  0  0  0  0
   -1.0331   -7.2162    2.0653 C   0  0  0  0  0  0  0  0  0  0  0  0
   -0.0105   -6.3168    2.3081 C   0  0  0  0  0  0  0  0  0  0  0  0
    0.1150   -4.9910    1.8495 C   0  0  0  0  0  0  0  0  0  0  0  0
   -0.5774   -4.1593    2.0596 F   0  0  0  0  0  0  0  0  0  0  0  0
    1.5284   -4.4160    1.9975 F   0  0  0  0  0  0  0  0  0  0  0  0
    0.0471   -5.0167    0.4829 F   0  0  0  0  0  0  0  0  0  0  0  0
    0.1636  -10.2443    3.7241 C   0  0  2  0  0  0  0  0  0  0  0  0
    1.3093  -10.7981    4.1058 C   0  0  0  0  0  0  0  0  0  0  0  0
    1.4390  -12.1818    3.9479 C   0  0  0  0  0  0  0  0  0  0  0  0
    0.3173  -12.9027    3.5850 C   0  0  1  0  0  0  0  0  0  0  0  0
   -0.7752  -12.3734    3.2160 C   0  0  0  0  0  0  0  0  0  0  0  0
   -0.9175  -10.9751    3.2752 C   0  0  0  0  0  0  0  0  0  0  0  0
    0.6367  -14.4480    3.4943 Cl  0  0  0  0  0  0  0  0  0  0  0  0
   -2.1247  -10.4839    3.0036 O   0  0  0  0  0  0  0  0  0  0  0  0
   -2.1516   -6.7063    1.2330 O   0  0  0  0  0  0  0  0  0  0  0  0
   -3.2736   -6.4507    1.9204 C   0  0  0  0  0  0  0  0  0  0  0  0
  6  7  1  0
  7  8  1  0
  7  9  1  0
  7 10  1  0
 11  3  1  6
 11 12  1  0
 13 14  1  0
 11 16  1  0
 15 16  1  0
 14 17  1  6
 16 18  2  0
  5 19  1  0
 19 20  1  0
 12 13  1  0
 14 15  1  0
  1  2  2  0
  2  6  1  0
  5  6  2  0
  4  5  1  0
  3  4  2  0
  1  3  1  0
M  END

$$$$
No_1617-/export/home/yangzhenyu/potential_scad_32_flow//YTHDC2/2024-12-06-03-22-00/
     RDKit          3D

 18 19  0  0  1  0  0  0  0  0999 V2000
    1.1787   -8.0297    3.5154 C   0  0  0  0  0  0  0  0  0  0  0  0
    1.0491   -6.8434    2.9820 C   0  0  0  0  0  0  0  0  0  0  0  0
    0.0950   -8.8404    3.2292 C   0  0  0  0  0  0  0  0  0  0  0  0
   -0.9173   -8.4596    2.5152 C   0  0  0  0  0  0  0  0  0  0  0  0
   -1.0331   -7.2162    2.0653 C   0  0  0  0  0  0  0  0  0  0  0  0
   -2.2155   -6.7621    1.5011 C   0  0  0  0  0  0  0  0  0  0  0  0
    0.0919   -6.3006    2.2576 C   0  0  0  0  0  0  0  0  0  0  0  0
   -2.7649   -5.5381    1.7176 C   0  0  0  0  0  0  0  0  0  0  0  0
   -1.7279   -4.4529    2.2401 C   0  0  0  0  0  0  0  0  0  0  0  0
   -0.3773   -4.8741    2.5604 C   0  0  2  0  0  0  0  0  0  0  0  0
    0.5653   -3.9538    2.8719 C   0  0  0  0  0  0  0  0  0  0  0  0
   -2.0312   -3.1993    2.3830 O   0  0  0  0  0  0  0  0  0  0  0  0
    0.2243  -10.2609    3.7111 C   0  0  0  0  0  0  0  0  0  0  0  0
    0.3178  -11.3660    2.9731 C   0  0  0  0  0  0  0  0  0  0  0  0
   -0.2907  -11.6772    2.0933 C   0  0  0  0  0  0  0  0  0  0  0  0
   -1.4615  -12.2313    2.1431 C   0  0  0  0  0  0  0  0  0  0  0  0
   -2.1633  -12.8837    1.1547 C   0  0  0  0  0  0  0  0  0  0  0  0
   -1.4542  -12.9258   -0.1467 C   0  0  0  0  0  0  0  0  0  0  0  0
  5  6  1  0
  8  9  1  0
  7 10  1  0
  9 10  1  0
 10 11  1  6
  9 12  2  0
  3 13  1  0
 13 14  1  0
 14 15  1  0
 15 16  2  3
 16 17  1  0
 17 18  2  0
  6  8  1  0
  1  2  2  0
  2  7  1  0
  5  7  2  0
  4  5  1  0
  3  4  2  0
  1  3  1  0
M  END

$$$$
No_1618-/export/home/yangzhenyu/potential_scad_32_flow//YTHDC2/2024-12-06-03-22-00/
     RDKit          3D

 18 18  0  0  0  0  0  0  0  0999 V2000
    1.1787   -8.0297    3.5154 C   0  0  0  0  0  0  0  0  0  0  0  0
    1.1048   -9.2215    3.2892 C   0  0  0  0  0  0  0  0  0  0  0  0
    1.3627  -10.1721    4.3044 C   0  0  0  0  0  0  0  0  0  0  0  0
    1.7354  -11.4730    3.9023 C   0  0  0  0  0  0  0  0  0  0  0  0
    1.8080  -11.8127    2.7216 C   0  0  0  0  0  0  0  0  0  0  0  0
    1.5854  -11.0021    1.7249 C   0  0  0  0  0  0  0  0  0  0  0  0
    1.3573   -9.7389    1.9287 C   0  0  0  0  0  0  0  0  0  0  0  0
    1.1102   -8.8712    0.9017 C   0  0  0  0  0  0  0  0  0  0  0  0
    1.5724   -9.1697   -0.3048 C   0  0  0  0  0  0  0  0  0  0  0  0
    1.2378   -8.2159   -1.4226 O   0  0  0  0  0  0  0  0  0  0  0  0
    2.0610  -13.2069    2.3284 C   0  0  0  0  0  0  0  0  0  0  0  0
    1.2085  -14.0560    1.7042 C   0  0  0  0  0  0  0  0  0  0  0  0
    0.4564  -14.5093    2.3879 N   0  0  0  0  0  0  0  0  0  0  0  0
   -0.7989  -14.3043    2.3691 C   0  0  0  0  0  0  0  0  0  0  0  0
   -1.2103  -13.1009    1.9222 C   0  0  0  0  0  0  0  0  0  0  0  0
   -1.7981  -15.1255    2.7432 C   0  0  0  0  0  0  0  0  0  0  0  0
   -3.1564  -14.7887    2.6490 C   0  0  0  0  0  0  0  0  0  0  0  0
   -3.4661  -13.5070    2.3255 C   0  0  0  0  0  0  0  0  0  0  0  0
  1  2  1  0
  7  8  1  0
  8  9  2  3
  9 10  1  0
  5 11  1  0
 11 12  1  0
 12 13  1  0
 13 14  1  0
 14 15  1  0
 14 16  1  0
 16 17  2  3
 17 18  1  0
  2  3  2  0
  3  4  1  0
  4  5  2  0
  5  6  1  0
  6  7  2  0
  2  7  1  0
M  END

$$$$
No_1619-/export/home/yangzhenyu/potential_scad_32_flow//YTHDC2/2024-12-06-03-22-00/
     RDKit          3D

 18 19  0  0  0  0  0  0  0  0999 V2000
    1.1787   -8.0297    3.5154 N   0  0  0  0  0  0  0  0  0  0  0  0
    0.8669   -7.0905    2.8589 C   0  0  0  0  0  0  0  0  0  0  0  0
    1.0447   -7.3244    1.4123 C   0  0  0  0  0  0  0  0  0  0  0  0
    1.3746   -8.4389    1.0864 C   0  0  0  0  0  0  0  0  0  0  0  0
    1.8493   -9.4093    1.8124 C   0  0  0  0  0  0  0  0  0  0  0  0
    1.7421   -9.2119    3.1541 C   0  0  0  0  0  0  0  0  0  0  0  0
    2.0453  -10.3375    4.1403 C   0  0  0  0  0  0  0  0  0  0  0  0
    1.7458   -8.7074   -0.3893 C   0  0  0  0  0  0  0  0  0  0  0  0
    0.9776   -8.9618   -1.0050 O   0  0  0  0  0  0  0  0  0  0  0  0
    2.8833   -8.2426   -0.9954 N   0  0  0  0  0  0  0  0  0  0  0  0
    1.9533  -11.5681    3.9263 C   0  0  0  0  0  0  0  0  0  0  0  0
    1.0160  -12.0860    3.0565 S   0  0  0  0  0  0  0  0  0  0  0  0
    1.4499  -13.7704    3.0910 C   0  0  0  0  0  0  0  0  0  0  0  0
    0.4974  -14.7130    2.3124 N   0  0  0  0  0  0  0  0  0  0  0  0
    0.6618  -15.8819    2.6206 C   0  0  0  0  0  0  0  0  0  0  0  0
    1.7671  -16.1847    3.5758 C   0  0  0  0  0  0  0  0  0  0  0  0
    2.4349  -15.2318    4.0132 C   0  0  0  0  0  0  0  0  0  0  0  0
    2.1322  -14.0836    3.3939 N   0  0  0  0  0  0  0  0  0  0  0  0
  6  7  1  0
  4  8  1  0
  8  9  2  0
  8 10  1  0
  7 11  2  3
 11 12  1  0
 12 13  1  0
  1  2  2  0
  2  3  1  0
  3  4  2  0
  4  5  1  0
  5  6  2  0
  1  6  1  0
 13 14  2  0
 14 15  1  0
 15 16  2  0
 16 17  1  0
 17 18  2  0
 13 18  1  0
M  END

$$$$
No_1620-/export/home/yangzhenyu/potential_scad_32_flow//YTHDC2/2024-12-06-03-22-00/
     RDKit          3D

 18 19  0  0  0  0  0  0  0  0999 V2000
    1.1787   -8.0297    3.5154 C   0  0  0  0  0  0  0  0  0  0  0  0
    1.0491   -6.8434    2.9820 C   0  0  0  0  0  0  0  0  0  0  0  0
    0.0950   -8.8404    3.2292 C   0  0  0  0  0  0  0  0  0  0  0  0
   -0.9173   -8.4596    2.5152 C   0  0  0  0  0  0  0  0  0  0  0  0
   -1.0331   -7.2162    2.0653 C   0  0  0  0  0  0  0  0  0  0  0  0
   -0.0105   -6.3168    2.3081 C   0  0  0  0  0  0  0  0  0  0  0  0
    0.1150   -4.9910    1.8495 C   0  0  0  0  0  0  0  0  0  0  0  0
    0.9121   -4.1017    2.4010 C   0  0  0  0  0  0  0  0  0  0  0  0
    0.1819  -10.4504    3.8985 C   0  0  0  0  0  0  0  0  0  0  0  0
    1.3295  -11.0412    4.0742 C   0  0  0  0  0  0  0  0  0  0  0  0
    1.3295  -12.3411    3.4785 C   0  0  0  0  0  0  0  0  0  0  0  0
    1.2087  -12.1660    2.0555 C   0  0  0  0  0  0  0  0  0  0  0  0
    0.8528  -13.1847    1.3508 C   0  0  0  0  0  0  0  0  0  0  0  0
    0.4375  -14.3524    1.8027 C   0  0  0  0  0  0  0  0  0  0  0  0
    0.6112  -14.5661    3.2956 C   0  0  0  0  0  0  0  0  0  0  0  0
    1.0996  -13.5027    3.9972 C   0  0  0  0  0  0  0  0  0  0  0  0
   -0.1576   -4.7553    0.4577 O   0  0  0  0  0  0  0  0  0  0  0  0
    0.4420  -15.8501    3.8448 C   0  0  0  0  0  0  0  0  0  0  0  0
  6  7  1  0
  7  8  2  0
  3  9  1  0
  9 10  1  0
 10 11  1  0
  7 17  1  0
 15 18  1  0
 11 12  2  0
 12 13  1  0
 13 14  2  0
 14 15  1  0
 15 16  2  0
 11 16  1  0
  1  2  2  0
  2  6  1  0
  5  6  2  0
  4  5  1  0
  3  4  2  0
  1  3  1  0
M  END

$$$$
No_1621-/export/home/yangzhenyu/potential_scad_32_flow//YTHDC2/2024-12-06-03-22-00/
     RDKit          3D

 20 21  0  0  1  0  0  0  0  0999 V2000
    1.1787   -8.0297    3.5154 C   0  0  0  0  0  0  0  0  0  0  0  0
    1.1048   -9.2215    3.2892 C   0  0  0  0  0  0  0  0  0  0  0  0
    1.2339   -9.7611    2.0189 C   0  0  0  0  0  0  0  0  0  0  0  0
    1.3583   -9.0036    0.9764 C   0  0  0  0  0  0  0  0  0  0  0  0
    1.7077   -9.6100   -0.3010 C   0  0  0  0  0  0  0  0  0  0  0  0
    1.3637   -7.1087    2.3226 C   0  0  0  0  0  0  0  0  0  0  0  0
    1.4257   -7.6645    1.0231 C   0  0  0  0  0  0  0  0  0  0  0  0
    1.9364   -8.8976   -1.3212 O   0  0  0  0  0  0  0  0  0  0  0  0
    1.5161  -10.9175   -0.4592 O   0  0  0  0  0  0  0  0  0  0  0  0
    1.1260  -10.3020    4.5777 Cl  0  0  0  0  0  0  0  0  0  0  0  0
    1.3168   -5.3781    2.6036 C   0  0  0  0  0  0  0  0  0  0  0  0
    1.5319   -5.1010    3.7463 O   0  0  0  0  0  0  0  0  0  0  0  0
    1.3330   -4.7599    1.5523 O   0  0  0  0  0  0  0  0  0  0  0  0
    1.2287  -11.1489    1.9421 C   0  0  0  0  0  0  0  0  0  0  0  0
    1.3879  -11.6831    0.4315 C   0  0  1  0  0  0  0  0  0  0  0  0
    1.2732  -13.0861    0.3313 C   0  0  0  0  0  0  0  0  0  0  0  0
    2.1433  -13.8979    0.8323 C   0  0  0  0  0  0  0  0  0  0  0  0
    1.8771  -14.5721    2.0389 C   0  0  0  0  0  0  0  0  0  0  0  0
    0.7894  -15.4065    2.0052 C   0  0  0  0  0  0  0  0  0  0  0  0
    0.7673  -16.1641    3.2508 C   0  0  0  0  0  0  0  0  0  0  0  0
  4  5  1  0
  5  8  2  0
  5  9  1  0
  2 10  1  0
  6 11  1  0
 11 12  1  0
 11 13  2  0
  3 14  1  0
  9 15  1  0
 14 15  1  0
 15 16  1  6
 16 17  1  0
 17 18  1  0
 18 19  1  0
 19 20  1  0
  1  2  2  0
  2  3  1  0
  3  4  2  0
  4  7  1  0
  6  7  2  0
  1  6  1  0
M  END

$$$$
No_1622-/export/home/yangzhenyu/potential_scad_32_flow//YTHDC2/2024-12-06-03-22-00/
     RDKit          3D

 18 19  0  0  0  0  0  0  0  0999 V2000
    1.1787   -8.0297    3.5154 C   0  0  0  0  0  0  0  0  0  0  0  0
    1.1048   -9.2215    3.2892 C   0  0  0  0  0  0  0  0  0  0  0  0
    1.2339   -9.7611    2.0189 C   0  0  0  0  0  0  0  0  0  0  0  0
    1.1954  -11.2312    1.8661 C   0  0  0  0  0  0  0  0  0  0  0  0
    1.5546  -12.1691    2.7931 C   0  0  0  0  0  0  0  0  0  0  0  0
    0.5849   -7.0929    2.5729 C   0  0  0  0  0  0  0  0  0  0  0  0
    0.5567   -7.6699    1.1955 C   0  0  0  0  0  0  0  0  0  0  0  0
    0.7903   -8.9699    0.9209 C   0  0  0  0  0  0  0  0  0  0  0  0
    1.5479  -13.4950    2.3568 C   0  0  0  0  0  0  0  0  0  0  0  0
    1.2456  -13.9001    1.1648 C   0  0  0  0  0  0  0  0  0  0  0  0
    1.0233  -13.0589    0.1983 C   0  0  0  0  0  0  0  0  0  0  0  0
    0.9548  -11.6626    0.4956 C   0  0  0  0  0  0  0  0  0  0  0  0
    0.6175   -5.4409    2.6606 C   0  0  0  0  0  0  0  0  0  0  0  0
    1.7159   -4.9469    3.1881 C   0  0  0  0  0  0  0  0  0  0  0  0
    1.9596  -14.4031    3.4101 N   0  0  0  0  0  0  0  0  0  0  0  0
    1.4865   -3.5117    3.2599 C   0  0  0  0  0  0  0  0  0  0  0  0
   -0.5740   -4.9918    2.2436 C   0  0  0  0  0  0  0  0  0  0  0  0
   -0.6877   -3.6358    2.4442 C   0  0  0  0  0  0  0  0  0  0  0  0
  3  4  1  0
  6 13  1  0
 13 14  1  0
  9 15  1  0
 14 16  2  0
 13 17  1  0
 17 18  2  0
  1  2  2  0
  2  3  1  0
  3  8  2  0
  7  8  1  0
  6  7  2  0
  1  6  1  0
  4  5  2  0
  5  9  1  0
  9 10  2  0
 10 11  1  0
 11 12  2  0
  4 12  1  0
M  END

$$$$
No_1623-/export/home/yangzhenyu/potential_scad_32_flow//YTHDC2/2024-12-06-03-22-00/
     RDKit          3D

 17 18  0  0  0  0  0  0  0  0999 V2000
    1.1787   -8.0297    3.5154 C   0  0  0  0  0  0  0  0  0  0  0  0
    1.1048   -9.2215    3.2892 C   0  0  0  0  0  0  0  0  0  0  0  0
    1.4683  -10.2314    4.1915 C   0  0  0  0  0  0  0  0  0  0  0  0
    0.8445   -6.9865    2.5175 C   0  0  0  0  0  0  0  0  0  0  0  0
    0.9565   -5.6241    2.7496 C   0  0  0  0  0  0  0  0  0  0  0  0
    1.2330  -11.5655    4.0988 C   0  0  0  0  0  0  0  0  0  0  0  0
    0.5689  -11.9716    3.0158 C   0  0  0  0  0  0  0  0  0  0  0  0
    0.1947  -11.0987    2.0084 C   0  0  0  0  0  0  0  0  0  0  0  0
    0.5194   -9.7813    2.1688 C   0  0  0  0  0  0  0  0  0  0  0  0
    0.7413   -4.7378    1.7962 Cl  0  0  0  0  0  0  0  0  0  0  0  0
    0.3972  -13.4263    2.8362 C   0  0  0  0  0  0  0  0  0  0  0  0
    1.4152  -14.3391    3.1931 C   0  0  0  0  0  0  0  0  0  0  0  0
    1.1362  -15.7108    3.0499 C   0  0  0  0  0  0  0  0  0  0  0  0
    0.0114  -16.1308    2.6462 C   0  0  0  0  0  0  0  0  0  0  0  0
   -0.9380  -15.3161    2.1866 C   0  0  0  0  0  0  0  0  0  0  0  0
   -0.6976  -13.9220    2.3075 C   0  0  0  0  0  0  0  0  0  0  0  0
   -1.7984  -13.1139    2.0380 C   0  0  0  0  0  0  0  0  0  0  0  0
  1  4  1  0
  4  5  1  0
  5 10  1  0
  7 11  1  0
 16 17  1  0
  1  2  1  0
 11 12  2  0
 12 13  1  0
 13 14  2  0
 14 15  1  0
 15 16  2  0
 11 16  1  0
  2  3  2  0
  3  6  1  0
  6  7  2  0
  7  8  1  0
  8  9  2  0
  2  9  1  0
M  END

$$$$
No_1624-/export/home/yangzhenyu/potential_scad_32_flow//YTHDC2/2024-12-06-03-22-00/
     RDKit          3D

 17 17  0  0  1  0  0  0  0  0999 V2000
    1.1787   -8.0297    3.5154 O   0  0  0  0  0  0  0  0  0  0  0  0
    0.6747   -7.4019    2.7838 C   0  0  0  0  0  0  0  0  0  0  0  0
    0.7594   -8.0032    1.4295 C   0  0  0  0  0  0  0  0  0  0  0  0
    0.3459   -9.1500    1.3581 C   0  0  1  0  0  0  0  0  0  0  0  0
    0.9461   -9.9230    0.3350 C   0  0  0  0  0  0  0  0  0  0  0  0
    1.6883   -9.1548   -0.6694 O   0  0  0  0  0  0  0  0  0  0  0  0
    0.9152  -11.1257    0.1085 O   0  0  0  0  0  0  0  0  0  0  0  0
    0.2828   -6.2907    3.0721 O   0  0  0  0  0  0  0  0  0  0  0  0
    0.2569   -9.9827    2.4770 C   0  0  0  0  0  0  0  0  0  0  0  0
   -1.1705  -10.0534    2.9942 C   0  0  0  0  0  0  0  0  0  0  0  0
   -1.1690  -10.1807    4.3622 C   0  0  0  0  0  0  0  0  0  0  0  0
   -2.4105  -10.0952    4.9815 C   0  0  0  0  0  0  0  0  0  0  0  0
   -3.5221   -9.8758    4.1768 C   0  0  0  0  0  0  0  0  0  0  0  0
   -3.4040   -9.7256    2.8821 C   0  0  0  0  0  0  0  0  0  0  0  0
   -2.1832   -9.8404    2.2679 C   0  0  0  0  0  0  0  0  0  0  0  0
   -4.9276   -9.8667    4.9075 C   0  0  0  0  0  0  0  0  0  0  0  0
   -5.5328  -11.0307    5.0644 C   0  0  0  0  0  0  0  0  0  0  0  0
  1  2  1  0
  2  3  1  0
  4  3  1  1
  4  5  1  0
  5  6  1  0
  5  7  2  0
  2  8  2  0
  4  9  1  0
  9 10  1  0
 13 16  1  0
 16 17  1  0
 10 11  2  0
 11 12  1  0
 12 13  2  0
 13 14  1  0
 14 15  2  0
 10 15  1  0
M  END

$$$$
No_1625-/export/home/yangzhenyu/potential_scad_32_flow//YTHDC2/2024-12-06-03-22-00/
     RDKit          3D

 18 20  0  0  0  0  0  0  0  0999 V2000
    1.1787   -8.0297    3.5154 C   0  0  0  0  0  0  0  0  0  0  0  0
    1.1048   -9.2215    3.2892 C   0  0  0  0  0  0  0  0  0  0  0  0
    1.0239   -9.7790    2.0239 C   0  0  0  0  0  0  0  0  0  0  0  0
    1.1393   -9.0211    0.9686 C   0  0  0  0  0  0  0  0  0  0  0  0
    1.4050   -7.6500    1.1251 C   0  0  0  0  0  0  0  0  0  0  0  0
    1.4868   -7.1041    2.3534 C   0  0  0  0  0  0  0  0  0  0  0  0
    1.5562   -5.7208    2.5782 C   0  0  0  0  0  0  0  0  0  0  0  0
    0.8750  -11.2135    1.9117 C   0  0  0  0  0  0  0  0  0  0  0  0
    1.8912  -12.0349    2.0516 C   0  0  0  0  0  0  0  0  0  0  0  0
    1.6569  -13.3366    2.2644 C   0  0  0  0  0  0  0  0  0  0  0  0
    0.3991  -13.8265    1.9890 C   0  0  0  0  0  0  0  0  0  0  0  0
    0.0681  -15.2687    2.2140 C   0  0  0  0  0  0  0  0  0  0  0  0
   -1.0644  -15.7035    2.2109 C   0  0  0  0  0  0  0  0  0  0  0  0
   -2.1400  -14.8431    2.1288 C   0  0  0  0  0  0  0  0  0  0  0  0
   -1.9512  -13.4560    2.0920 C   0  0  0  0  0  0  0  0  0  0  0  0
   -0.5959  -12.9605    2.0660 C   0  0  0  0  0  0  0  0  0  0  0  0
   -0.3808  -11.7573    1.8824 N   0  0  0  0  0  0  0  0  0  0  0  0
    1.2935   -4.7807    1.6453 O   0  0  0  0  0  0  0  0  0  0  0  0
  6  7  1  0
  3  8  1  0
  7 18  2  0
 11 12  1  0
 12 13  2  0
 13 14  1  0
 14 15  2  0
 15 16  1  0
  1  2  2  0
  2  3  1  0
  3  4  2  0
  4  5  1  0
  5  6  2  0
  1  6  1  0
  8  9  2  0
  9 10  1  0
 10 11  2  0
 11 16  1  0
 16 17  2  0
  8 17  1  0
M  END

$$$$
No_1626-/export/home/yangzhenyu/potential_scad_32_flow//YTHDC2/2024-12-06-03-22-00/
     RDKit          3D

 17 17  0  0  0  0  0  0  0  0999 V2000
    1.1787   -8.0297    3.5154 C   0  0  0  0  0  0  0  0  0  0  0  0
    1.0491   -6.8434    2.9820 C   0  0  0  0  0  0  0  0  0  0  0  0
    0.0950   -8.8404    3.2292 C   0  0  0  0  0  0  0  0  0  0  0  0
   -0.7663   -8.2602    2.4375 C   0  0  0  0  0  0  0  0  0  0  0  0
   -0.7437   -6.9718    1.9778 C   0  0  0  0  0  0  0  0  0  0  0  0
    0.2554   -6.2202    2.2855 C   0  0  0  0  0  0  0  0  0  0  0  0
    0.4072   -4.8741    1.9191 C   0  0  0  0  0  0  0  0  0  0  0  0
    0.0230  -10.2260    3.5719 C   0  0  0  0  0  0  0  0  0  0  0  0
   -1.2316  -10.7955    3.7699 O   0  0  0  0  0  0  0  0  0  0  0  0
    1.0500  -10.8504    4.2568 N   0  0  0  0  0  0  0  0  0  0  0  0
    1.0951  -12.2085    4.4460 C   0  0  0  0  0  0  0  0  0  0  0  0
    2.0900  -12.8023    3.2597 C   0  0  0  0  0  0  0  0  0  0  0  0
    1.6968  -12.3661    1.9517 Cl  0  0  0  0  0  0  0  0  0  0  0  0
   -0.4151   -4.0089    1.9737 C   0  0  0  0  0  0  0  0  0  0  0  0
   -0.3430   -2.6339    1.4997 C   0  0  0  0  0  0  0  0  0  0  0  0
    0.5559   -2.0073    1.9328 C   0  0  0  0  0  0  0  0  0  0  0  0
    1.8067   -2.7509    2.2097 C   0  0  0  0  0  0  0  0  0  0  0  0
  6  7  1  0
  3  8  1  0
  8  9  2  0
  8 10  1  0
 10 11  1  0
 11 12  1  0
 12 13  1  0
  7 14  2  3
 14 15  1  0
 15 16  2  3
 16 17  1  0
  1  2  2  0
  2  6  1  0
  5  6  2  0
  4  5  1  0
  3  4  2  0
  1  3  1  0
M  END

$$$$
No_1627-/export/home/yangzhenyu/potential_scad_32_flow//YTHDC2/2024-12-06-03-22-00/
     RDKit          3D

 19 20  0  0  1  0  0  0  0  0999 V2000
    1.1787   -8.0297    3.5154 C   0  0  0  0  0  0  0  0  0  0  0  0
    1.1048   -9.2215    3.2892 C   0  0  0  0  0  0  0  0  0  0  0  0
    1.2339   -9.7611    2.0189 C   0  0  0  0  0  0  0  0  0  0  0  0
    1.1954  -11.2312    1.8661 C   0  0  1  0  0  0  0  0  0  0  0  0
    1.2996  -11.5815    0.5387 C   0  0  0  0  0  0  0  0  0  0  0  0
    1.3263   -7.1208    2.3229 C   0  0  0  0  0  0  0  0  0  0  0  0
    1.3693   -7.6408    1.0625 C   0  0  0  0  0  0  0  0  0  0  0  0
    1.4358   -8.9950    0.8622 C   0  0  0  0  0  0  0  0  0  0  0  0
    1.8955  -11.8446    2.8953 C   0  0  0  0  0  0  0  0  0  0  0  0
    1.0417  -12.9506    3.5023 C   0  0  0  0  0  0  0  0  0  0  0  0
    0.5710  -13.9382    2.5320 C   0  0  0  0  0  0  0  0  0  0  0  0
    0.2655  -15.0623    2.9993 C   0  0  0  0  0  0  0  0  0  0  0  0
    0.8898  -16.1252    2.3963 C   0  0  0  0  0  0  0  0  0  0  0  0
    1.2953   -5.6417    2.5400 C   0  0  0  0  0  0  0  0  0  0  0  0
    0.7054  -17.4188    2.6927 C   0  0  0  0  0  0  0  0  0  0  0  0
   -0.2644  -17.7878    3.6359 C   0  0  0  0  0  0  0  0  0  0  0  0
   -0.9242  -16.7725    4.2915 C   0  0  0  0  0  0  0  0  0  0  0  0
   -0.6623  -15.5160    3.9871 C   0  0  0  0  0  0  0  0  0  0  0  0
    1.8157   -5.1551    3.5981 C   0  0  0  0  0  0  0  0  0  0  0  0
  3  4  1  0
  4  5  1  6
  4  9  1  0
  9 10  1  0
 10 11  1  0
 11 12  1  0
  6 14  1  0
 14 19  1  0
 12 13  2  0
 13 15  1  0
 15 16  2  0
 16 17  1  0
 17 18  2  0
 12 18  1  0
  1  2  2  0
  2  3  1  0
  3  8  2  0
  7  8  1  0
  6  7  2  0
  1  6  1  0
M  END

$$$$
No_1628-/export/home/yangzhenyu/potential_scad_32_flow//YTHDC2/2024-12-06-03-22-00/
     RDKit          3D

 18 18  0  0  0  0  0  0  0  0999 V2000
    1.1787   -8.0297    3.5154 C   0  0  0  0  0  0  0  0  0  0  0  0
    1.1048   -9.2215    3.2892 C   0  0  0  0  0  0  0  0  0  0  0  0
    1.3627  -10.1721    4.3044 C   0  0  0  0  0  0  0  0  0  0  0  0
    1.7354  -11.4730    3.9023 C   0  0  0  0  0  0  0  0  0  0  0  0
    1.8080  -11.8127    2.7216 C   0  0  0  0  0  0  0  0  0  0  0  0
    1.5854  -11.0021    1.7249 C   0  0  0  0  0  0  0  0  0  0  0  0
    1.3573   -9.7389    1.9287 C   0  0  0  0  0  0  0  0  0  0  0  0
    1.1102   -8.8712    0.9017 C   0  0  0  0  0  0  0  0  0  0  0  0
    1.5724   -9.1697   -0.3048 C   0  0  0  0  0  0  0  0  0  0  0  0
    2.8854   -9.3955   -0.5183 O   0  0  0  0  0  0  0  0  0  0  0  0
    0.9279   -9.1810   -1.3560 O   0  0  0  0  0  0  0  0  0  0  0  0
    2.0676  -13.2414    2.4093 C   0  0  0  0  0  0  0  0  0  0  0  0
    1.8205  -14.2008    3.2100 O   0  0  0  0  0  0  0  0  0  0  0  0
    2.5942  -13.5838    1.2716 O   0  0  0  0  0  0  0  0  0  0  0  0
    0.1092   -7.2274    3.3517 O   0  0  0  0  0  0  0  0  0  0  0  0
    2.2249   -7.2167    3.8431 O   0  0  0  0  0  0  0  0  0  0  0  0
    1.9262  -15.5241    2.7558 C   0  0  0  0  0  0  0  0  0  0  0  0
    0.9689  -16.4463    2.9732 C   0  0  0  0  0  0  0  0  0  0  0  0
  1  2  1  0
  7  8  1  0
  8  9  1  0
  9 10  1  0
  9 11  2  0
  5 12  1  0
 12 13  1  0
 12 14  2  0
  1 15  2  0
  1 16  1  0
 13 17  1  0
 17 18  1  0
  2  3  2  0
  3  4  1  0
  4  5  2  0
  5  6  1  0
  6  7  2  0
  2  7  1  0
M  END

$$$$
No_1629-/export/home/yangzhenyu/potential_scad_32_flow//YTHDC2/2024-12-06-03-22-00/
     RDKit          3D

 18 18  0  0  0  0  0  0  0  0999 V2000
    1.1787   -8.0297    3.5154 C   0  0  0  0  0  0  0  0  0  0  0  0
    1.1048   -9.2215    3.2892 C   0  0  0  0  0  0  0  0  0  0  0  0
    1.0239   -9.7790    2.0239 C   0  0  0  0  0  0  0  0  0  0  0  0
    1.1393   -9.0211    0.9686 C   0  0  0  0  0  0  0  0  0  0  0  0
    1.4051   -7.6500    1.1251 C   0  0  0  0  0  0  0  0  0  0  0  0
    1.4868   -7.1041    2.3534 C   0  0  0  0  0  0  0  0  0  0  0  0
    0.9659  -10.1420    4.4543 C   0  0  0  0  0  0  0  0  0  0  0  0
   -0.2019  -11.0061    4.5153 O   0  0  0  0  0  0  0  0  0  0  0  0
    2.1241  -11.0996    4.6089 O   0  0  0  0  0  0  0  0  0  0  0  0
    1.0728   -9.5169   -0.3509 C   0  0  0  0  0  0  0  0  0  0  0  0
    1.8517   -9.2628   -1.2764 O   0  0  0  0  0  0  0  0  0  0  0  0
    0.0605  -10.2720   -0.6799 O   0  0  0  0  0  0  0  0  0  0  0  0
    1.5442   -5.4270    2.6421 O   0  0  0  0  0  0  0  0  0  0  0  0
    0.8107   -4.7442    1.9331 C   0  0  0  0  0  0  0  0  0  0  0  0
    0.3186   -3.7175    2.7876 C   0  0  0  0  0  0  0  0  0  0  0  0
   -0.9569   -3.5978    2.7813 C   0  0  0  0  0  0  0  0  0  0  0  0
   -1.6262   -2.7092    3.6770 C   0  0  0  0  0  0  0  0  0  0  0  0
   -0.6776   -1.8364    4.5579 C   0  0  0  0  0  0  0  0  0  0  0  0
  2  7  1  0
  7  8  1  0
  7  9  2  0
  4 10  1  0
 10 11  2  0
 10 12  1  0
  6 13  1  0
 13 14  1  0
 14 15  1  0
 15 16  2  3
 16 17  1  0
 17 18  2  0
  1  2  2  0
  2  3  1  0
  3  4  2  0
  4  5  1  0
  5  6  2  0
  1  6  1  0
M  END

$$$$
No_1630-/export/home/yangzhenyu/potential_scad_32_flow//YTHDC2/2024-12-06-03-22-00/
     RDKit          3D

 17 17  0  0  0  0  0  0  0  0999 V2000
    1.1787   -8.0297    3.5154 C   0  0  0  0  0  0  0  0  0  0  0  0
    1.1048   -9.2215    3.2892 C   0  0  0  0  0  0  0  0  0  0  0  0
    1.3627  -10.1721    4.3044 C   0  0  0  0  0  0  0  0  0  0  0  0
    1.7354  -11.4730    3.9023 C   0  0  0  0  0  0  0  0  0  0  0  0
    1.8080  -11.8127    2.7216 C   0  0  0  0  0  0  0  0  0  0  0  0
    1.5854  -11.0021    1.7249 C   0  0  0  0  0  0  0  0  0  0  0  0
    1.3573   -9.7389    1.9287 C   0  0  0  0  0  0  0  0  0  0  0  0
    1.2865   -8.8078    0.9161 C   0  0  0  0  0  0  0  0  0  0  0  0
    1.6845   -9.1638   -0.2896 C   0  0  0  0  0  0  0  0  0  0  0  0
    2.2611   -8.4546   -1.0900 O   0  0  0  0  0  0  0  0  0  0  0  0
    1.0802  -10.1093   -0.8721 O   0  0  0  0  0  0  0  0  0  0  0  0
    2.0560  -13.2400    2.3950 C   0  0  0  0  0  0  0  0  0  0  0  0
    1.7834  -14.2035    3.2011 O   0  0  0  0  0  0  0  0  0  0  0  0
    2.5289  -13.5765    1.2057 O   0  0  0  0  0  0  0  0  0  0  0  0
    2.2990   -7.1814    3.7172 O   0  0  0  0  0  0  0  0  0  0  0  0
    0.0169   -7.3475    3.1715 N   0  0  0  0  0  0  0  0  0  0  0  0
   -0.1686   -6.0115    2.9591 C   0  0  0  0  0  0  0  0  0  0  0  0
  1  2  1  0
  7  8  1  0
  8  9  1  0
  9 10  1  0
  9 11  2  0
  5 12  1  0
 12 13  1  0
 12 14  2  0
  1 15  2  0
  1 16  1  0
 16 17  1  0
  2  3  2  0
  3  4  1  0
  4  5  2  0
  5  6  1  0
  6  7  2  0
  2  7  1  0
M  END

$$$$
No_1631-/export/home/yangzhenyu/potential_scad_32_flow//YTHDC2/2024-12-06-03-22-00/
     RDKit          3D

 18 19  0  0  1  0  0  0  0  0999 V2000
    1.1787   -8.0297    3.5154 C   0  0  0  0  0  0  0  0  0  0  0  0
    1.0491   -6.8434    2.9820 C   0  0  0  0  0  0  0  0  0  0  0  0
    0.9905   -9.0774    2.6527 C   0  0  0  0  0  0  0  0  0  0  0  0
    0.7897   -8.9519    1.3691 C   0  0  0  0  0  0  0  0  0  0  0  0
    0.7018   -7.7198    0.7892 C   0  0  0  0  0  0  0  0  0  0  0  0
    0.8918   -6.5957    1.6117 C   0  0  0  0  0  0  0  0  0  0  0  0
    1.0774  -10.6059    3.3145 C   0  0  2  0  0  0  0  0  0  0  0  0
    2.1444  -11.0408    3.6446 C   0  0  0  0  0  0  0  0  0  0  0  0
    0.3723  -11.5410    2.4414 N   0  0  0  0  0  0  0  0  0  0  0  0
   -0.9342  -11.6411    2.7222 C   0  0  0  0  0  0  0  0  0  0  0  0
   -1.7002  -12.6725    2.3856 C   0  0  0  0  0  0  0  0  0  0  0  0
   -3.0643  -12.7574    2.8229 C   0  0  0  0  0  0  0  0  0  0  0  0
   -3.5717  -11.7541    3.6556 C   0  0  0  0  0  0  0  0  0  0  0  0
   -2.7867  -10.7704    4.2031 C   0  0  0  0  0  0  0  0  0  0  0  0
   -1.4092  -10.6718    3.7699 C   0  0  0  0  0  0  0  0  0  0  0  0
    0.8266   -5.2560    1.1245 N   0  0  0  0  0  0  0  0  0  0  0  0
    2.6771  -10.5234    4.9878 O   0  0  0  0  0  0  0  0  0  0  0  0
   -0.2717   -4.5904    0.9793 O   0  0  0  0  0  0  0  0  0  0  0  0
  3  7  1  0
  7  8  1  6
  7  9  1  0
  9 10  1  0
  6 16  1  0
  8 17  1  0
 16 18  2  0
  1  2  2  0
  2  6  1  0
  5  6  2  0
  4  5  1  0
  3  4  2  0
  1  3  1  0
 10 11  2  0
 11 12  1  0
 12 13  2  0
 13 14  1  0
 14 15  2  0
 10 15  1  0
M  END

$$$$
No_1632-/export/home/yangzhenyu/potential_scad_32_flow//YTHDC2/2024-12-06-03-22-00/
     RDKit          3D

 19 20  0  0  0  0  0  0  0  0999 V2000
    1.1787   -8.0297    3.5154 N   0  0  0  0  0  0  0  0  0  0  0  0
    0.8669   -7.0905    2.8589 C   0  0  0  0  0  0  0  0  0  0  0  0
    1.0447   -7.3244    1.4123 C   0  0  0  0  0  0  0  0  0  0  0  0
    1.3746   -8.4389    1.0864 C   0  0  0  0  0  0  0  0  0  0  0  0
    1.6686   -9.1952    2.5608 C   0  0  0  0  0  0  0  0  0  0  0  0
    2.0183  -10.4317    2.7666 C   0  0  0  0  0  0  0  0  0  0  0  0
    2.0725  -10.9647    3.9731 C   0  0  0  0  0  0  0  0  0  0  0  0
    1.6690   -9.1034   -0.0236 C   0  0  0  0  0  0  0  0  0  0  0  0
    1.9633   -8.5420   -1.0717 O   0  0  0  0  0  0  0  0  0  0  0  0
    1.8440  -10.4865   -0.1175 O   0  0  0  0  0  0  0  0  0  0  0  0
    1.0976  -11.7547    4.2317 C   0  0  0  0  0  0  0  0  0  0  0  0
    0.1914  -12.0201    3.1296 C   0  0  0  0  0  0  0  0  0  0  0  0
   -0.1379  -12.9919    2.8977 C   0  0  0  0  0  0  0  0  0  0  0  0
   -1.0700  -13.3688    1.7862 C   0  0  0  0  0  0  0  0  0  0  0  0
   -1.5968  -12.1884    1.3299 C   0  0  0  0  0  0  0  0  0  0  0  0
   -1.1480  -11.0765    2.0411 C   0  0  0  0  0  0  0  0  0  0  0  0
   -0.3863  -10.8535    2.9096 C   0  0  0  0  0  0  0  0  0  0  0  0
    0.4995  -14.3720    3.1739 C   0  0  0  0  0  0  0  0  0  0  0  0
    1.0102  -15.2477    2.3259 N   0  0  0  0  0  0  0  0  0  0  0  0
  1  2  1  0
  2  3  2  0
  3  4  1  0
  1  5  1  0
  4  5  2  0
  5  6  1  0
  6  7  1  0
  4  8  1  0
  8  9  2  0
  8 10  1  0
  7 11  1  0
 11 12  1  0
 13 18  1  0
 18 19  1  0
 12 13  2  0
 13 14  1  0
 14 15  2  0
 15 16  1  0
 16 17  2  0
 12 17  1  0
M  END

$$$$
No_1633-/export/home/yangzhenyu/potential_scad_32_flow//YTHDC2/2024-12-06-03-22-00/
     RDKit          3D

 20 20  0  0  1  0  0  0  0  0999 V2000
    1.1787   -8.0297    3.5154 C   0  0  0  0  0  0  0  0  0  0  0  0
    1.0491   -6.8434    2.9820 C   0  0  0  0  0  0  0  0  0  0  0  0
    0.0950   -8.8404    3.2292 C   0  0  0  0  0  0  0  0  0  0  0  0
   -0.9173   -8.4596    2.5152 C   0  0  0  0  0  0  0  0  0  0  0  0
   -1.0331   -7.2162    2.0653 C   0  0  0  0  0  0  0  0  0  0  0  0
   -0.0105   -6.3168    2.3081 C   0  0  0  0  0  0  0  0  0  0  0  0
    0.1150   -4.9910    1.8495 C   0  0  0  0  0  0  0  0  0  0  0  0
   -0.5774   -4.1593    2.0596 O   0  0  0  0  0  0  0  0  0  0  0  0
    1.1226   -4.6805    0.9513 O   0  0  0  0  0  0  0  0  0  0  0  0
    0.1816  -10.2865    3.6380 C   0  0  0  0  0  0  0  0  0  0  0  0
    0.3143  -11.3472    2.7939 C   0  0  0  0  0  0  0  0  0  0  0  0
    0.5376  -11.1965    1.6963 C   0  0  0  0  0  0  0  0  0  0  0  0
    1.8033  -10.7097    1.1242 C   0  0  0  0  0  0  0  0  0  0  0  0
    2.9073  -11.0867    1.8957 O   0  0  0  0  0  0  0  0  0  0  0  0
    1.9741   -9.6657    0.2706 O   0  0  0  0  0  0  0  0  0  0  0  0
    0.2116  -12.5817    3.4547 C   0  0  0  0  0  0  0  0  0  0  0  0
   -0.3401  -13.5932    2.8602 C   0  0  2  0  0  0  0  0  0  0  0  0
   -1.5751  -13.5936    2.4242 N   0  0  0  0  0  0  0  0  0  0  0  0
    0.3158  -14.8544    2.8815 C   0  0  0  0  0  0  0  0  0  0  0  0
    1.5944  -14.9541    3.3208 C   0  0  0  0  0  0  0  0  0  0  0  0
  6  7  1  0
  7  8  2  0
  7  9  1  0
  3 10  1  0
 10 11  1  0
 11 12  1  0
 12 13  1  0
 13 14  1  0
 13 15  2  0
 11 16  1  0
 16 17  1  0
 17 18  1  1
 17 19  1  0
 19 20  1  0
  1  2  2  0
  2  6  1  0
  5  6  2  0
  4  5  1  0
  3  4  2  0
  1  3  1  0
M  END

$$$$
No_1634-/export/home/yangzhenyu/potential_scad_32_flow//YTHDC2/2024-12-06-03-22-00/
     RDKit          3D

 19 19  0  0  1  0  0  0  0  0999 V2000
    1.1787   -8.0297    3.5154 C   0  0  0  0  0  0  0  0  0  0  0  0
    1.1048   -9.2215    3.2892 C   0  0  0  0  0  0  0  0  0  0  0  0
    1.3627  -10.1721    4.3044 C   0  0  0  0  0  0  0  0  0  0  0  0
    1.0682  -11.5187    4.0618 C   0  0  0  0  0  0  0  0  0  0  0  0
    0.6332  -11.9655    2.9682 C   0  0  0  0  0  0  0  0  0  0  0  0
    0.4776  -11.1308    1.9203 C   0  0  0  0  0  0  0  0  0  0  0  0
    0.7470   -9.8274    2.0368 C   0  0  0  0  0  0  0  0  0  0  0  0
    1.8805   -7.1616    3.5538 C   0  0  0  0  0  0  0  0  0  0  0  0
    0.3661  -13.4265    2.7867 C   0  0  0  0  0  0  0  0  0  0  0  0
    0.9243  -14.0434    1.7809 N   0  0  0  0  0  0  0  0  0  0  0  0
    1.7390  -15.0907    1.8948 C   0  0  1  0  0  0  0  0  0  0  0  0
    2.9966  -15.0060    2.2185 C   0  0  0  0  0  0  0  0  0  0  0  0
    0.4284   -8.9492    1.0685 C   0  0  0  0  0  0  0  0  0  0  0  0
    0.7306   -9.3917   -0.2281 O   0  0  0  0  0  0  0  0  0  0  0  0
    0.3527   -7.6116    0.9474 O   0  0  0  0  0  0  0  0  0  0  0  0
    1.1026  -16.3212    1.7743 C   0  0  0  0  0  0  0  0  0  0  0  0
   -0.0497  -16.5349    1.2932 C   0  0  0  0  0  0  0  0  0  0  0  0
    1.5297  -17.3492    2.6507 O   0  0  0  0  0  0  0  0  0  0  0  0
   -1.1898  -16.6801    1.7446 C   0  0  0  0  0  0  0  0  0  0  0  0
  1  2  1  0
  1  8  2  0
  5  9  1  0
  9 10  1  0
 10 11  1  0
 11 12  1  1
  7 13  1  0
 13 14  2  0
 13 15  1  0
 11 16  1  0
 16 17  1  0
 16 18  2  0
 17 19  1  0
  2  3  2  0
  3  4  1  0
  4  5  2  0
  5  6  1  0
  6  7  2  0
  2  7  1  0
M  END

$$$$
No_1635-/export/home/yangzhenyu/potential_scad_32_flow//YTHDC2/2024-12-06-03-22-00/
     RDKit          3D

 19 21  0  0  1  0  0  0  0  0999 V2000
    1.1787   -8.0297    3.5154 C   0  0  0  0  0  0  0  0  0  0  0  0
    1.1048   -9.2215    3.2892 C   0  0  0  0  0  0  0  0  0  0  0  0
    1.0239   -9.7790    2.0239 C   0  0  0  0  0  0  0  0  0  0  0  0
    1.1393   -9.0211    0.9686 C   0  0  0  0  0  0  0  0  0  0  0  0
    1.4050   -7.6500    1.1251 C   0  0  0  0  0  0  0  0  0  0  0  0
    1.4868   -7.1041    2.3534 C   0  0  0  0  0  0  0  0  0  0  0  0
    0.9659  -10.1420    4.4543 C   0  0  0  0  0  0  0  0  0  0  0  0
    0.7774  -11.6757    3.9967 C   0  0  0  0  0  0  0  0  0  0  0  0
    0.7817  -12.0852    2.8372 C   0  0  0  0  0  0  0  0  0  0  0  0
    0.8831  -11.1165    1.7750 C   0  0  0  0  0  0  0  0  0  0  0  0
    0.6909  -13.3907    2.5823 C   0  0  2  0  0  0  0  0  0  0  0  0
   -0.3260  -13.8326    1.7451 C   0  0  0  0  0  0  0  0  0  0  0  0
   -0.1516  -14.6357    0.7088 C   0  0  0  0  0  0  0  0  0  0  0  0
   -1.0647  -14.7395   -0.4031 C   0  0  0  0  0  0  0  0  0  0  0  0
   -2.2846  -14.2789   -0.2385 C   0  0  0  0  0  0  0  0  0  0  0  0
   -2.6511  -13.5369    0.8728 C   0  0  0  0  0  0  0  0  0  0  0  0
   -1.6710  -13.3164    1.8974 C   0  0  0  0  0  0  0  0  0  0  0  0
    0.9334  -11.5566    0.5406 O   0  0  0  0  0  0  0  0  0  0  0  0
    0.8344  -14.1783    3.8000 C   0  0  0  0  0  0  0  0  0  0  0  0
  2  7  1  0
  8  9  1  0
  3 10  1  0
  9 10  1  0
  9 11  1  0
 11 12  1  0
 10 18  2  0
 11 19  1  1
  7  8  1  0
 12 13  2  0
 13 14  1  0
 14 15  2  0
 15 16  1  0
 16 17  2  0
 12 17  1  0
  1  2  2  0
  2  3  1  0
  3  4  2  0
  4  5  1  0
  5  6  2  0
  1  6  1  0
M  END

$$$$
No_1636-/export/home/yangzhenyu/potential_scad_32_flow//YTHDC2/2024-12-06-03-22-00/
     RDKit          3D

 18 19  0  0  0  0  0  0  0  0999 V2000
    1.1787   -8.0297    3.5154 C   0  0  0  0  0  0  0  0  0  0  0  0
    1.0491   -6.8434    2.9820 C   0  0  0  0  0  0  0  0  0  0  0  0
    0.0950   -8.8404    3.2292 C   0  0  0  0  0  0  0  0  0  0  0  0
    0.0602  -10.1764    3.8231 C   0  0  0  0  0  0  0  0  0  0  0  0
    0.2248   -6.3830    2.0648 C   0  0  0  0  0  0  0  0  0  0  0  0
   -0.6745   -7.2322    1.6857 C   0  0  0  0  0  0  0  0  0  0  0  0
   -0.7374   -8.4992    2.1291 C   0  0  0  0  0  0  0  0  0  0  0  0
   -0.1792  -11.3045    3.0702 C   0  0  0  0  0  0  0  0  0  0  0  0
    0.7134  -11.5027    2.2140 C   0  0  0  0  0  0  0  0  0  0  0  0
    0.4526  -11.9060    1.0666 C   0  0  0  0  0  0  0  0  0  0  0  0
   -0.7581  -11.5606    0.6786 C   0  0  0  0  0  0  0  0  0  0  0  0
   -1.8340  -11.4299    1.5922 C   0  0  0  0  0  0  0  0  0  0  0  0
   -1.4756  -11.1378    2.8191 C   0  0  0  0  0  0  0  0  0  0  0  0
    0.3592   -5.1226    1.4099 C   0  0  0  0  0  0  0  0  0  0  0  0
    2.0069  -11.8747    2.7657 C   0  0  0  0  0  0  0  0  0  0  0  0
   -1.6131   -6.8673    0.7400 C   0  0  0  0  0  0  0  0  0  0  0  0
    2.3176  -12.0943    3.8614 C   0  0  0  0  0  0  0  0  0  0  0  0
    2.7938  -10.7877    4.6352 C   0  0  0  0  0  0  0  0  0  0  0  0
  3  4  1  0
  4  8  1  0
  5 14  1  0
  9 15  1  0
  6 16  1  0
 15 17  1  0
 17 18  1  0
  8  9  2  0
  9 10  1  0
 10 11  2  0
 11 12  1  0
 12 13  2  0
  8 13  1  0
  1  2  2  0
  2  5  1  0
  5  6  2  0
  6  7  1  0
  3  7  2  0
  1  3  1  0
M  END

$$$$
No_1637-/export/home/yangzhenyu/potential_scad_32_flow//YTHDC2/2024-12-06-03-22-00/
     RDKit          3D

 17 17  0  0  1  0  0  0  0  0999 V2000
    1.1787   -8.0297    3.5154 C   0  0  0  0  0  0  0  0  0  0  0  0
    1.0491   -6.8434    2.9820 C   0  0  0  0  0  0  0  0  0  0  0  0
    1.9985   -8.9840    2.8958 C   0  0  0  0  0  0  0  0  0  0  0  0
    1.9135  -10.3404    3.6266 C   0  0  2  0  0  0  0  0  0  0  0  0
    2.2847  -10.5440    4.7936 C   0  0  0  0  0  0  0  0  0  0  0  0
    0.3304   -6.7696    1.8077 C   0  0  2  0  0  0  0  0  0  0  0  0
    0.3816   -7.5583    0.9388 C   0  0  0  0  0  0  0  0  0  0  0  0
   -0.2935   -5.5160    1.7047 C   0  0  0  0  0  0  0  0  0  0  0  0
    1.6580  -11.4166    2.7586 C   0  0  0  0  0  0  0  0  0  0  0  0
    1.7599  -11.2505    1.4149 O   0  0  0  0  0  0  0  0  0  0  0  0
    1.4687  -12.6312    3.2399 N   0  0  0  0  0  0  0  0  0  0  0  0
    1.2162  -13.8238    2.4953 C   0  0  1  0  0  0  0  0  0  0  0  0
    2.2010  -14.5633    2.0860 C   0  0  0  0  0  0  0  0  0  0  0  0
    0.3556   -4.3084    1.9611 C   0  0  0  0  0  0  0  0  0  0  0  0
    2.0345  -15.8545    1.6432 O   0  0  0  0  0  0  0  0  0  0  0  0
    0.7642  -16.1296    1.4903 C   0  0  0  0  0  0  0  0  0  0  0  0
    0.1029  -14.9140    2.1604 C   0  0  0  0  0  0  0  0  0  0  0  0
  1  2  1  0
  1  3  1  0
  3  4  1  0
  4  5  1  6
  2  6  1  0
  6  7  1  6
  6  8  1  0
  4  9  1  0
  9 10  2  0
  9 11  1  0
 12 11  1  1
 12 13  1  0
  8 14  1  0
 13 15  1  0
 15 16  1  0
 12 17  1  0
 16 17  1  0
M  END

$$$$
No_1638-/export/home/yangzhenyu/potential_scad_32_flow//YTHDC2/2024-12-06-03-22-00/
     RDKit          3D

 17 19  0  0  0  0  0  0  0  0999 V2000
    1.1787   -8.0297    3.5154 C   0  0  0  0  0  0  0  0  0  0  0  0
    1.1048   -9.2215    3.2892 C   0  0  0  0  0  0  0  0  0  0  0  0
    1.3627  -10.1721    4.3044 C   0  0  0  0  0  0  0  0  0  0  0  0
    1.0682  -11.5187    4.0618 C   0  0  0  0  0  0  0  0  0  0  0  0
    0.6332  -11.9655    2.9682 C   0  0  0  0  0  0  0  0  0  0  0  0
    0.4776  -11.1308    1.9203 C   0  0  0  0  0  0  0  0  0  0  0  0
    0.7470   -9.8274    2.0368 C   0  0  0  0  0  0  0  0  0  0  0  0
    1.0387   -7.0301    2.5175 N   0  0  0  0  0  0  0  0  0  0  0  0
    0.9298   -7.5514    1.2672 C   0  0  0  0  0  0  0  0  0  0  0  0
    1.0340   -6.5995    0.3307 C   0  0  0  0  0  0  0  0  0  0  0  0
    0.6577   -8.7949    1.0261 C   0  0  0  0  0  0  0  0  0  0  0  0
    0.4240  -13.3808    2.7115 C   0  0  0  0  0  0  0  0  0  0  0  0
   -0.7965  -13.8167    2.3201 C   0  0  0  0  0  0  0  0  0  0  0  0
   -0.9946  -15.1912    2.1523 C   0  0  0  0  0  0  0  0  0  0  0  0
    0.4155  -15.9125    2.4319 C   0  0  0  0  0  0  0  0  0  0  0  0
    1.5006  -15.4713    2.8286 C   0  0  0  0  0  0  0  0  0  0  0  0
    1.5950  -14.0789    3.0220 C   0  0  0  0  0  0  0  0  0  0  0  0
  9 10  1  0
  5 12  1  0
 12 13  2  0
 13 14  1  0
 14 15  2  0
 15 16  1  0
 16 17  2  0
 12 17  1  0
  2  3  1  0
  3  4  2  0
  4  5  1  0
  5  6  2  0
  6  7  1  0
  1  2  2  0
  2  7  1  0
  7 11  2  0
  9 11  1  0
  8  9  2  0
  1  8  1  0
M  END

$$$$
No_1639-/export/home/yangzhenyu/potential_scad_32_flow//YTHDC2/2024-12-06-03-22-00/
     RDKit          3D

 18 19  0  0  1  0  0  0  0  0999 V2000
    1.1787   -8.0297    3.5154 C   0  0  0  0  0  0  0  0  0  0  0  0
    1.0491   -6.8434    2.9820 C   0  0  0  0  0  0  0  0  0  0  0  0
    0.0950   -8.8404    3.2292 C   0  0  0  0  0  0  0  0  0  0  0  0
   -0.9173   -8.4596    2.5152 C   0  0  0  0  0  0  0  0  0  0  0  0
   -1.0331   -7.2162    2.0653 C   0  0  0  0  0  0  0  0  0  0  0  0
   -0.0105   -6.3168    2.3081 C   0  0  0  0  0  0  0  0  0  0  0  0
    0.1465  -10.2446    3.6981 C   0  0  0  0  0  0  0  0  0  0  0  0
   -1.0337  -10.8619    3.9439 C   0  0  0  0  0  0  0  0  0  0  0  0
   -2.1702  -10.4673    3.2991 C   0  0  0  0  0  0  0  0  0  0  0  0
   -2.1358   -9.2084    2.5791 C   0  0  0  0  0  0  0  0  0  0  0  0
   -0.0074   -4.7440    1.7754 Cl  0  0  0  0  0  0  0  0  0  0  0  0
    1.2932  -10.7409    4.5540 C   0  0  0  0  0  0  0  0  0  0  0  0
    2.1996  -11.4630    3.7171 C   0  0  1  0  0  0  0  0  0  0  0  0
    3.2172  -11.6501    4.2345 C   0  0  0  0  0  0  0  0  0  0  0  0
    1.9778  -12.0222    2.4857 C   0  0  0  0  0  0  0  0  0  0  0  0
    2.0034  -11.1961    1.2652 O   0  0  0  0  0  0  0  0  0  0  0  0
    1.8533  -13.3639    2.1977 C   0  0  0  0  0  0  0  0  0  0  0  0
    3.9134  -10.3706    4.8720 C   0  0  0  0  0  0  0  0  0  0  0  0
  6 11  1  0
  7 12  1  0
 13 12  1  1
 13 14  1  0
 13 15  1  0
 15 16  2  0
 15 17  1  0
 14 18  1  0
  4 10  2  0
  9 10  1  0
  8  9  2  0
  7  8  1  0
  3  7  2  0
  1  2  2  0
  2  6  1  0
  5  6  2  0
  4  5  1  0
  3  4  1  0
  1  3  1  0
M  END

$$$$
No_1640-/export/home/yangzhenyu/potential_scad_32_flow//YTHDC2/2024-12-06-03-22-00/
     RDKit          3D

 17 19  0  0  0  0  0  0  0  0999 V2000
    1.1787   -8.0297    3.5154 C   0  0  0  0  0  0  0  0  0  0  0  0
    1.1048   -9.2215    3.2892 C   0  0  0  0  0  0  0  0  0  0  0  0
    1.3627  -10.1721    4.3044 C   0  0  0  0  0  0  0  0  0  0  0  0
    1.0682  -11.5187    4.0618 C   0  0  0  0  0  0  0  0  0  0  0  0
    0.6332  -11.9655    2.9682 C   0  0  0  0  0  0  0  0  0  0  0  0
    0.4776  -11.1308    1.9203 C   0  0  0  0  0  0  0  0  0  0  0  0
    0.7470   -9.8274    2.0368 C   0  0  0  0  0  0  0  0  0  0  0  0
    1.0387   -7.0301    2.5175 C   0  0  0  0  0  0  0  0  0  0  0  0
    0.9130   -7.5288    1.2013 C   0  0  0  0  0  0  0  0  0  0  0  0
    0.7893   -8.7980    0.9542 C   0  0  0  0  0  0  0  0  0  0  0  0
    0.5241   -9.2578   -0.2817 O   0  0  0  0  0  0  0  0  0  0  0  0
    0.4320  -13.6140    2.6753 C   0  0  0  0  0  0  0  0  0  0  0  0
    1.4817  -14.3830    3.1415 C   0  0  0  0  0  0  0  0  0  0  0  0
    1.1927  -15.7477    2.9665 C   0  0  0  0  0  0  0  0  0  0  0  0
    0.2365  -16.2150    2.2496 C   0  0  0  0  0  0  0  0  0  0  0  0
   -0.6392  -15.3529    1.6956 C   0  0  0  0  0  0  0  0  0  0  0  0
   -0.4342  -13.9981    1.8812 C   0  0  0  0  0  0  0  0  0  0  0  0
  1  2  1  0
  8  9  1  0
  7 10  1  0
  9 10  1  0
 10 11  2  0
  5 12  1  0
  1  8  1  0
 12 13  2  0
 13 14  1  0
 14 15  2  0
 15 16  1  0
 16 17  2  0
 12 17  1  0
  2  3  2  0
  3  4  1  0
  4  5  2  0
  5  6  1  0
  6  7  2  0
  2  7  1  0
M  END

$$$$
No_1641-/export/home/yangzhenyu/potential_scad_32_flow//YTHDC2/2024-12-06-03-22-00/
     RDKit          3D

 18 18  0  0  1  0  0  0  0  0999 V2000
    1.1787   -8.0297    3.5154 C   0  0  0  0  0  0  0  0  0  0  0  0
    1.0491   -6.8434    2.9820 C   0  0  0  0  0  0  0  0  0  0  0  0
    0.9905   -9.0774    2.6527 C   0  0  0  0  0  0  0  0  0  0  0  0
    0.7897   -8.9519    1.3691 C   0  0  0  0  0  0  0  0  0  0  0  0
    0.7018   -7.7198    0.7892 C   0  0  0  0  0  0  0  0  0  0  0  0
    0.8918   -6.5957    1.6117 C   0  0  0  0  0  0  0  0  0  0  0  0
    1.0998  -10.4710    3.2437 C   0  0  1  0  0  0  0  0  0  0  0  0
    2.1917  -10.8879    3.7399 C   0  0  0  0  0  0  0  0  0  0  0  0
    0.8983   -5.2566    1.2088 C   0  0  0  0  0  0  0  0  0  0  0  0
   -0.0163  -11.2298    3.3739 C   0  0  0  0  0  0  0  0  0  0  0  0
   -1.1391  -10.5481    3.9500 C   0  0  0  0  0  0  0  0  0  0  0  0
   -0.9353   -9.7877    5.1904 N   0  0  0  0  0  0  0  0  0  0  0  0
   -2.3787  -10.6097    3.5204 O   0  0  0  0  0  0  0  0  0  0  0  0
    2.2205  -10.9455    5.1765 Cl  0  0  0  0  0  0  0  0  0  0  0  0
   -0.2077   -4.7454    0.7520 O   0  0  0  0  0  0  0  0  0  0  0  0
    1.7799   -4.3404    1.6506 O   0  0  0  0  0  0  0  0  0  0  0  0
   -0.1021  -12.4304    3.0093 C   0  0  0  0  0  0  0  0  0  0  0  0
   -0.9025  -12.8355    1.9225 C   0  0  0  0  0  0  0  0  0  0  0  0
  3  7  1  0
  7  8  1  1
  6  9  1  0
  7 10  1  0
 10 11  1  0
 11 12  1  0
 11 13  2  0
  8 14  1  0
  9 15  2  0
  9 16  1  0
 10 17  1  0
 17 18  1  0
  1  2  2  0
  2  6  1  0
  5  6  2  0
  4  5  1  0
  3  4  2  0
  1  3  1  0
M  END

$$$$
No_1642-/export/home/yangzhenyu/potential_scad_32_flow//YTHDC2/2024-12-06-03-22-00/
     RDKit          3D

 19 21  0  0  0  0  0  0  0  0999 V2000
    1.1787   -8.0297    3.5154 C   0  0  0  0  0  0  0  0  0  0  0  0
    1.1048   -9.2215    3.2892 C   0  0  0  0  0  0  0  0  0  0  0  0
    1.3627  -10.1721    4.3044 C   0  0  0  0  0  0  0  0  0  0  0  0
    1.0682  -11.5187    4.0618 C   0  0  0  0  0  0  0  0  0  0  0  0
    0.6332  -11.9655    2.9682 C   0  0  0  0  0  0  0  0  0  0  0  0
    0.4776  -11.1308    1.9203 C   0  0  0  0  0  0  0  0  0  0  0  0
    0.7470   -9.8274    2.0368 C   0  0  0  0  0  0  0  0  0  0  0  0
    1.0387   -7.0301    2.5175 C   0  0  0  0  0  0  0  0  0  0  0  0
    0.9130   -7.5288    1.2013 C   0  0  0  0  0  0  0  0  0  0  0  0
    0.7893   -8.7979    0.9542 C   0  0  0  0  0  0  0  0  0  0  0  0
    0.3998  -13.3695    2.7114 C   0  0  0  0  0  0  0  0  0  0  0  0
    0.8304  -14.0169    1.7689 C   0  0  0  0  0  0  0  0  0  0  0  0
    1.4641  -15.1995    1.8885 C   0  0  0  0  0  0  0  0  0  0  0  0
    1.0519  -16.0624    2.9850 C   0  0  0  0  0  0  0  0  0  0  0  0
    0.5191  -15.3863    4.1247 C   0  0  0  0  0  0  0  0  0  0  0  0
    0.1893  -14.0648    3.9766 C   0  0  0  0  0  0  0  0  0  0  0  0
    0.4360   -9.2899   -0.5225 C   0  0  0  0  0  0  0  0  0  0  0  0
    1.2431   -9.1905   -1.3590 O   0  0  0  0  0  0  0  0  0  0  0  0
   -0.8460   -9.2592   -0.8161 O   0  0  0  0  0  0  0  0  0  0  0  0
  5 11  1  0
 10 17  1  0
 17 18  2  0
 17 19  1  0
 11 12  2  0
 12 13  1  0
 13 14  2  0
 14 15  1  0
 15 16  2  0
 11 16  1  0
  2  3  1  0
  3  4  2  0
  4  5  1  0
  5  6  2  0
  6  7  1  0
  1  2  2  0
  2  7  1  0
  7 10  2  0
  9 10  1  0
  8  9  2  0
  1  8  1  0
M  END

$$$$
No_1643-/export/home/yangzhenyu/potential_scad_32_flow//YTHDC2/2024-12-06-03-22-00/
     RDKit          3D

 19 20  0  0  0  0  0  0  0  0999 V2000
    1.1787   -8.0297    3.5154 C   0  0  0  0  0  0  0  0  0  0  0  0
    1.0491   -6.8434    2.9820 C   0  0  0  0  0  0  0  0  0  0  0  0
    0.9905   -9.0774    2.6527 C   0  0  0  0  0  0  0  0  0  0  0  0
    0.7897   -8.9519    1.3691 C   0  0  0  0  0  0  0  0  0  0  0  0
    0.7018   -7.7198    0.7892 C   0  0  0  0  0  0  0  0  0  0  0  0
    0.8918   -6.5957    1.6117 C   0  0  0  0  0  0  0  0  0  0  0  0
    1.0711  -10.4814    3.2282 C   0  0  0  0  0  0  0  0  0  0  0  0
   -0.1055  -11.1328    3.5223 C   0  0  0  0  0  0  0  0  0  0  0  0
   -0.7419  -11.5628    2.6150 C   0  0  0  0  0  0  0  0  0  0  0  0
   -2.1035  -12.0758    2.8938 C   0  0  0  0  0  0  0  0  0  0  0  0
   -2.9887  -11.2491    3.6453 C   0  0  0  0  0  0  0  0  0  0  0  0
   -2.3147  -10.4149    4.6536 C   0  0  0  0  0  0  0  0  0  0  0  0
   -0.8320  -10.2547    4.5589 C   0  0  0  0  0  0  0  0  0  0  0  0
    0.8774   -5.2920    1.0991 C   0  0  0  0  0  0  0  0  0  0  0  0
    2.2668  -11.0160    3.4128 C   0  0  0  0  0  0  0  0  0  0  0  0
    0.1762   -4.2589    1.9013 C   0  0  0  0  0  0  0  0  0  0  0  0
    0.1796   -3.0704    1.2973 C   0  0  0  0  0  0  0  0  0  0  0  0
   -0.1430   -2.1911    1.7189 C   0  0  0  0  0  0  0  0  0  0  0  0
   -0.7211   -2.1785    3.0495 C   0  0  0  0  0  0  0  0  0  0  0  0
  3  7  1  0
  7  8  1  0
  6 14  1  0
  7 15  1  0
 14 16  1  0
 16 17  1  0
 17 18  2  3
 18 19  1  0
  1  2  2  0
  2  6  1  0
  5  6  2  0
  4  5  1  0
  3  4  2  0
  1  3  1  0
  8  9  2  0
  9 10  1  0
 10 11  2  0
 11 12  1  0
 12 13  2  0
  8 13  1  0
M  END

$$$$
No_1644-/export/home/yangzhenyu/potential_scad_32_flow//YTHDC2/2024-12-06-03-22-00/
     RDKit          3D

 16 17  0  0  0  0  0  0  0  0999 V2000
    1.1787   -8.0297    3.5154 C   0  0  0  0  0  0  0  0  0  0  0  0
    1.1048   -9.2215    3.2892 C   0  0  0  0  0  0  0  0  0  0  0  0
    1.2339   -9.7611    2.0189 C   0  0  0  0  0  0  0  0  0  0  0  0
    1.3583   -9.0036    0.9764 C   0  0  0  0  0  0  0  0  0  0  0  0
    1.5996   -7.6362    1.1311 C   0  0  0  0  0  0  0  0  0  0  0  0
    1.4830   -7.0928    2.3626 C   0  0  0  0  0  0  0  0  0  0  0  0
    1.1171  -11.3311    1.8661 C   0  0  0  0  0  0  0  0  0  0  0  0
    0.5042  -11.9974    2.3631 C   0  0  0  0  0  0  0  0  0  0  0  0
    0.4547  -13.3874    2.1599 C   0  0  0  0  0  0  0  0  0  0  0  0
    1.6053  -14.2337    2.6336 C   0  0  0  0  0  0  0  0  0  0  0  0
    1.8824  -15.3044    2.2170 C   0  0  0  0  0  0  0  0  0  0  0  0
    1.1618  -16.0294    1.3875 C   0  0  0  0  0  0  0  0  0  0  0  0
    0.0307  -15.4545    0.9345 C   0  0  0  0  0  0  0  0  0  0  0  0
   -0.3202  -14.1447    1.3082 C   0  0  0  0  0  0  0  0  0  0  0  0
    1.5939   -5.4738    2.6941 Cl  0  0  0  0  0  0  0  0  0  0  0  0
    1.4962   -9.4328   -0.3897 C   0  0  0  0  0  0  0  0  0  0  0  0
  3  7  1  0
  7  8  2  3
  8  9  1  0
  6 15  1  0
  4 16  1  0
  1  2  2  0
  2  3  1  0
  3  4  2  0
  4  5  1  0
  5  6  2  0
  1  6  1  0
  9 10  2  0
 10 11  1  0
 11 12  2  0
 12 13  1  0
 13 14  2  0
  9 14  1  0
M  END

$$$$
No_1645-/export/home/yangzhenyu/potential_scad_32_flow//YTHDC2/2024-12-06-03-22-00/
     RDKit          3D

 19 19  0  0  1  0  0  0  0  0999 V2000
    1.1787   -8.0297    3.5154 C   0  0  0  0  0  0  0  0  0  0  0  0
    1.0491   -6.8434    2.9820 C   0  0  0  0  0  0  0  0  0  0  0  0
    0.0950   -8.8404    3.2292 C   0  0  0  0  0  0  0  0  0  0  0  0
   -0.9173   -8.4596    2.5152 C   0  0  0  0  0  0  0  0  0  0  0  0
   -1.0331   -7.2162    2.0653 C   0  0  0  0  0  0  0  0  0  0  0  0
   -0.0105   -6.3168    2.3081 C   0  0  0  0  0  0  0  0  0  0  0  0
    0.1150   -4.9910    1.8495 C   0  0  0  0  0  0  0  0  0  0  0  0
    0.9121   -4.1017    2.4010 O   0  0  0  0  0  0  0  0  0  0  0  0
   -0.4792   -4.5325    0.7806 N   0  0  0  0  0  0  0  0  0  0  0  0
    0.1825  -10.2779    3.6659 C   0  0  2  0  0  0  0  0  0  0  0  0
   -1.0042  -10.9048    3.9788 Br  0  0  0  0  0  0  0  0  0  0  0  0
    1.4833  -10.8268    4.0494 C   0  0  0  0  0  0  0  0  0  0  0  0
    1.9615  -11.8304    3.4345 C   0  0  0  0  0  0  0  0  0  0  0  0
    1.8977  -11.6272    2.0229 C   0  0  0  0  0  0  0  0  0  0  0  0
    1.4810  -12.7588    1.2469 O   0  0  0  0  0  0  0  0  0  0  0  0
    2.2794  -10.5360    1.4284 O   0  0  0  0  0  0  0  0  0  0  0  0
   -0.5070   -3.1915    0.3726 C   0  0  0  0  0  0  0  0  0  0  0  0
   -1.2947   -2.2738    1.1542 C   0  0  0  0  0  0  0  0  0  0  0  0
   -0.7086   -1.2349    1.6251 C   0  0  0  0  0  0  0  0  0  0  0  0
  6  7  1  0
  7  8  2  0
  7  9  1  0
  3 10  1  0
 10 11  1  1
 10 12  1  0
 12 13  1  0
 13 14  1  0
 14 15  2  0
 14 16  1  0
  9 17  1  0
 17 18  1  0
 18 19  1  0
  1  2  2  0
  2  6  1  0
  5  6  2  0
  4  5  1  0
  3  4  2  0
  1  3  1  0
M  END

$$$$
No_1646-/export/home/yangzhenyu/potential_scad_32_flow//YTHDC2/2024-12-06-03-22-00/
     RDKit          3D

 18 18  0  0  0  0  0  0  0  0999 V2000
    1.1787   -8.0297    3.5154 C   0  0  0  0  0  0  0  0  0  0  0  0
    1.1048   -9.2215    3.2892 C   0  0  0  0  0  0  0  0  0  0  0  0
    1.3627  -10.1721    4.3044 C   0  0  0  0  0  0  0  0  0  0  0  0
    1.7354  -11.4730    3.9023 C   0  0  0  0  0  0  0  0  0  0  0  0
    1.8080  -11.8127    2.7216 C   0  0  0  0  0  0  0  0  0  0  0  0
    1.5854  -11.0021    1.7249 C   0  0  0  0  0  0  0  0  0  0  0  0
    1.3573   -9.7389    1.9287 C   0  0  0  0  0  0  0  0  0  0  0  0
    1.1102   -8.8712    0.9017 C   0  0  0  0  0  0  0  0  0  0  0  0
    0.5299   -7.6926    1.0325 O   0  0  0  0  0  0  0  0  0  0  0  0
    1.3970   -9.2634   -0.4035 N   0  0  0  0  0  0  0  0  0  0  0  0
    2.1122  -13.2004    2.3256 O   0  0  0  0  0  0  0  0  0  0  0  0
    1.7141  -14.2848    2.9732 C   0  0  0  0  0  0  0  0  0  0  0  0
    2.1649  -15.4761    2.3723 C   0  0  0  0  0  0  0  0  0  0  0  0
    3.2188  -15.4949    1.6579 O   0  0  0  0  0  0  0  0  0  0  0  0
    1.4289  -16.6054    2.4126 O   0  0  0  0  0  0  0  0  0  0  0  0
    0.1513   -7.1814    3.6572 N   0  0  0  0  0  0  0  0  0  0  0  0
   -0.9979   -7.9196    3.9898 O   0  0  0  0  0  0  0  0  0  0  0  0
    1.5427   -8.6264   -1.4734 O   0  0  0  0  0  0  0  0  0  0  0  0
  1  2  1  0
  7  8  1  0
  8  9  2  0
  8 10  1  0
  5 11  1  0
 11 12  1  0
 12 13  1  0
 13 14  2  0
 13 15  1  0
  1 16  1  0
 16 17  2  0
 10 18  2  0
  2  3  2  0
  3  4  1  0
  4  5  2  0
  5  6  1  0
  6  7  2  0
  2  7  1  0
M  END

$$$$
No_1647-/export/home/yangzhenyu/potential_scad_32_flow//YTHDC2/2024-12-06-03-22-00/
     RDKit          3D

 17 18  0  0  0  0  0  0  0  0999 V2000
    1.1787   -8.0297    3.5154 C   0  0  0  0  0  0  0  0  0  0  0  0
    1.1048   -9.2215    3.2892 C   0  0  0  0  0  0  0  0  0  0  0  0
    1.2339   -9.7611    2.0189 C   0  0  0  0  0  0  0  0  0  0  0  0
    1.3583   -9.0036    0.9764 C   0  0  0  0  0  0  0  0  0  0  0  0
    1.5996   -7.6362    1.1311 C   0  0  0  0  0  0  0  0  0  0  0  0
    1.4830   -7.0928    2.3626 C   0  0  0  0  0  0  0  0  0  0  0  0
    1.1171  -11.3311    1.8661 C   0  0  0  0  0  0  0  0  0  0  0  0
    0.5042  -11.9974    2.3631 C   0  0  0  0  0  0  0  0  0  0  0  0
   -0.5114  -11.5127    3.3905 C   0  0  0  0  0  0  0  0  0  0  0  0
    0.2645  -13.4361    2.0658 C   0  0  0  0  0  0  0  0  0  0  0  0
   -0.7057  -13.9135    1.5335 C   0  0  0  0  0  0  0  0  0  0  0  0
   -0.8943  -15.3222    1.3837 C   0  0  0  0  0  0  0  0  0  0  0  0
   -1.8691  -15.7737    0.9335 C   0  0  0  0  0  0  0  0  0  0  0  0
   -2.8810  -15.0190    0.3295 C   0  0  0  0  0  0  0  0  0  0  0  0
   -2.8462  -13.6789    0.3355 C   0  0  0  0  0  0  0  0  0  0  0  0
   -1.7203  -13.0630    0.9213 C   0  0  0  0  0  0  0  0  0  0  0  0
    1.5635   -5.4909    2.6690 Cl  0  0  0  0  0  0  0  0  0  0  0  0
  3  7  1  0
  7  8  2  3
  8  9  1  0
  8 10  1  0
  6 17  1  0
 10 11  1  0
 11 12  2  0
 12 13  1  0
 13 14  2  0
 14 15  1  0
 15 16  2  0
 11 16  1  0
  1  2  2  0
  2  3  1  0
  3  4  2  0
  4  5  1  0
  5  6  2  0
  1  6  1  0
M  END

$$$$
No_1648-/export/home/yangzhenyu/potential_scad_32_flow//YTHDC2/2024-12-06-03-22-00/
     RDKit          3D

 19 21  0  0  0  0  0  0  0  0999 V2000
    1.1787   -8.0297    3.5154 C   0  0  0  0  0  0  0  0  0  0  0  0
    1.1048   -9.2215    3.2892 C   0  0  0  0  0  0  0  0  0  0  0  0
    1.2339   -9.7611    2.0189 C   0  0  0  0  0  0  0  0  0  0  0  0
    1.3583   -9.0036    0.9764 C   0  0  0  0  0  0  0  0  0  0  0  0
    1.5996   -7.6362    1.1311 C   0  0  0  0  0  0  0  0  0  0  0  0
    1.4830   -7.0928    2.3626 C   0  0  0  0  0  0  0  0  0  0  0  0
    1.1008  -11.2372    1.8542 C   0  0  0  0  0  0  0  0  0  0  0  0
    1.9749  -12.0938    2.2342 C   0  0  0  0  0  0  0  0  0  0  0  0
    1.7533  -13.4231    1.8956 C   0  0  0  0  0  0  0  0  0  0  0  0
    0.8624  -13.8318    1.1071 C   0  0  0  0  0  0  0  0  0  0  0  0
    0.5887  -15.0331    0.5602 C   0  0  0  0  0  0  0  0  0  0  0  0
    0.0117  -12.7008    0.6834 C   0  0  0  0  0  0  0  0  0  0  0  0
    0.1049  -11.5571    0.9500 N   0  0  0  0  0  0  0  0  0  0  0  0
   -0.9800  -13.0821   -0.2907 N   0  0  0  0  0  0  0  0  0  0  0  0
    1.1595  -16.0064    0.9018 C   0  0  0  0  0  0  0  0  0  0  0  0
    0.8242  -17.3375    0.5283 C   0  0  0  0  0  0  0  0  0  0  0  0
    0.0693  -17.4832   -0.4531 C   0  0  0  0  0  0  0  0  0  0  0  0
   -0.4457  -16.3701   -1.0928 C   0  0  0  0  0  0  0  0  0  0  0  0
   -0.1995  -15.1271   -0.6811 C   0  0  0  0  0  0  0  0  0  0  0  0
  3  7  1  0
 10 11  1  0
 12 14  1  0
  1  2  2  0
  2  3  1  0
  3  4  2  0
  4  5  1  0
  5  6  2  0
  1  6  1  0
  7  8  2  0
  8  9  1  0
  9 10  2  0
 10 12  1  0
 12 13  2  0
  7 13  1  0
 11 15  2  0
 15 16  1  0
 16 17  2  0
 17 18  1  0
 18 19  2  0
 11 19  1  0
M  END

$$$$
No_1649-/export/home/yangzhenyu/potential_scad_32_flow//YTHDC2/2024-12-06-03-22-00/
     RDKit          3D

 18 19  0  0  0  0  0  0  0  0999 V2000
    1.1787   -8.0297    3.5154 C   0  0  0  0  0  0  0  0  0  0  0  0
    1.1048   -9.2215    3.2892 C   0  0  0  0  0  0  0  0  0  0  0  0
    1.3627  -10.1721    4.3044 C   0  0  0  0  0  0  0  0  0  0  0  0
    1.0682  -11.5187    4.0618 C   0  0  0  0  0  0  0  0  0  0  0  0
    0.6332  -11.9655    2.9682 C   0  0  0  0  0  0  0  0  0  0  0  0
    0.4776  -11.1308    1.9203 C   0  0  0  0  0  0  0  0  0  0  0  0
    0.7470   -9.8274    2.0368 C   0  0  0  0  0  0  0  0  0  0  0  0
    1.0387   -7.0301    2.5175 O   0  0  0  0  0  0  0  0  0  0  0  0
    0.4220  -13.4291    2.8032 C   0  0  0  0  0  0  0  0  0  0  0  0
    1.4050  -14.3276    3.1066 C   0  0  0  0  0  0  0  0  0  0  0  0
    1.4729  -15.5478    2.4619 C   0  0  0  0  0  0  0  0  0  0  0  0
    0.4010  -15.9298    1.7953 C   0  0  0  0  0  0  0  0  0  0  0  0
   -0.5675  -15.0685    1.4676 C   0  0  0  0  0  0  0  0  0  0  0  0
   -0.5169  -13.7528    1.9290 C   0  0  0  0  0  0  0  0  0  0  0  0
   -1.5153  -13.0096    1.4232 C   0  0  0  0  0  0  0  0  0  0  0  0
   -1.9657  -12.8757    0.3124 N   0  0  0  0  0  0  0  0  0  0  0  0
   -2.8510  -12.2887   -0.2233 C   0  0  0  0  0  0  0  0  0  0  0  0
   -3.6312  -11.7328    0.7238 C   0  0  0  0  0  0  0  0  0  0  0  0
  1  2  1  0
  1  8  2  0
  5  9  1  0
 14 15  1  0
 15 16  1  0
 16 17  2  3
 17 18  1  0
  2  3  2  0
  3  4  1  0
  4  5  2  0
  5  6  1  0
  6  7  2  0
  2  7  1  0
  9 10  2  0
 10 11  1  0
 11 12  2  0
 12 13  1  0
 13 14  2  0
  9 14  1  0
M  END

$$$$
No_1650-/export/home/yangzhenyu/potential_scad_32_flow//YTHDC2/2024-12-06-03-22-00/
     RDKit          3D

 17 18  0  0  0  0  0  0  0  0999 V2000
    1.1787   -8.0297    3.5154 C   0  0  0  0  0  0  0  0  0  0  0  0
    1.1048   -9.2215    3.2892 C   0  0  0  0  0  0  0  0  0  0  0  0
    1.2339   -9.7611    2.0189 C   0  0  0  0  0  0  0  0  0  0  0  0
    1.3583   -9.0036    0.9764 C   0  0  0  0  0  0  0  0  0  0  0  0
    1.5996   -7.6362    1.1311 C   0  0  0  0  0  0  0  0  0  0  0  0
    1.4830   -7.0928    2.3626 C   0  0  0  0  0  0  0  0  0  0  0  0
    1.5395   -5.7300    2.6182 C   0  0  0  0  0  0  0  0  0  0  0  0
    1.1775  -11.2233    1.8407 C   0  0  0  0  0  0  0  0  0  0  0  0
    0.5085  -11.9762    2.1989 C   0  0  0  0  0  0  0  0  0  0  0  0
    0.4247  -13.3704    2.0465 C   0  0  0  0  0  0  0  0  0  0  0  0
    1.6054  -14.1557    2.4664 C   0  0  0  0  0  0  0  0  0  0  0  0
    1.8317  -15.3638    2.3262 C   0  0  0  0  0  0  0  0  0  0  0  0
    0.9230  -16.1669    1.7304 C   0  0  0  0  0  0  0  0  0  0  0  0
   -0.2162  -15.6318    1.2999 C   0  0  0  0  0  0  0  0  0  0  0  0
   -0.4566  -14.2720    1.4479 C   0  0  0  0  0  0  0  0  0  0  0  0
   -1.6024  -13.7137    0.8986 C   0  0  0  0  0  0  0  0  0  0  0  0
   -1.5970  -12.8270   -0.1107 O   0  0  0  0  0  0  0  0  0  0  0  0
  6  7  1  0
  3  8  1  0
  8  9  2  3
  9 10  1  0
 15 16  1  0
 16 17  1  0
  1  2  2  0
  2  3  1  0
  3  4  2  0
  4  5  1  0
  5  6  2  0
  1  6  1  0
 10 11  2  0
 11 12  1  0
 12 13  2  0
 13 14  1  0
 14 15  2  0
 10 15  1  0
M  END

$$$$
No_1651-/export/home/yangzhenyu/potential_scad_32_flow//YTHDC2/2024-12-06-03-22-00/
     RDKit          3D

 19 19  0  0  1  0  0  0  0  0999 V2000
    1.1787   -8.0297    3.5154 C   0  0  0  0  0  0  0  0  0  0  0  0
    1.0491   -6.8434    2.9820 C   0  0  0  0  0  0  0  0  0  0  0  0
    1.9985   -8.9840    2.8958 C   0  0  0  0  0  0  0  0  0  0  0  0
    1.1814  -10.1889    2.5497 C   0  0  2  0  0  0  0  0  0  0  0  0
    0.9817  -11.1388    2.8133 C   0  0  1  0  0  0  0  0  0  0  0  0
    1.6854  -11.5768    4.1035 C   0  0  0  0  0  0  0  0  0  0  0  0
    1.8112   -5.8026    3.2097 O   0  0  0  0  0  0  0  0  0  0  0  0
    0.3163   -6.6991    1.8469 O   0  0  0  0  0  0  0  0  0  0  0  0
   -0.4260  -11.4236    3.2497 C   0  0  0  0  0  0  0  0  0  0  0  0
   -1.0178  -12.4902    2.6754 C   0  0  0  0  0  0  0  0  0  0  0  0
   -2.3796  -12.6572    2.7112 C   0  0  0  0  0  0  0  0  0  0  0  0
   -3.0797  -11.6948    3.5250 C   0  0  0  0  0  0  0  0  0  0  0  0
   -2.4820  -10.6370    4.2200 C   0  0  0  0  0  0  0  0  0  0  0  0
   -1.0694  -10.5118    4.0818 C   0  0  0  0  0  0  0  0  0  0  0  0
    1.0935  -10.1032    0.9072 C   0  0  0  0  0  0  0  0  0  0  0  0
    0.1233  -10.6574    0.3022 O   0  0  0  0  0  0  0  0  0  0  0  0
    2.0620   -9.6489    0.0257 O   0  0  0  0  0  0  0  0  0  0  0  0
   -4.4441  -11.9332    3.7513 N   0  0  0  0  0  0  0  0  0  0  0  0
   -5.2788  -11.0601    3.8796 O   0  0  0  0  0  0  0  0  0  0  0  0
  1  2  1  0
  1  3  1  0
  4  3  1  6
  4  5  1  0
  5  6  1  1
  2  7  1  0
  2  8  2  0
  5  9  1  0
  4 15  1  0
 15 16  2  0
 15 17  1  0
 12 18  1  0
 18 19  2  0
  9 10  2  0
 10 11  1  0
 11 12  2  0
 12 13  1  0
 13 14  2  0
  9 14  1  0
M  END

$$$$
No_1652-/export/home/yangzhenyu/potential_scad_32_flow//YTHDC2/2024-12-06-03-22-00/
     RDKit          3D

 20 22  0  0  0  0  0  0  0  0999 V2000
    1.1787   -8.0297    3.5154 C   0  0  0  0  0  0  0  0  0  0  0  0
    1.1048   -9.2215    3.2892 C   0  0  0  0  0  0  0  0  0  0  0  0
    1.2339   -9.7611    2.0189 C   0  0  0  0  0  0  0  0  0  0  0  0
    1.3583   -9.0036    0.9764 C   0  0  0  0  0  0  0  0  0  0  0  0
    1.5996   -7.6362    1.1311 C   0  0  0  0  0  0  0  0  0  0  0  0
    1.4830   -7.0928    2.3626 C   0  0  0  0  0  0  0  0  0  0  0  0
    1.5395   -5.7300    2.6182 C   0  0  0  0  0  0  0  0  0  0  0  0
    1.1969  -11.3760    1.8433 C   0  0  0  0  0  0  0  0  0  0  0  0
    0.2951  -11.9827    2.0623 C   0  0  0  0  0  0  0  0  0  0  0  0
    0.3556  -13.1833    2.5684 C   0  0  0  0  0  0  0  0  0  0  0  0
    1.6442  -13.9465    2.4676 C   0  0  0  0  0  0  0  0  0  0  0  0
    2.7809  -13.1660    2.0408 N   0  0  0  0  0  0  0  0  0  0  0  0
    2.5284  -11.9166    1.6084 C   0  0  0  0  0  0  0  0  0  0  0  0
    1.8654  -15.2623    2.7595 C   0  0  0  0  0  0  0  0  0  0  0  0
    2.8223  -16.0153    2.3408 N   0  0  0  0  0  0  0  0  0  0  0  0
    0.8385  -15.9475    3.4187 C   0  0  0  0  0  0  0  0  0  0  0  0
    1.0924  -17.2408    3.8047 C   0  0  0  0  0  0  0  0  0  0  0  0
    2.3825  -17.8140    3.2123 C   0  0  0  0  0  0  0  0  0  0  0  0
    3.1619  -17.1477    2.5713 C   0  0  0  0  0  0  0  0  0  0  0  0
    1.2711   -4.8162    1.6912 F   0  0  0  0  0  0  0  0  0  0  0  0
  6  7  1  0
  3  8  1  0
 11 14  1  0
  7 20  1  0
  1  2  2  0
  2  3  1  0
  3  4  2  0
  4  5  1  0
  5  6  2  0
  1  6  1  0
  8  9  2  0
  9 10  1  0
 10 11  2  0
 11 12  1  0
 12 13  2  0
  8 13  1  0
 14 15  2  0
 15 19  1  0
 18 19  2  0
 17 18  1  0
 16 17  2  0
 14 16  1  0
M  END

$$$$
No_1653-/export/home/yangzhenyu/potential_scad_32_flow//YTHDC2/2024-12-06-03-22-00/
     RDKit          3D

 19 21  0  0  0  0  0  0  0  0999 V2000
    1.1787   -8.0297    3.5154 C   0  0  0  0  0  0  0  0  0  0  0  0
    1.1048   -9.2215    3.2892 C   0  0  0  0  0  0  0  0  0  0  0  0
    1.0239   -9.7790    2.0239 C   0  0  0  0  0  0  0  0  0  0  0  0
    1.1393   -9.0211    0.9686 C   0  0  0  0  0  0  0  0  0  0  0  0
    1.4051   -7.6500    1.1251 C   0  0  0  0  0  0  0  0  0  0  0  0
    1.4868   -7.1041    2.3534 C   0  0  0  0  0  0  0  0  0  0  0  0
    1.5562   -5.7208    2.5782 C   0  0  0  0  0  0  0  0  0  0  0  0
    0.8750  -11.2135    1.9117 C   0  0  0  0  0  0  0  0  0  0  0  0
    1.8912  -12.0349    2.0516 C   0  0  0  0  0  0  0  0  0  0  0  0
    1.7093  -13.3664    1.7484 C   0  0  0  0  0  0  0  0  0  0  0  0
    0.5990  -13.8394    1.2933 C   0  0  0  0  0  0  0  0  0  0  0  0
   -0.4337  -13.0378    0.9914 C   0  0  0  0  0  0  0  0  0  0  0  0
   -0.2964  -11.6527    1.3056 C   0  0  0  0  0  0  0  0  0  0  0  0
    1.3051   -4.7821    1.6404 C   0  0  0  0  0  0  0  0  0  0  0  0
    0.1445   -4.8066    1.0459 N   0  0  0  0  0  0  0  0  0  0  0  0
   -0.2526   -3.7673    0.2203 C   0  0  0  0  0  0  0  0  0  0  0  0
    0.5683   -2.6337    0.3584 C   0  0  0  0  0  0  0  0  0  0  0  0
    1.7150   -2.5641    1.0063 C   0  0  0  0  0  0  0  0  0  0  0  0
    2.0465   -3.5688    1.6811 C   0  0  0  0  0  0  0  0  0  0  0  0
  6  7  1  0
  3  8  1  0
  7 14  1  0
  1  2  2  0
  2  3  1  0
  3  4  2  0
  4  5  1  0
  5  6  2  0
  1  6  1  0
  8  9  2  0
  9 10  1  0
 10 11  2  0
 11 12  1  0
 12 13  2  0
  8 13  1  0
 14 15  2  0
 15 16  1  0
 16 17  2  0
 17 18  1  0
 18 19  2  0
 14 19  1  0
M  END

$$$$
No_1654-/export/home/yangzhenyu/potential_scad_32_flow//YTHDC2/2024-12-06-03-22-00/
     RDKit          3D

 17 17  0  0  0  0  0  0  0  0999 V2000
    1.1787   -8.0297    3.5154 F   0  0  0  0  0  0  0  0  0  0  0  0
    0.9085   -8.9213    2.9287 C   0  0  0  0  0  0  0  0  0  0  0  0
    0.9042   -8.7651    1.6474 C   0  0  0  0  0  0  0  0  0  0  0  0
    1.1632   -9.8140    0.8407 C   0  0  0  0  0  0  0  0  0  0  0  0
    1.3763  -11.0768    1.3698 C   0  0  0  0  0  0  0  0  0  0  0  0
    1.4870  -11.2132    2.7065 C   0  0  0  0  0  0  0  0  0  0  0  0
    1.3529  -10.0769    3.4809 C   0  0  0  0  0  0  0  0  0  0  0  0
    0.5012   -7.5508    1.0364 C   0  0  0  0  0  0  0  0  0  0  0  0
   -0.4524   -7.0305    0.9724 O   0  0  0  0  0  0  0  0  0  0  0  0
    1.5765   -6.7358    0.6741 O   0  0  0  0  0  0  0  0  0  0  0  0
    1.8284  -12.4815    3.3131 C   0  0  0  0  0  0  0  0  0  0  0  0
    1.5059  -13.5945    2.5153 N   0  0  0  0  0  0  0  0  0  0  0  0
    0.5679  -14.5407    2.8460 C   0  0  0  0  0  0  0  0  0  0  0  0
    0.4683  -15.6873    2.1465 C   0  0  0  0  0  0  0  0  0  0  0  0
    0.3021  -16.5775    2.6470 C   0  0  0  0  0  0  0  0  0  0  0  0
    0.0393  -16.8146    4.0526 C   0  0  0  0  0  0  0  0  0  0  0  0
    0.1137  -15.6579    4.8486 C   0  0  0  0  0  0  0  0  0  0  0  0
  1  2  1  0
  3  8  1  0
  8  9  2  0
  8 10  1  0
  6 11  1  0
 11 12  1  0
 12 13  1  0
 13 14  1  0
 14 15  2  3
 15 16  1  0
 16 17  2  0
  2  3  2  0
  3  4  1  0
  4  5  2  0
  5  6  1  0
  6  7  2  0
  2  7  1  0
M  END

$$$$
No_1655-/export/home/yangzhenyu/potential_scad_32_flow//YTHDC2/2024-12-06-03-22-00/
     RDKit          3D

 20 21  0  0  0  0  0  0  0  0999 V2000
    1.1787   -8.0297    3.5154 C   0  0  0  0  0  0  0  0  0  0  0  0
    1.1048   -9.2215    3.2892 C   0  0  0  0  0  0  0  0  0  0  0  0
    1.2339   -9.7611    2.0189 C   0  0  0  0  0  0  0  0  0  0  0  0
    1.3583   -9.0036    0.9764 C   0  0  0  0  0  0  0  0  0  0  0  0
    1.5996   -7.6362    1.1311 C   0  0  0  0  0  0  0  0  0  0  0  0
    1.4830   -7.0928    2.3626 C   0  0  0  0  0  0  0  0  0  0  0  0
    1.1008  -11.2372    1.8542 C   0  0  0  0  0  0  0  0  0  0  0  0
    0.4812  -11.6084    0.6459 O   0  0  0  0  0  0  0  0  0  0  0  0
    1.2619  -12.0916    2.7465 N   0  0  0  0  0  0  0  0  0  0  0  0
    1.1740  -13.4390    2.7228 C   0  0  0  0  0  0  0  0  0  0  0  0
   -0.0813  -13.9345    3.0955 C   0  0  0  0  0  0  0  0  0  0  0  0
   -0.2440  -15.3317    3.0843 C   0  0  0  0  0  0  0  0  0  0  0  0
    0.8758  -16.1075    2.7827 C   0  0  0  0  0  0  0  0  0  0  0  0
    2.1333  -15.5632    2.6251 C   0  0  0  0  0  0  0  0  0  0  0  0
    2.2695  -14.1735    2.5572 C   0  0  0  0  0  0  0  0  0  0  0  0
    1.5967   -5.6649    2.6674 C   0  0  0  0  0  0  0  0  0  0  0  0
    0.7619   -4.8176    2.6256 O   0  0  0  0  0  0  0  0  0  0  0  0
    0.8467  -17.5743    2.9523 C   0  0  0  0  0  0  0  0  0  0  0  0
    1.4628  -18.3257    2.0268 Cl  0  0  0  0  0  0  0  0  0  0  0  0
    1.5980   -9.4665   -0.5134 C   0  0  0  0  0  0  0  0  0  0  0  0
  3  7  1  0
  7  8  2  0
  7  9  1  0
  9 10  1  0
  6 16  1  0
 16 17  2  0
 13 18  1  0
 18 19  1  0
  4 20  1  0
  1  2  2  0
  2  3  1  0
  3  4  2  0
  4  5  1  0
  5  6  2  0
  1  6  1  0
 10 11  2  0
 11 12  1  0
 12 13  2  0
 13 14  1  0
 14 15  2  0
 10 15  1  0
M  END

$$$$
No_1656-/export/home/yangzhenyu/potential_scad_32_flow//YTHDC2/2024-12-06-03-22-00/
     RDKit          3D

 19 20  0  0  1  0  0  0  0  0999 V2000
    1.1787   -8.0297    3.5154 C   0  0  0  0  0  0  0  0  0  0  0  0
    1.1048   -9.2215    3.2892 C   0  0  0  0  0  0  0  0  0  0  0  0
    1.2339   -9.7611    2.0189 C   0  0  0  0  0  0  0  0  0  0  0  0
    1.3583   -9.0036    0.9764 C   0  0  0  0  0  0  0  0  0  0  0  0
    1.5996   -7.6362    1.1311 C   0  0  0  0  0  0  0  0  0  0  0  0
    1.4830   -7.0928    2.3626 C   0  0  0  0  0  0  0  0  0  0  0  0
    1.4898   -5.7274    2.6199 C   0  0  0  0  0  0  0  0  0  0  0  0
    1.1681  -11.2222    1.8390 C   0  0  2  0  0  0  0  0  0  0  0  0
    1.9047  -12.1147    2.3357 C   0  0  0  0  0  0  0  0  0  0  0  0
    1.6844  -13.4555    2.0602 C   0  0  2  0  0  0  0  0  0  0  0  0
    0.6977  -13.8514    1.3046 C   0  0  0  0  0  0  0  0  0  0  0  0
   -0.1168  -12.9151    0.6554 C   0  0  0  0  0  0  0  0  0  0  0  0
    0.1481  -11.5441    0.9254 C   0  0  0  0  0  0  0  0  0  0  0  0
    1.6975   -5.1712    3.8653 O   0  0  0  0  0  0  0  0  0  0  0  0
    1.3280   -4.8321    1.6686 O   0  0  0  0  0  0  0  0  0  0  0  0
    2.5136  -14.4243    2.7623 Cl  0  0  0  0  0  0  0  0  0  0  0  0
   -0.6979  -10.6664    0.3286 O   0  0  0  0  0  0  0  0  0  0  0  0
    1.6093   -9.3937   -0.3652 C   0  0  0  0  0  0  0  0  0  0  0  0
    2.4703  -10.2693   -0.7070 O   0  0  0  0  0  0  0  0  0  0  0  0
  6  7  1  0
  8  3  1  6
  8  9  1  0
 10 11  1  0
  8 13  1  0
 12 13  1  0
  7 14  1  0
  7 15  2  0
 10 16  1  1
 13 17  2  0
  4 18  1  0
 18 19  2  0
  9 10  1  0
 11 12  1  0
  1  2  2  0
  2  3  1  0
  3  4  2  0
  4  5  1  0
  5  6  2  0
  1  6  1  0
M  END

$$$$
No_1657-/export/home/yangzhenyu/potential_scad_32_flow//YTHDC2/2024-12-06-03-22-00/
     RDKit          3D

 19 20  0  0  0  0  0  0  0  0999 V2000
    1.1787   -8.0297    3.5154 C   0  0  0  0  0  0  0  0  0  0  0  0
    1.1048   -9.2215    3.2892 C   0  0  0  0  0  0  0  0  0  0  0  0
    1.3627  -10.1721    4.3044 C   0  0  0  0  0  0  0  0  0  0  0  0
    1.0682  -11.5187    4.0618 C   0  0  0  0  0  0  0  0  0  0  0  0
    0.6332  -11.9655    2.9682 C   0  0  0  0  0  0  0  0  0  0  0  0
    0.4776  -11.1308    1.9203 C   0  0  0  0  0  0  0  0  0  0  0  0
    0.7470   -9.8274    2.0368 C   0  0  0  0  0  0  0  0  0  0  0  0
    1.0387   -7.0301    2.5175 N   0  0  0  0  0  0  0  0  0  0  0  0
    0.9298   -7.5514    1.2672 C   0  0  0  0  0  0  0  0  0  0  0  0
    0.7824   -8.7713    0.9713 C   0  0  0  0  0  0  0  0  0  0  0  0
    0.3996  -13.3769    2.6931 N   0  0  0  0  0  0  0  0  0  0  0  0
    0.9195  -14.0801    1.8794 C   0  0  0  0  0  0  0  0  0  0  0  0
    0.6268  -15.4727    1.8905 C   0  0  0  0  0  0  0  0  0  0  0  0
    1.4638  -16.4903    2.0881 C   0  0  0  0  0  0  0  0  0  0  0  0
    2.8821  -15.9696    2.1457 O   0  0  0  0  0  0  0  0  0  0  0  0
    1.2149  -17.7249    2.1792 O   0  0  0  0  0  0  0  0  0  0  0  0
    0.5355   -9.2344   -0.3540 C   0  0  0  0  0  0  0  0  0  0  0  0
   -0.2540   -8.6321   -1.0436 O   0  0  0  0  0  0  0  0  0  0  0  0
    1.3189   -9.9336   -0.9732 O   0  0  0  0  0  0  0  0  0  0  0  0
  5 11  1  0
 11 12  1  0
 12 13  1  0
 13 14  1  0
 14 15  2  0
 14 16  1  0
 10 17  1  0
 17 18  2  0
 17 19  1  0
  2  3  1  0
  3  4  2  0
  4  5  1  0
  5  6  2  0
  6  7  1  0
  1  2  2  0
  2  7  1  0
  7 10  2  0
  9 10  1  0
  8  9  2  0
  1  8  1  0
M  END

$$$$
No_1658-/export/home/yangzhenyu/potential_scad_32_flow//YTHDC2/2024-12-06-03-22-00/
     RDKit          3D

 19 20  0  0  0  0  0  0  0  0999 V2000
    1.1787   -8.0297    3.5154 C   0  0  0  0  0  0  0  0  0  0  0  0
    1.1048   -9.2215    3.2892 C   0  0  0  0  0  0  0  0  0  0  0  0
    1.3627  -10.1721    4.3044 C   0  0  0  0  0  0  0  0  0  0  0  0
    1.0682  -11.5187    4.0618 C   0  0  0  0  0  0  0  0  0  0  0  0
    0.6332  -11.9655    2.9682 C   0  0  0  0  0  0  0  0  0  0  0  0
    0.4776  -11.1308    1.9203 C   0  0  0  0  0  0  0  0  0  0  0  0
    0.7470   -9.8274    2.0368 C   0  0  0  0  0  0  0  0  0  0  0  0
    0.5536   -7.1314    2.6860 C   0  0  0  0  0  0  0  0  0  0  0  0
    0.2951   -7.6000    1.3275 C   0  0  0  0  0  0  0  0  0  0  0  0
    0.2693   -8.8631    1.0973 C   0  0  0  0  0  0  0  0  0  0  0  0
   -0.0069   -6.7080    0.3888 C   0  0  0  0  0  0  0  0  0  0  0  0
   -1.3264   -6.4522    0.2332 C   0  0  0  0  0  0  0  0  0  0  0  0
   -2.1606   -6.9089    0.8682 C   0  0  0  0  0  0  0  0  0  0  0  0
   -1.5973   -5.4742   -0.8812 C   0  0  0  0  0  0  0  0  0  0  0  0
    0.4900  -13.3906    2.7192 O   0  0  0  0  0  0  0  0  0  0  0  0
   -0.4166  -13.8467    2.0509 C   0  0  0  0  0  0  0  0  0  0  0  0
   -2.3190   -5.4901   -1.7429 C   0  0  0  0  0  0  0  0  0  0  0  0
   -2.5396   -4.4162   -2.7685 C   0  0  0  0  0  0  0  0  0  0  0  0
   -1.9887   -4.3516   -3.9353 C   0  0  0  0  0  0  0  0  0  0  0  0
  9 11  1  0
 11 12  1  0
 12 13  1  0
 12 14  1  0
  5 15  1  0
 15 16  1  0
 14 17  2  3
 17 18  1  0
 18 19  1  0
  2  3  1  0
  3  4  2  0
  4  5  1  0
  5  6  2  0
  6  7  1  0
  1  2  2  0
  2  7  1  0
  7 10  2  0
  9 10  1  0
  8  9  2  0
  1  8  1  0
M  END

$$$$
No_1659-/export/home/yangzhenyu/potential_scad_32_flow//YTHDC2/2024-12-06-03-22-00/
     RDKit          3D

 19 19  0  0  1  0  0  0  0  0999 V2000
    1.1787   -8.0297    3.5154 C   0  0  0  0  0  0  0  0  0  0  0  0
    1.1048   -9.2215    3.2892 C   0  0  0  0  0  0  0  0  0  0  0  0
    1.2339   -9.7611    2.0189 C   0  0  0  0  0  0  0  0  0  0  0  0
    1.3583   -9.0036    0.9764 C   0  0  0  0  0  0  0  0  0  0  0  0
    1.5996   -7.6362    1.1311 C   0  0  0  0  0  0  0  0  0  0  0  0
    1.4830   -7.0928    2.3626 C   0  0  0  0  0  0  0  0  0  0  0  0
    1.1171  -11.3311    1.8661 C   0  0  0  0  0  0  0  0  0  0  0  0
    0.5022  -11.6388    0.6531 O   0  0  0  0  0  0  0  0  0  0  0  0
    1.3562  -12.0935    2.7826 N   0  0  0  0  0  0  0  0  0  0  0  0
    1.0844  -13.4157    2.6839 C   0  0  2  0  0  0  0  0  0  0  0  0
    2.1257  -14.3967    2.4755 C   0  0  0  0  0  0  0  0  0  0  0  0
    1.5939   -5.6673    2.6597 Cl  0  0  0  0  0  0  0  0  0  0  0  0
    1.8884  -15.4624    1.9443 O   0  0  0  0  0  0  0  0  0  0  0  0
    3.3023  -14.2974    3.0689 O   0  0  0  0  0  0  0  0  0  0  0  0
    1.6081   -9.5350   -0.6749 N   0  0  0  0  0  0  0  0  0  0  0  0
    2.6189   -9.2568   -1.2141 O   0  0  0  0  0  0  0  0  0  0  0  0
   -0.0864  -13.7058    1.9801 C   0  0  0  0  0  0  0  0  0  0  0  0
   -0.3457  -13.8317    0.8440 C   0  0  0  0  0  0  0  0  0  0  0  0
    0.2842  -14.5987    0.0258 N   0  0  0  0  0  0  0  0  0  0  0  0
  3  7  1  0
  7  8  2  0
  7  9  1  0
  9 10  1  0
 10 11  1  0
  6 12  1  0
 11 13  2  0
 11 14  1  0
  4 15  1  0
 15 16  2  0
 10 17  1  6
 17 18  1  0
 18 19  1  0
  1  2  2  0
  2  3  1  0
  3  4  2  0
  4  5  1  0
  5  6  2  0
  1  6  1  0
M  END

$$$$
No_1660-/export/home/yangzhenyu/potential_scad_32_flow//YTHDC2/2024-12-06-03-22-00/
     RDKit          3D

 21 23  0  0  0  0  0  0  0  0999 V2000
    1.1787   -8.0297    3.5154 C   0  0  0  0  0  0  0  0  0  0  0  0
    1.1048   -9.2215    3.2892 C   0  0  0  0  0  0  0  0  0  0  0  0
    1.2339   -9.7611    2.0189 C   0  0  0  0  0  0  0  0  0  0  0  0
    1.1954  -11.2312    1.8661 C   0  0  0  0  0  0  0  0  0  0  0  0
    1.5546  -12.1691    2.7931 C   0  0  0  0  0  0  0  0  0  0  0  0
    0.5849   -7.0929    2.5729 C   0  0  0  0  0  0  0  0  0  0  0  0
    0.5567   -7.6699    1.1955 C   0  0  0  0  0  0  0  0  0  0  0  0
    0.7903   -8.9699    0.9209 C   0  0  0  0  0  0  0  0  0  0  0  0
    1.5479  -13.4950    2.3568 C   0  0  0  0  0  0  0  0  0  0  0  0
    1.2456  -13.9001    1.1648 C   0  0  0  0  0  0  0  0  0  0  0  0
    1.0233  -13.0589    0.1983 C   0  0  0  0  0  0  0  0  0  0  0  0
    0.9548  -11.6626    0.4956 C   0  0  0  0  0  0  0  0  0  0  0  0
    0.6175   -5.4409    2.6606 C   0  0  0  0  0  0  0  0  0  0  0  0
   -0.5432   -4.9756    2.3417 C   0  0  0  0  0  0  0  0  0  0  0  0
   -0.5645   -3.6484    2.0224 C   0  0  0  0  0  0  0  0  0  0  0  0
    0.6310   -2.8723    2.2203 C   0  0  0  0  0  0  0  0  0  0  0  0
    1.8531   -3.5259    2.5093 C   0  0  0  0  0  0  0  0  0  0  0  0
    1.8101   -4.9298    2.6817 C   0  0  0  0  0  0  0  0  0  0  0  0
    2.0194  -14.5449    3.5785 S   0  0  0  0  0  0  0  0  0  0  0  0
    3.1577  -15.0061    3.1034 N   0  0  0  0  0  0  0  0  0  0  0  0
    1.9145  -14.0160    4.7599 O   0  0  0  0  0  0  0  0  0  0  0  0
  3  4  1  0
  6 13  1  0
  9 19  1  0
 19 20  1  6
 19 21  2  0
 13 14  2  0
 14 15  1  0
 15 16  2  0
 16 17  1  0
 17 18  2  0
 13 18  1  0
  1  2  2  0
  2  3  1  0
  3  8  2  0
  7  8  1  0
  6  7  2  0
  1  6  1  0
  4  5  2  0
  5  9  1  0
  9 10  2  0
 10 11  1  0
 11 12  2  0
  4 12  1  0
M  END

$$$$
No_1661-/export/home/yangzhenyu/potential_scad_32_flow//YTHDC2/2024-12-06-03-22-00/
     RDKit          3D

 11 11  0  0  0  0  0  0  0  0999 V2000
    1.1787   -8.0297    3.5154 C   0  0  0  0  0  0  0  0  0  0  0  0
    1.0491   -6.8434    2.9820 C   0  0  0  0  0  0  0  0  0  0  0  0
    0.0950   -8.8404    3.2292 C   0  0  0  0  0  0  0  0  0  0  0  0
   -0.9173   -8.4596    2.5152 C   0  0  0  0  0  0  0  0  0  0  0  0
   -1.0331   -7.2162    2.0653 C   0  0  0  0  0  0  0  0  0  0  0  0
   -2.2155   -6.7621    1.5011 C   0  0  0  0  0  0  0  0  0  0  0  0
    0.0919   -6.3006    2.2576 C   0  0  0  0  0  0  0  0  0  0  0  0
   -2.4371   -7.0823    0.2852 Cl  0  0  0  0  0  0  0  0  0  0  0  0
    0.2073  -10.2897    3.7272 Cl  0  0  0  0  0  0  0  0  0  0  0  0
    0.0985   -4.9688    1.9112 Br  0  0  0  0  0  0  0  0  0  0  0  0
   -3.0820   -5.9363    2.3964 O   0  0  0  0  0  0  0  0  0  0  0  0
  5  6  1  0
  6  8  1  0
  3  9  1  0
  7 10  1  0
  6 11  2  0
  1  2  2  0
  2  7  1  0
  5  7  2  0
  4  5  1  0
  3  4  2  0
  1  3  1  0
M  END

$$$$
No_1662-/export/home/yangzhenyu/potential_scad_32_flow//YTHDC2/2024-12-06-03-22-00/
     RDKit          3D

 20 20  0  0  0  0  0  0  0  0999 V2000
    1.1787   -8.0297    3.5154 C   0  0  0  0  0  0  0  0  0  0  0  0
    1.1048   -9.2215    3.2892 C   0  0  0  0  0  0  0  0  0  0  0  0
    1.3627  -10.1721    4.3044 C   0  0  0  0  0  0  0  0  0  0  0  0
    1.7354  -11.4730    3.9023 C   0  0  0  0  0  0  0  0  0  0  0  0
    1.8080  -11.8127    2.7216 C   0  0  0  0  0  0  0  0  0  0  0  0
    1.5854  -11.0021    1.7249 C   0  0  0  0  0  0  0  0  0  0  0  0
    1.3573   -9.7389    1.9287 C   0  0  0  0  0  0  0  0  0  0  0  0
    1.1102   -8.8712    0.9017 C   0  0  0  0  0  0  0  0  0  0  0  0
    1.5724   -9.1697   -0.3048 C   0  0  0  0  0  0  0  0  0  0  0  0
    0.9145   -9.0379   -1.4184 O   0  0  0  0  0  0  0  0  0  0  0  0
    2.9672   -9.0760   -0.6223 O   0  0  0  0  0  0  0  0  0  0  0  0
    2.1219  -13.4491    2.3598 C   0  0  0  0  0  0  0  0  0  0  0  0
    1.9344  -14.2826    3.2269 O   0  0  0  0  0  0  0  0  0  0  0  0
    2.3608  -13.7430    1.2168 O   0  0  0  0  0  0  0  0  0  0  0  0
    2.2975   -7.1504    3.6160 O   0  0  0  0  0  0  0  0  0  0  0  0
    0.0189   -7.5026    3.9523 O   0  0  0  0  0  0  0  0  0  0  0  0
    1.9141  -15.6216    2.8386 C   0  0  0  0  0  0  0  0  0  0  0  0
    1.0289  -16.1909    2.5375 C   0  0  0  0  0  0  0  0  0  0  0  0
    0.8944  -17.4603    2.1080 C   0  0  0  0  0  0  0  0  0  0  0  0
    2.1716  -18.1409    1.9480 C   0  0  0  0  0  0  0  0  0  0  0  0
  1  2  1  0
  7  8  1  0
  8  9  1  0
  9 10  1  0
  9 11  2  0
  5 12  1  0
 12 13  1  0
 12 14  2  0
  1 15  1  0
  1 16  2  0
 13 17  1  0
 17 18  1  0
 18 19  2  3
 19 20  1  0
  2  3  2  0
  3  4  1  0
  4  5  2  0
  5  6  1  0
  6  7  2  0
  2  7  1  0
M  END

$$$$
No_1663-/export/home/yangzhenyu/potential_scad_32_flow//YTHDC2/2024-12-06-03-22-00/
     RDKit          3D

 18 19  0  0  0  0  0  0  0  0999 V2000
    1.1787   -8.0297    3.5154 C   0  0  0  0  0  0  0  0  0  0  0  0
    1.1048   -9.2215    3.2892 C   0  0  0  0  0  0  0  0  0  0  0  0
    1.2339   -9.7611    2.0189 C   0  0  0  0  0  0  0  0  0  0  0  0
    1.3583   -9.0036    0.9764 C   0  0  0  0  0  0  0  0  0  0  0  0
    1.5996   -7.6362    1.1311 C   0  0  0  0  0  0  0  0  0  0  0  0
    1.4830   -7.0928    2.3626 C   0  0  0  0  0  0  0  0  0  0  0  0
    1.5395   -5.7300    2.6182 C   0  0  0  0  0  0  0  0  0  0  0  0
    1.1775  -11.2233    1.8407 C   0  0  0  0  0  0  0  0  0  0  0  0
    0.5085  -11.9762    2.1989 C   0  0  0  0  0  0  0  0  0  0  0  0
    0.4247  -13.3704    2.0465 C   0  0  0  0  0  0  0  0  0  0  0  0
    1.6054  -14.1557    2.4664 C   0  0  0  0  0  0  0  0  0  0  0  0
    1.8180  -15.4260    2.0939 C   0  0  0  0  0  0  0  0  0  0  0  0
    0.9438  -16.1028    1.4958 C   0  0  0  0  0  0  0  0  0  0  0  0
   -0.2598  -15.5795    1.2163 C   0  0  0  0  0  0  0  0  0  0  0  0
   -0.4852  -14.2047    1.4619 C   0  0  0  0  0  0  0  0  0  0  0  0
   -1.6749  -13.6497    1.0440 C   0  0  0  0  0  0  0  0  0  0  0  0
   -2.6719  -13.7836    0.7573 C   0  0  0  0  0  0  0  0  0  0  0  0
    1.6761   -5.1822    3.8932 O   0  0  0  0  0  0  0  0  0  0  0  0
  6  7  1  0
  3  8  1  0
  8  9  2  3
  9 10  1  0
 15 16  1  0
 16 17  3  0
  7 18  1  0
  1  2  2  0
  2  3  1  0
  3  4  2  0
  4  5  1  0
  5  6  2  0
  1  6  1  0
 10 11  2  0
 11 12  1  0
 12 13  2  0
 13 14  1  0
 14 15  2  0
 10 15  1  0
M  END

$$$$
No_1664-/export/home/yangzhenyu/potential_scad_32_flow//YTHDC2/2024-12-06-03-22-00/
     RDKit          3D

 17 18  0  0  0  0  0  0  0  0999 V2000
    1.1787   -8.0297    3.5154 C   0  0  0  0  0  0  0  0  0  0  0  0
    1.1048   -9.2215    3.2892 C   0  0  0  0  0  0  0  0  0  0  0  0
    1.4683  -10.2314    4.1915 C   0  0  0  0  0  0  0  0  0  0  0  0
    0.8445   -6.9865    2.5175 C   0  0  0  0  0  0  0  0  0  0  0  0
    0.3587   -7.3973    1.3953 C   0  0  0  0  0  0  0  0  0  0  0  0
    0.1901   -8.6971    1.0711 C   0  0  0  0  0  0  0  0  0  0  0  0
    0.5759   -9.6647    1.9442 C   0  0  0  0  0  0  0  0  0  0  0  0
    1.8402  -11.5521    3.5557 N   0  0  0  0  0  0  0  0  0  0  0  0
    1.4173  -11.8732    2.4832 C   0  0  0  0  0  0  0  0  0  0  0  0
    0.9916  -10.9395    1.5070 C   0  0  0  0  0  0  0  0  0  0  0  0
    1.7236  -13.1475    2.0416 C   0  0  0  0  0  0  0  0  0  0  0  0
    1.8824  -13.5653    0.8035 O   0  0  0  0  0  0  0  0  0  0  0  0
    2.0724  -14.2170    2.9425 N   0  0  0  0  0  0  0  0  0  0  0  0
    0.9824   -5.3467    3.0011 O   0  0  0  0  0  0  0  0  0  0  0  0
    2.2372  -15.5324    2.5523 C   0  0  0  0  0  0  0  0  0  0  0  0
    1.1625  -16.4647    2.6987 C   0  0  0  0  0  0  0  0  0  0  0  0
    1.4233  -17.7626    2.3153 C   0  0  0  0  0  0  0  0  0  0  0  0
  9 11  1  0
 11 12  2  0
 11 13  1  0
  4 14  1  0
 13 15  1  0
 15 16  1  0
 16 17  2  0
  1  2  2  0
  6  7  2  0
  5  6  1  0
  4  5  2  0
  1  4  1  0
  2  3  1  0
  3  8  2  0
  8  9  1  0
  9 10  2  0
  7 10  1  0
  2  7  1  0
M  END

$$$$
No_1665-/export/home/yangzhenyu/potential_scad_32_flow//YTHDC2/2024-12-06-03-22-00/
     RDKit          3D

 18 17  0  0  1  0  0  0  0  0999 V2000
    1.1787   -8.0297    3.5154 C   0  0  0  0  0  0  0  0  0  0  0  0
    1.0491   -6.8434    2.9820 C   0  0  1  0  0  0  0  0  0  0  0  0
    1.9985   -8.9840    2.8958 C   0  0  0  0  0  0  0  0  0  0  0  0
    1.7297   -9.2108    1.6335 C   0  0  0  0  0  0  0  0  0  0  0  0
    2.1788  -10.5482    1.1239 C   0  0  0  0  0  0  0  0  0  0  0  0
    0.8226   -6.9903    1.4377 F   0  0  0  0  0  0  0  0  0  0  0  0
    2.8410  -11.3878    1.7895 O   0  0  0  0  0  0  0  0  0  0  0  0
    1.7162  -10.9542    0.0432 O   0  0  0  0  0  0  0  0  0  0  0  0
    0.1511   -5.8923    3.3224 O   0  0  0  0  0  0  0  0  0  0  0  0
   -0.1357   -4.8397    2.5172 C   0  0  2  0  0  0  0  0  0  0  0  0
    0.8238   -3.9161    2.3891 C   0  0  1  0  0  0  0  0  0  0  0  0
    1.5293   -3.8220    3.5915 C   0  0  0  0  0  0  0  0  0  0  0  0
   -1.4166   -4.1237    2.8825 C   0  0  0  0  0  0  0  0  0  0  0  0
   -2.5196   -5.0322    2.9740 C   0  0  0  0  0  0  0  0  0  0  0  0
   -3.0497   -4.8744    4.2538 O   0  0  0  0  0  0  0  0  0  0  0  0
   -2.8902   -5.8705    2.2043 O   0  0  0  0  0  0  0  0  0  0  0  0
    1.3144   -3.4784    1.1659 C   0  0  0  0  0  0  0  0  0  0  0  0
    0.7693   -2.3247    0.6776 C   0  0  0  0  0  0  0  0  0  0  0  0
  1  2  1  0
  1  3  1  0
  3  4  1  0
  4  5  1  0
  2  6  1  6
  5  7  1  0
  5  8  2  0
  2  9  1  0
  9 10  1  0
 10 11  1  0
 11 12  1  1
 10 13  1  1
 13 14  1  0
 14 15  1  0
 14 16  2  0
 11 17  1  0
 17 18  1  0
M  END

$$$$
No_1666-/export/home/yangzhenyu/potential_scad_32_flow//YTHDC2/2024-12-06-03-22-00/
     RDKit          3D

 19 19  0  0  1  0  0  0  0  0999 V2000
    1.1787   -8.0297    3.5154 C   0  0  0  0  0  0  0  0  0  0  0  0
    1.1048   -9.2215    3.2892 C   0  0  0  0  0  0  0  0  0  0  0  0
    1.0239   -9.7790    2.0239 C   0  0  0  0  0  0  0  0  0  0  0  0
    1.0632  -11.2393    1.8978 C   0  0  0  0  0  0  0  0  0  0  0  0
    1.2664   -7.1133    2.3309 C   0  0  0  0  0  0  0  0  0  0  0  0
    1.2080   -7.6832    1.0760 C   0  0  0  0  0  0  0  0  0  0  0  0
    1.1535   -8.9837    0.8897 C   0  0  0  0  0  0  0  0  0  0  0  0
    0.7389  -11.7401    0.6551 O   0  0  0  0  0  0  0  0  0  0  0  0
    1.4755  -12.0045    2.8739 N   0  0  0  0  0  0  0  0  0  0  0  0
    1.4526  -13.4176    2.8284 C   0  0  2  0  0  0  0  0  0  0  0  0
    1.9852  -13.9289    1.5917 C   0  0  0  0  0  0  0  0  0  0  0  0
    1.1265   -9.4369   -0.3871 C   0  0  0  0  0  0  0  0  0  0  0  0
    2.0866   -9.4519   -1.1117 O   0  0  0  0  0  0  0  0  0  0  0  0
   -0.0346   -9.3972   -1.0755 O   0  0  0  0  0  0  0  0  0  0  0  0
    2.3139  -15.2451    1.6187 Cl  0  0  0  0  0  0  0  0  0  0  0  0
    1.3508   -5.4446    2.6749 Cl  0  0  0  0  0  0  0  0  0  0  0  0
    0.1712  -13.8188    3.1823 C   0  0  0  0  0  0  0  0  0  0  0  0
    0.0817  -15.1131    3.5754 C   0  0  0  0  0  0  0  0  0  0  0  0
   -0.8729  -15.9435    3.2689 C   0  0  0  0  0  0  0  0  0  0  0  0
  3  4  1  0
  4  8  2  0
  4  9  1  0
  9 10  1  0
 10 11  1  6
  7 12  1  0
 12 13  2  0
 12 14  1  0
 11 15  1  0
  5 16  1  0
 10 17  1  0
 17 18  1  0
 18 19  2  0
  1  2  2  0
  2  3  1  0
  3  7  2  0
  6  7  1  0
  5  6  2  0
  1  5  1  0
M  END

$$$$
No_1667-/export/home/yangzhenyu/potential_scad_32_flow//YTHDC2/2024-12-06-03-22-00/
     RDKit          3D

 21 22  0  0  1  0  0  0  0  0999 V2000
    1.1787   -8.0297    3.5154 C   0  0  0  0  0  0  0  0  0  0  0  0
    1.1048   -9.2215    3.2892 C   0  0  0  0  0  0  0  0  0  0  0  0
    1.3627  -10.1721    4.3044 C   0  0  0  0  0  0  0  0  0  0  0  0
    1.0682  -11.5187    4.0618 C   0  0  0  0  0  0  0  0  0  0  0  0
    0.6332  -11.9655    2.9682 C   0  0  0  0  0  0  0  0  0  0  0  0
    0.4776  -11.1308    1.9203 C   0  0  0  0  0  0  0  0  0  0  0  0
    0.7470   -9.8274    2.0368 C   0  0  0  0  0  0  0  0  0  0  0  0
    1.0387   -7.0301    2.5175 C   0  0  2  0  0  0  0  0  0  0  0  0
    0.9130   -7.5288    1.2013 C   0  0  0  0  0  0  0  0  0  0  0  0
    0.7893   -8.7979    0.9542 C   0  0  0  0  0  0  0  0  0  0  0  0
    0.5241   -9.2578   -0.2817 O   0  0  0  0  0  0  0  0  0  0  0  0
    0.4481  -13.3709    2.6894 C   0  0  0  0  0  0  0  0  0  0  0  0
    0.8561  -13.9867    1.7475 C   0  0  1  0  0  0  0  0  0  0  0  0
    2.2820  -14.0093    1.3728 C   0  0  0  0  0  0  0  0  0  0  0  0
    1.2883   -5.5999    2.6607 C   0  0  0  0  0  0  0  0  0  0  0  0
    0.4909  -15.4231    1.5033 C   0  0  0  0  0  0  0  0  0  0  0  0
    1.0326  -16.3697    2.2803 C   0  0  0  0  0  0  0  0  0  0  0  0
    1.7831  -16.3595    2.9928 C   0  0  0  0  0  0  0  0  0  0  0  0
    2.3369  -17.4714    3.7118 C   0  0  0  0  0  0  0  0  0  0  0  0
    1.9151  -18.6315    3.4022 C   0  0  0  0  0  0  0  0  0  0  0  0
    1.0334  -18.8165    2.4723 C   0  0  0  0  0  0  0  0  0  0  0  0
  1  2  1  0
  8  9  1  0
  7 10  1  0
  9 10  1  0
 10 11  2  0
  5 12  1  0
 12 13  1  0
 13 14  1  1
  8 15  1  6
 13 16  1  0
 16 17  1  0
 17 18  2  3
 18 19  1  0
 19 20  2  3
 20 21  1  0
  1  8  1  0
  2  3  2  0
  3  4  1  0
  4  5  2  0
  5  6  1  0
  6  7  2  0
  2  7  1  0
M  END

$$$$
No_1668-/export/home/yangzhenyu/potential_scad_32_flow//YTHDC2/2024-12-06-03-22-00/
     RDKit          3D

 17 18  0  0  1  0  0  0  0  0999 V2000
    1.1787   -8.0297    3.5154 C   0  0  0  0  0  0  0  0  0  0  0  0
    1.1048   -9.2215    3.2892 C   0  0  0  0  0  0  0  0  0  0  0  0
    1.2339   -9.7611    2.0189 C   0  0  0  0  0  0  0  0  0  0  0  0
    1.3583   -9.0036    0.9764 C   0  0  0  0  0  0  0  0  0  0  0  0
    1.5996   -7.6362    1.1311 C   0  0  0  0  0  0  0  0  0  0  0  0
    1.4830   -7.0928    2.3626 C   0  0  0  0  0  0  0  0  0  0  0  0
    1.1008  -11.2372    1.8542 C   0  0  2  0  0  0  0  0  0  0  0  0
    1.9749  -12.0938    2.2342 C   0  0  0  0  0  0  0  0  0  0  0  0
    1.7533  -13.4231    1.8956 C   0  0  0  0  0  0  0  0  0  0  0  0
    0.8624  -13.8318    1.1071 C   0  0  0  0  0  0  0  0  0  0  0  0
    0.0173  -12.3388    0.8496 C   0  0  0  0  0  0  0  0  0  0  0  0
    1.5379   -5.6484    2.6265 C   0  0  0  0  0  0  0  0  0  0  0  0
    1.1824   -4.7839    1.6413 N   0  0  0  0  0  0  0  0  0  0  0  0
    0.4785   -3.6419    1.7913 C   0  0  0  0  0  0  0  0  0  0  0  0
   -0.5411   -3.4590    0.9467 C   0  0  0  0  0  0  0  0  0  0  0  0
   -0.9563   -2.1791    0.5920 C   0  0  0  0  0  0  0  0  0  0  0  0
   -0.2301   -1.1326    1.1921 C   0  0  0  0  0  0  0  0  0  0  0  0
  7  3  1  6
  7  8  1  0
  8  9  2  0
  9 10  1  0
  7 11  1  0
 10 11  1  0
  6 12  1  0
 12 13  1  0
 13 14  1  0
 14 15  1  0
 15 16  2  3
 16 17  1  0
  1  2  2  0
  2  3  1  0
  3  4  2  0
  4  5  1  0
  5  6  2  0
  1  6  1  0
M  END

$$$$
No_1669-/export/home/yangzhenyu/potential_scad_32_flow//YTHDC2/2024-12-06-03-22-00/
     RDKit          3D

 17 18  0  0  1  0  0  0  0  0999 V2000
    1.1787   -8.0297    3.5154 C   0  0  0  0  0  0  0  0  0  0  0  0
    1.0491   -6.8434    2.9820 C   0  0  0  0  0  0  0  0  0  0  0  0
    0.9905   -9.0774    2.6527 C   0  0  0  0  0  0  0  0  0  0  0  0
    0.7897   -8.9519    1.3691 C   0  0  0  0  0  0  0  0  0  0  0  0
    0.7018   -7.7198    0.7892 C   0  0  0  0  0  0  0  0  0  0  0  0
    0.8918   -6.5957    1.6117 C   0  0  0  0  0  0  0  0  0  0  0  0
    1.0998  -10.4710    3.2437 C   0  0  2  0  0  0  0  0  0  0  0  0
    2.1917  -10.8879    3.7399 C   0  0  0  0  0  0  0  0  0  0  0  0
    0.8983   -5.2566    1.2088 O   0  0  0  0  0  0  0  0  0  0  0  0
    0.4942  -11.5082    2.3990 C   0  0  0  0  0  0  0  0  0  0  0  0
    1.1932  -12.4356    1.9474 C   0  0  0  0  0  0  0  0  0  0  0  0
    1.1416  -13.6795    2.3548 C   0  0  0  0  0  0  0  0  0  0  0  0
    0.1051  -13.9565    3.4426 C   0  0  0  0  0  0  0  0  0  0  0  0
    1.9861  -14.8910    1.9282 C   0  0  0  0  0  0  0  0  0  0  0  0
    1.8218  -16.1268    2.5328 C   0  0  0  0  0  0  0  0  0  0  0  0
    0.9796  -16.3308    3.4767 C   0  0  0  0  0  0  0  0  0  0  0  0
    0.1620  -15.3999    3.8701 C   0  0  0  0  0  0  0  0  0  0  0  0
  1  2  1  0
  3  4  1  0
  2  6  1  0
  5  6  1  0
  3  7  1  0
  7  8  1  6
  6  9  2  0
  7 10  1  0
 10 11  1  0
 11 12  1  0
  1  3  1  0
  4  5  1  0
 12 13  2  0
 13 17  1  0
 16 17  2  0
 15 16  1  0
 14 15  2  0
 12 14  1  0
M  END

$$$$
No_1670-/export/home/yangzhenyu/potential_scad_32_flow//YTHDC2/2024-12-06-03-22-00/
     RDKit          3D

 18 19  0  0  1  0  0  0  0  0999 V2000
    1.1787   -8.0297    3.5154 C   0  0  0  0  0  0  0  0  0  0  0  0
    1.1048   -9.2215    3.2892 C   0  0  0  0  0  0  0  0  0  0  0  0
    1.2339   -9.7611    2.0189 C   0  0  0  0  0  0  0  0  0  0  0  0
    1.1954  -11.2312    1.8661 C   0  0  2  0  0  0  0  0  0  0  0  0
    1.5546  -12.1691    2.7931 C   0  0  0  0  0  0  0  0  0  0  0  0
    0.9527   -7.0669    2.3918 C   0  0  0  0  0  0  0  0  0  0  0  0
    1.0618   -7.6392    1.0692 C   0  0  0  0  0  0  0  0  0  0  0  0
    1.2060   -8.9530    0.8578 C   0  0  0  0  0  0  0  0  0  0  0  0
    1.5110  -13.5006    2.3856 C   0  0  0  0  0  0  0  0  0  0  0  0
    1.1014  -13.5438    0.9539 N   0  0  0  0  0  0  0  0  0  0  0  0
    1.0248  -12.1113    0.7432 C   0  0  0  0  0  0  0  0  0  0  0  0
    0.9733   -5.4005    2.5022 C   0  0  0  0  0  0  0  0  0  0  0  0
    1.7828  -14.6797    3.0674 C   0  0  0  0  0  0  0  0  0  0  0  0
    1.3287  -15.9064    2.4655 C   0  0  0  0  0  0  0  0  0  0  0  0
    2.2372  -16.6533    1.9622 C   0  0  0  0  0  0  0  0  0  0  0  0
    2.1044  -18.0175    1.6543 F   0  0  0  0  0  0  0  0  0  0  0  0
    3.0820  -16.1231    1.1337 O   0  0  0  0  0  0  0  0  0  0  0  0
    1.6971   -5.1278    3.5191 C   0  0  0  0  0  0  0  0  0  0  0  0
  4  3  1  6
  4  5  1  0
  5  9  2  0
  9 10  1  0
  4 11  1  0
 10 11  2  0
  6 12  1  0
  9 13  1  0
 13 14  1  0
 14 15  1  0
 15 16  1  0
 15 17  2  0
 12 18  1  0
  1  2  2  0
  2  3  1  0
  3  8  2  0
  7  8  1  0
  6  7  2  0
  1  6  1  0
M  END

$$$$
No_1671-/export/home/yangzhenyu/potential_scad_32_flow//YTHDC2/2024-12-06-03-22-00/
     RDKit          3D

 21 22  0  0  1  0  0  0  0  0999 V2000
    1.1787   -8.0297    3.5154 C   0  0  0  0  0  0  0  0  0  0  0  0
    1.1048   -9.2215    3.2892 C   0  0  0  0  0  0  0  0  0  0  0  0
    1.2339   -9.7611    2.0189 C   0  0  0  0  0  0  0  0  0  0  0  0
    1.3583   -9.0036    0.9764 C   0  0  0  0  0  0  0  0  0  0  0  0
    1.5996   -7.6362    1.1311 C   0  0  0  0  0  0  0  0  0  0  0  0
    1.4830   -7.0928    2.3626 C   0  0  0  0  0  0  0  0  0  0  0  0
    1.5395   -5.7300    2.6182 C   0  0  0  0  0  0  0  0  0  0  0  0
    1.1775  -11.2233    1.8407 C   0  0  0  0  0  0  0  0  0  0  0  0
    0.5085  -11.9762    2.1989 C   0  0  0  0  0  0  0  0  0  0  0  0
    0.4247  -13.3704    2.0465 C   0  0  2  0  0  0  0  0  0  0  0  0
   -0.6059  -14.0773    1.8608 C   0  0  0  0  0  0  0  0  0  0  0  0
   -0.5437  -15.5485    1.8404 C   0  0  0  0  0  0  0  0  0  0  0  0
    0.9831  -15.8593    2.3301 C   0  0  1  0  0  0  0  0  0  0  0  0
    1.6034  -14.2529    2.4834 C   0  0  0  0  0  0  0  0  0  0  0  0
    1.7336  -16.7880    2.6400 C   0  0  2  0  0  0  0  0  0  0  0  0
    3.0903  -16.8249    2.2689 C   0  0  0  0  0  0  0  0  0  0  0  0
    1.2975   -4.7972    1.6901 O   0  0  0  0  0  0  0  0  0  0  0  0
    1.8005   -5.1550    3.8257 N   0  0  0  0  0  0  0  0  0  0  0  0
    1.2752  -17.9519    3.1943 C   0  0  0  0  0  0  0  0  0  0  0  0
    0.4535  -17.7915    4.2799 C   0  0  0  0  0  0  0  0  0  0  0  0
   -0.0229  -18.7719    5.0623 C   0  0  0  0  0  0  0  0  0  0  0  0
  6  7  1  0
  3  8  1  0
  8  9  2  3
  9 10  1  0
 10 11  1  0
 11 12  2  0
 12 13  1  0
 10 14  1  1
 13 14  1  1
 13 15  1  0
 15 16  1  6
  7 17  2  0
  7 18  1  0
 15 19  1  0
 19 20  1  0
 20 21  2  0
  1  2  2  0
  2  3  1  0
  3  4  2  0
  4  5  1  0
  5  6  2  0
  1  6  1  0
M  END

$$$$
No_1672-/export/home/yangzhenyu/potential_scad_32_flow//YTHDC2/2024-12-06-03-22-00/
     RDKit          3D

 18 19  0  0  0  0  0  0  0  0999 V2000
    1.1787   -8.0297    3.5154 C   0  0  0  0  0  0  0  0  0  0  0  0
    1.1048   -9.2215    3.2892 C   0  0  0  0  0  0  0  0  0  0  0  0
    1.2339   -9.7611    2.0189 C   0  0  0  0  0  0  0  0  0  0  0  0
    1.1954  -11.2312    1.8661 C   0  0  0  0  0  0  0  0  0  0  0  0
    1.5546  -12.1691    2.7931 C   0  0  0  0  0  0  0  0  0  0  0  0
    0.9527   -7.0669    2.3918 C   0  0  0  0  0  0  0  0  0  0  0  0
    1.0618   -7.6392    1.0692 C   0  0  0  0  0  0  0  0  0  0  0  0
    1.2060   -8.9530    0.8578 C   0  0  0  0  0  0  0  0  0  0  0  0
    0.8228  -13.3051    2.8966 C   0  0  0  0  0  0  0  0  0  0  0  0
    0.6943  -14.0548    1.7228 C   0  0  0  0  0  0  0  0  0  0  0  0
    0.3598  -13.1506    0.6089 C   0  0  0  0  0  0  0  0  0  0  0  0
    1.0205  -11.8195    0.6083 C   0  0  0  0  0  0  0  0  0  0  0  0
    1.0113   -5.4193    2.5139 C   0  0  0  0  0  0  0  0  0  0  0  0
    0.4286   -4.8513    1.5962 C   0  0  0  0  0  0  0  0  0  0  0  0
   -0.7629   -4.9758    1.3036 C   0  0  0  0  0  0  0  0  0  0  0  0
   -1.4615   -4.2912    0.9251 C   0  0  0  0  0  0  0  0  0  0  0  0
   -1.0421   -2.9900    0.3652 C   0  0  0  0  0  0  0  0  0  0  0  0
    0.2115   -2.6044    0.6333 C   0  0  0  0  0  0  0  0  0  0  0  0
  3  4  1  0
  4  5  1  0
  5  9  1  0
  9 10  1  0
 10 11  1  0
  4 12  1  0
 11 12  1  0
  6 13  1  0
 13 14  1  0
 14 15  1  0
 15 16  2  3
 16 17  1  0
 17 18  2  0
  1  2  2  0
  2  3  1  0
  3  8  2  0
  7  8  1  0
  6  7  2  0
  1  6  1  0
M  END

$$$$
No_1673-/export/home/yangzhenyu/potential_scad_32_flow//YTHDC2/2024-12-06-03-22-00/
     RDKit          3D

 17 18  0  0  1  0  0  0  0  0999 V2000
    1.1787   -8.0297    3.5154 C   0  0  0  0  0  0  0  0  0  0  0  0
    1.0491   -6.8434    2.9820 C   0  0  0  0  0  0  0  0  0  0  0  0
    0.9905   -9.0774    2.6527 C   0  0  0  0  0  0  0  0  0  0  0  0
    1.1655  -10.4663    3.1286 C   0  0  0  0  0  0  0  0  0  0  0  0
    1.2197  -11.4898    2.5831 C   0  0  0  0  0  0  0  0  0  0  0  0
    1.3300  -11.5105    1.2989 C   0  0  0  0  0  0  0  0  0  0  0  0
    1.2392  -10.3705    0.4746 C   0  0  0  0  0  0  0  0  0  0  0  0
    1.0949   -9.1271    1.1996 C   0  0  0  0  0  0  0  0  0  0  0  0
    1.1753   -7.8819    0.6739 C   0  0  0  0  0  0  0  0  0  0  0  0
    1.1933   -6.7265    1.4900 C   0  0  0  0  0  0  0  0  0  0  0  0
    1.3680  -13.0496    3.2457 C   0  0  0  0  0  0  0  0  0  0  0  0
    1.1707  -14.0953    2.2520 C   0  0  1  0  0  0  0  0  0  0  0  0
    2.3272  -14.8333    2.0758 C   0  0  0  0  0  0  0  0  0  0  0  0
    1.3888   -5.6231    3.6354 C   0  0  0  0  0  0  0  0  0  0  0  0
    0.0586  -14.4734    1.6730 C   0  0  0  0  0  0  0  0  0  0  0  0
   -0.3567  -15.3989    1.8187 C   0  0  0  0  0  0  0  0  0  0  0  0
    0.5453  -16.6087    2.0678 C   0  0  0  0  0  0  0  0  0  0  0  0
  5 11  1  0
 11 12  1  0
 12 13  1  1
  2 14  1  0
 12 15  1  0
 15 16  2  3
 16 17  1  0
  1  2  2  0
  2 10  1  0
  9 10  2  0
  8  9  1  0
  1  3  1  0
  3  4  2  0
  4  5  1  0
  5  6  2  0
  6  7  1  0
  7  8  2  0
  3  8  1  0
M  END

$$$$
No_1674-/export/home/yangzhenyu/potential_scad_32_flow//YTHDC2/2024-12-06-03-22-00/
     RDKit          3D

 17 18  0  0  0  0  0  0  0  0999 V2000
    1.1787   -8.0297    3.5154 C   0  0  0  0  0  0  0  0  0  0  0  0
    1.1048   -9.2215    3.2892 C   0  0  0  0  0  0  0  0  0  0  0  0
    1.2339   -9.7611    2.0189 C   0  0  0  0  0  0  0  0  0  0  0  0
    1.3583   -9.0036    0.9764 C   0  0  0  0  0  0  0  0  0  0  0  0
    1.5996   -7.6362    1.1311 C   0  0  0  0  0  0  0  0  0  0  0  0
    1.4830   -7.0928    2.3626 C   0  0  0  0  0  0  0  0  0  0  0  0
    1.1008  -11.2372    1.8542 C   0  0  0  0  0  0  0  0  0  0  0  0
    0.5178  -11.9759    2.3445 C   0  0  0  0  0  0  0  0  0  0  0  0
    0.4575  -13.3705    2.1281 C   0  0  0  0  0  0  0  0  0  0  0  0
    1.1632  -14.1013    2.0451 C   0  0  0  0  0  0  0  0  0  0  0  0
    1.0402  -15.5542    1.9840 C   0  0  0  0  0  0  0  0  0  0  0  0
   -0.1527  -16.0372    1.9519 C   0  0  0  0  0  0  0  0  0  0  0  0
   -1.1928  -15.2536    2.0893 C   0  0  0  0  0  0  0  0  0  0  0  0
   -1.0069  -13.8556    2.3031 C   0  0  0  0  0  0  0  0  0  0  0  0
    1.5633   -9.4040   -0.3599 Cl  0  0  0  0  0  0  0  0  0  0  0  0
    1.5115   -5.6216    2.5989 Cl  0  0  0  0  0  0  0  0  0  0  0  0
   -0.4443  -17.4330    1.8660 C   0  0  0  0  0  0  0  0  0  0  0  0
  3  7  1  0
  7  8  2  3
  8  9  1  0
  4 15  1  0
  6 16  1  0
 12 17  1  0
  1  2  2  0
  2  3  1  0
  3  4  2  0
  4  5  1  0
  5  6  2  0
  1  6  1  0
  9 10  2  0
 10 11  1  0
 11 12  2  0
 12 13  1  0
 13 14  2  0
  9 14  1  0
M  END

$$$$
No_1675-/export/home/yangzhenyu/potential_scad_32_flow//YTHDC2/2024-12-06-03-22-00/
     RDKit          3D

 17 18  0  0  0  0  0  0  0  0999 V2000
    1.1787   -8.0297    3.5154 Cl  0  0  0  0  0  0  0  0  0  0  0  0
    0.6122   -7.9650    2.5747 C   0  0  0  0  0  0  0  0  0  0  0  0
    0.3325   -6.8044    1.9102 C   0  0  0  0  0  0  0  0  0  0  0  0
   -0.4697   -6.7420    0.7799 N   0  0  0  0  0  0  0  0  0  0  0  0
    0.3451   -9.2171    2.1480 C   0  0  0  0  0  0  0  0  0  0  0  0
   -0.5151   -9.1303    0.8107 C   0  0  0  0  0  0  0  0  0  0  0  0
   -0.8030   -7.9852    0.2360 C   0  0  0  0  0  0  0  0  0  0  0  0
   -1.4611   -7.9446   -0.9117 C   0  0  0  0  0  0  0  0  0  0  0  0
   -1.4513   -8.8162   -1.8188 C   0  0  0  0  0  0  0  0  0  0  0  0
   -2.1004   -8.8544   -3.0586 C   0  0  0  0  0  0  0  0  0  0  0  0
   -2.6381   -7.7726   -3.5383 C   0  0  0  0  0  0  0  0  0  0  0  0
   -2.6151   -6.5966   -2.7568 C   0  0  0  0  0  0  0  0  0  0  0  0
   -2.0393   -6.6707   -1.4506 C   0  0  0  0  0  0  0  0  0  0  0  0
    0.7243  -10.6961    2.5596 F   0  0  0  0  0  0  0  0  0  0  0  0
   -3.1991   -7.6271   -4.8285 C   0  0  0  0  0  0  0  0  0  0  0  0
   -3.6439   -8.5382   -5.3274 C   0  0  0  0  0  0  0  0  0  0  0  0
    0.6144   -5.5323    2.5080 C   0  0  0  0  0  0  0  0  0  0  0  0
  1  2  1  0
  7  8  1  0
  5 14  1  0
 11 15  1  0
 15 16  2  0
  3 17  1  0
  8  9  2  0
  9 10  1  0
 10 11  2  0
 11 12  1  0
 12 13  2  0
  8 13  1  0
  2  3  2  0
  3  4  1  0
  4  7  2  0
  6  7  1  0
  5  6  2  0
  2  5  1  0
M  END

$$$$
No_1676-/export/home/yangzhenyu/potential_scad_32_flow//YTHDC2/2024-12-06-03-22-00/
     RDKit          3D

 18 19  0  0  1  0  0  0  0  0999 V2000
    1.1787   -8.0297    3.5154 C   0  0  0  0  0  0  0  0  0  0  0  0
    1.0491   -6.8434    2.9820 C   0  0  0  0  0  0  0  0  0  0  0  0
    0.0950   -8.8404    3.2292 C   0  0  0  0  0  0  0  0  0  0  0  0
   -0.9173   -8.4596    2.5152 C   0  0  0  0  0  0  0  0  0  0  0  0
   -1.0331   -7.2162    2.0653 C   0  0  0  0  0  0  0  0  0  0  0  0
   -0.0105   -6.3168    2.3081 C   0  0  0  0  0  0  0  0  0  0  0  0
    0.1150   -4.9910    1.8495 C   0  0  0  0  0  0  0  0  0  0  0  0
   -0.5774   -4.1593    2.0596 O   0  0  0  0  0  0  0  0  0  0  0  0
    1.1226   -4.6805    0.9513 O   0  0  0  0  0  0  0  0  0  0  0  0
    0.1816  -10.2865    3.6380 C   0  0  2  0  0  0  0  0  0  0  0  0
    1.2274  -10.8816    4.1088 C   0  0  0  0  0  0  0  0  0  0  0  0
    1.1296  -12.2707    4.4088 N   0  0  0  0  0  0  0  0  0  0  0  0
    0.1622  -12.8137    3.8135 C   0  0  0  0  0  0  0  0  0  0  0  0
   -0.7533  -12.3832    3.1962 N   0  0  0  0  0  0  0  0  0  0  0  0
   -0.8593  -11.0322    3.1306 C   0  0  0  0  0  0  0  0  0  0  0  0
    0.3003  -14.2735    3.9724 N   0  0  0  0  0  0  0  0  0  0  0  0
   -1.9010  -13.2521    2.8403 C   0  0  0  0  0  0  0  0  0  0  0  0
   -1.6460  -13.9053    1.7262 C   0  0  0  0  0  0  0  0  0  0  0  0
  6  7  1  0
  7  8  2  0
  7  9  1  0
 10  3  1  6
 11 12  1  0
 13 14  1  0
 10 15  1  0
 14 15  1  0
 13 16  1  0
 14 17  1  0
 17 18  1  0
 12 13  1  0
 10 11  1  0
  1  2  2  0
  2  6  1  0
  5  6  2  0
  4  5  1  0
  3  4  2  0
  1  3  1  0
M  END

$$$$
No_1677-/export/home/yangzhenyu/potential_scad_32_flow//YTHDC2/2024-12-06-03-22-00/
     RDKit          3D

 21 22  0  0  0  0  0  0  0  0999 V2000
    1.1787   -8.0297    3.5154 C   0  0  0  0  0  0  0  0  0  0  0  0
    1.1048   -9.2215    3.2892 C   0  0  0  0  0  0  0  0  0  0  0  0
    1.2339   -9.7611    2.0189 C   0  0  0  0  0  0  0  0  0  0  0  0
    1.3583   -9.0036    0.9764 C   0  0  0  0  0  0  0  0  0  0  0  0
    1.5996   -7.6362    1.1311 C   0  0  0  0  0  0  0  0  0  0  0  0
    1.4830   -7.0928    2.3626 C   0  0  0  0  0  0  0  0  0  0  0  0
    1.1008  -11.2372    1.8542 C   0  0  0  0  0  0  0  0  0  0  0  0
    1.9749  -12.0938    2.2342 C   0  0  0  0  0  0  0  0  0  0  0  0
    1.7533  -13.4231    1.8956 C   0  0  0  0  0  0  0  0  0  0  0  0
    0.8624  -13.8318    1.1071 C   0  0  0  0  0  0  0  0  0  0  0  0
   -0.0624  -12.9093    0.5581 C   0  0  0  0  0  0  0  0  0  0  0  0
    0.1157  -11.5285    0.9404 C   0  0  0  0  0  0  0  0  0  0  0  0
    1.5561   -5.6354    2.6426 O   0  0  0  0  0  0  0  0  0  0  0  0
   -0.8103  -10.6494    0.4373 C   0  0  0  0  0  0  0  0  0  0  0  0
   -0.8706  -10.3007   -0.8675 O   0  0  0  0  0  0  0  0  0  0  0  0
   -2.0381  -10.4047    1.1218 N   0  0  0  0  0  0  0  0  0  0  0  0
   -2.9956   -9.4672    0.7911 C   0  0  0  0  0  0  0  0  0  0  0  0
   -2.7304   -8.1179    1.2353 C   0  0  0  0  0  0  0  0  0  0  0  0
   -2.1701   -7.1112    0.4538 C   0  0  0  0  0  0  0  0  0  0  0  0
   -2.6893   -6.0553    0.2369 C   0  0  0  0  0  0  0  0  0  0  0  0
   -3.5987   -5.5563    1.1747 C   0  0  0  0  0  0  0  0  0  0  0  0
  3  7  1  0
  6 13  1  0
 12 14  1  0
 14 15  2  0
 14 16  1  0
 16 17  1  0
 17 18  1  0
 18 19  1  0
 19 20  2  3
 20 21  1  0
  1  2  2  0
  2  3  1  0
  3  4  2  0
  4  5  1  0
  5  6  2  0
  1  6  1  0
  7  8  2  0
  8  9  1  0
  9 10  2  0
 10 11  1  0
 11 12  2  0
  7 12  1  0
M  END

$$$$
No_1678-/export/home/yangzhenyu/potential_scad_32_flow//YTHDC2/2024-12-06-03-22-00/
     RDKit          3D

 18 19  0  0  0  0  0  0  0  0999 V2000
    1.1787   -8.0297    3.5154 C   0  0  0  0  0  0  0  0  0  0  0  0
    1.0491   -6.8434    2.9820 C   0  0  0  0  0  0  0  0  0  0  0  0
    0.0950   -8.8404    3.2292 C   0  0  0  0  0  0  0  0  0  0  0  0
   -0.9173   -8.4596    2.5152 N   0  0  0  0  0  0  0  0  0  0  0  0
    0.0964   -6.3159    2.2693 C   0  0  0  0  0  0  0  0  0  0  0  0
   -0.9550   -7.1629    2.1000 C   0  0  0  0  0  0  0  0  0  0  0  0
    0.1016  -10.2358    3.6719 C   0  0  0  0  0  0  0  0  0  0  0  0
    1.1657  -10.8476    4.0233 C   0  0  0  0  0  0  0  0  0  0  0  0
    0.9937  -12.2933    4.3491 C   0  0  0  0  0  0  0  0  0  0  0  0
   -0.1218  -12.7964    3.8435 C   0  0  0  0  0  0  0  0  0  0  0  0
   -0.8739  -11.4983    3.2570 C   0  0  0  0  0  0  0  0  0  0  0  0
    0.0526   -4.9529    1.8789 C   0  0  0  0  0  0  0  0  0  0  0  0
   -0.6533   -4.1254    2.2255 C   0  0  0  0  0  0  0  0  0  0  0  0
   -0.6079   -2.7246    1.7584 C   0  0  0  0  0  0  0  0  0  0  0  0
   -2.1394   -6.8612    1.5141 C   0  0  0  0  0  0  0  0  0  0  0  0
   -2.3441   -6.8194    0.1649 C   0  0  0  0  0  0  0  0  0  0  0  0
   -3.1540   -6.1777   -0.5193 C   0  0  0  0  0  0  0  0  0  0  0  0
   -3.9306   -5.5051   -0.0255 C   0  0  0  0  0  0  0  0  0  0  0  0
  3  7  1  0
  7  8  2  0
  8  9  1  0
  9 10  2  0
  7 11  1  0
 10 11  1  0
  5 12  1  0
 12 13  2  3
 13 14  1  0
  6 15  1  0
 15 16  1  0
 16 17  1  0
 17 18  2  0
  1  2  2  0
  2  5  1  0
  5  6  2  0
  4  6  1  0
  3  4  2  0
  1  3  1  0
M  END

$$$$
No_1679-/export/home/yangzhenyu/potential_scad_32_flow//YTHDC2/2024-12-06-03-22-00/
     RDKit          3D

 18 18  0  0  1  0  0  0  0  0999 V2000
    1.1787   -8.0297    3.5154 O   0  0  0  0  0  0  0  0  0  0  0  0
    0.6747   -7.4019    2.7838 C   0  0  0  0  0  0  0  0  0  0  0  0
    0.7594   -8.0032    1.4295 C   0  0  0  0  0  0  0  0  0  0  0  0
    0.3459   -9.1500    1.3581 C   0  0  1  0  0  0  0  0  0  0  0  0
    0.9461   -9.9230    0.3350 C   0  0  0  0  0  0  0  0  0  0  0  0
    1.6883   -9.1548   -0.6694 O   0  0  0  0  0  0  0  0  0  0  0  0
    0.3031  -10.9170   -0.2473 O   0  0  0  0  0  0  0  0  0  0  0  0
    0.4353   -6.2317    3.0940 O   0  0  0  0  0  0  0  0  0  0  0  0
   -0.3739   -9.7860    2.1899 C   0  0  2  0  0  0  0  0  0  0  0  0
   -1.6850   -9.6240    2.3788 C   0  0  0  0  0  0  0  0  0  0  0  0
   -2.1744   -9.6839    3.7073 C   0  0  0  0  0  0  0  0  0  0  0  0
   -1.3743  -10.5124    4.4894 C   0  0  0  0  0  0  0  0  0  0  0  0
   -0.0120  -10.7385    3.7553 C   0  0  2  0  0  0  0  0  0  0  0  0
    1.0525  -11.2701    4.0216 C   0  0  0  0  0  0  0  0  0  0  0  0
    1.6534  -12.0444    3.7133 C   0  0  0  0  0  0  0  0  0  0  0  0
    1.1390  -12.6424    2.3815 C   0  0  0  0  0  0  0  0  0  0  0  0
    1.8919  -13.8679    1.7963 C   0  0  0  0  0  0  0  0  0  0  0  0
    1.4512  -14.8222    1.8710 C   0  0  0  0  0  0  0  0  0  0  0  0
  1  2  1  0
  2  3  1  0
  4  3  1  1
  4  5  1  0
  5  6  1  0
  5  7  2  0
  2  8  2  0
  4  9  1  0
  9 10  1  1
 10 11  2  0
 11 12  1  0
  9 13  1  0
 13 12  1  1
 13 14  1  0
 14 15  2  3
 15 16  1  0
 16 17  1  0
 17 18  2  0
M  END

$$$$
No_1680-/export/home/yangzhenyu/potential_scad_32_flow//YTHDC2/2024-12-06-03-22-00/
     RDKit          3D

 19 21  0  0  0  0  0  0  0  0999 V2000
    1.1787   -8.0297    3.5154 C   0  0  0  0  0  0  0  0  0  0  0  0
    1.0491   -6.8434    2.9820 C   0  0  0  0  0  0  0  0  0  0  0  0
    0.0950   -8.8404    3.2292 C   0  0  0  0  0  0  0  0  0  0  0  0
   -0.9173   -8.4596    2.5152 C   0  0  0  0  0  0  0  0  0  0  0  0
   -1.0331   -7.2162    2.0653 C   0  0  0  0  0  0  0  0  0  0  0  0
   -0.0105   -6.3168    2.3081 C   0  0  0  0  0  0  0  0  0  0  0  0
    0.1935  -10.3737    3.7416 C   0  0  0  0  0  0  0  0  0  0  0  0
    1.2407  -10.8901    4.0986 C   0  0  0  0  0  0  0  0  0  0  0  0
    1.1186  -12.3145    4.4006 C   0  0  0  0  0  0  0  0  0  0  0  0
    0.1013  -12.9075    3.8532 C   0  0  0  0  0  0  0  0  0  0  0  0
    0.1817  -14.4134    3.9035 C   0  0  0  0  0  0  0  0  0  0  0  0
    0.3068  -15.1349    2.8066 C   0  0  0  0  0  0  0  0  0  0  0  0
    0.5485  -14.3691    1.5788 C   0  0  0  0  0  0  0  0  0  0  0  0
    0.2380  -12.9772    1.5290 C   0  0  0  0  0  0  0  0  0  0  0  0
    0.0943  -12.2707    2.6439 C   0  0  0  0  0  0  0  0  0  0  0  0
   -0.6124  -11.2173    2.8607 N   0  0  0  0  0  0  0  0  0  0  0  0
   -0.1705   -5.0404    1.8247 O   0  0  0  0  0  0  0  0  0  0  0  0
    0.7713   -4.0695    2.2617 C   0  0  0  0  0  0  0  0  0  0  0  0
    0.6412  -16.7179    2.8002 O   0  0  0  0  0  0  0  0  0  0  0  0
  3  7  1  0
  6 17  1  0
 17 18  1  0
 12 19  1  0
  7  8  2  0
  8  9  1  0
  9 10  2  0
 15 16  2  0
  7 16  1  0
  1  2  2  0
  2  6  1  0
  5  6  2  0
  4  5  1  0
  3  4  2  0
  1  3  1  0
 10 11  1  0
 11 12  2  0
 12 13  1  0
 13 14  2  0
 14 15  1  0
 10 15  1  0
M  END

$$$$
No_1681-/export/home/yangzhenyu/potential_scad_32_flow//YTHDC2/2024-12-06-03-22-00/
     RDKit          3D

 17 17  0  0  0  0  0  0  0  0999 V2000
    1.1787   -8.0297    3.5154 C   0  0  0  0  0  0  0  0  0  0  0  0
    1.0491   -6.8434    2.9820 C   0  0  0  0  0  0  0  0  0  0  0  0
    1.9985   -8.9840    2.8958 C   0  0  0  0  0  0  0  0  0  0  0  0
    1.9135  -10.3404    3.6266 C   0  0  0  0  0  0  0  0  0  0  0  0
    1.3291  -11.3908    3.0222 C   0  0  0  0  0  0  0  0  0  0  0  0
    1.2749  -12.5326    3.7562 C   0  0  0  0  0  0  0  0  0  0  0  0
    0.4248   -6.6481    1.7861 C   0  0  0  0  0  0  0  0  0  0  0  0
    0.3130   -5.3457    1.3131 O   0  0  0  0  0  0  0  0  0  0  0  0
    0.1665   -7.5538    1.0002 O   0  0  0  0  0  0  0  0  0  0  0  0
    0.7627  -13.6838    3.1407 C   0  0  0  0  0  0  0  0  0  0  0  0
    0.4379  -13.6859    1.8707 C   0  0  0  0  0  0  0  0  0  0  0  0
    0.5663  -12.6279    1.0920 C   0  0  0  0  0  0  0  0  0  0  0  0
    1.0886  -11.4620    1.5983 C   0  0  0  0  0  0  0  0  0  0  0  0
    1.1424  -10.3962    0.7553 C   0  0  0  0  0  0  0  0  0  0  0  0
    2.3641   -9.8010    0.4720 O   0  0  0  0  0  0  0  0  0  0  0  0
    0.0895   -9.9212    0.0499 O   0  0  0  0  0  0  0  0  0  0  0  0
    0.6273  -14.8734    3.9040 O   0  0  0  0  0  0  0  0  0  0  0  0
  1  2  1  0
  1  3  1  0
  3  4  1  0
  4  5  1  0
  2  7  1  0
  7  8  2  0
  7  9  1  0
 13 14  1  0
 14 15  2  0
 14 16  1  0
 10 17  1  0
  5  6  2  0
  6 10  1  0
 10 11  2  0
 11 12  1  0
 12 13  2  0
  5 13  1  0
M  END

$$$$
No_1682-/export/home/yangzhenyu/potential_scad_32_flow//YTHDC2/2024-12-06-03-22-00/
     RDKit          3D

 18 19  0  0  0  0  0  0  0  0999 V2000
    1.1787   -8.0297    3.5154 C   0  0  0  0  0  0  0  0  0  0  0  0
    1.0491   -6.8434    2.9820 C   0  0  0  0  0  0  0  0  0  0  0  0
    0.9905   -9.0774    2.6527 C   0  0  0  0  0  0  0  0  0  0  0  0
    0.7897   -8.9519    1.3691 C   0  0  0  0  0  0  0  0  0  0  0  0
    0.7018   -7.7198    0.7892 C   0  0  0  0  0  0  0  0  0  0  0  0
    0.8918   -6.5957    1.6117 C   0  0  0  0  0  0  0  0  0  0  0  0
    1.0998  -10.4710    3.2437 C   0  0  0  0  0  0  0  0  0  0  0  0
    0.0472  -11.2546    3.3963 C   0  0  0  0  0  0  0  0  0  0  0  0
   -0.3712  -11.7969    2.5371 C   0  0  0  0  0  0  0  0  0  0  0  0
    0.5261  -12.4782    1.6616 C   0  0  0  0  0  0  0  0  0  0  0  0
    1.8059  -11.8186    1.4781 C   0  0  0  0  0  0  0  0  0  0  0  0
    2.0775  -10.8941    2.3564 C   0  0  0  0  0  0  0  0  0  0  0  0
    0.7068   -5.2653    1.2981 C   0  0  0  0  0  0  0  0  0  0  0  0
    0.3460  -13.7133    1.0119 C   0  0  0  0  0  0  0  0  0  0  0  0
    1.5102   -4.2716    1.7693 C   0  0  0  0  0  0  0  0  0  0  0  0
    1.3149   -2.8910    1.5339 C   0  0  0  0  0  0  0  0  0  0  0  0
    1.2042  -14.5889    0.8638 P   0  0  0  0  0  0  0  0  0  0  0  0
    1.1112  -15.6584   -0.1542 O   0  0  0  0  0  0  0  0  0  0  0  0
  3  7  1  0
  6 13  1  0
 10 14  1  0
 13 15  2  3
 15 16  1  0
 14 17  1  0
 17 18  2  0
  1  2  2  0
  2  6  1  0
  5  6  2  0
  4  5  1  0
  3  4  2  0
  1  3  1  0
  7  8  2  0
  8  9  1  0
  9 10  2  0
 10 11  1  0
 11 12  2  0
  7 12  1  0
M  END

$$$$
No_1683-/export/home/yangzhenyu/potential_scad_32_flow//YTHDC2/2024-12-06-03-22-00/
     RDKit          3D

 18 20  0  0  0  0  0  0  0  0999 V2000
    1.1787   -8.0297    3.5154 C   0  0  0  0  0  0  0  0  0  0  0  0
    1.0491   -6.8434    2.9820 C   0  0  0  0  0  0  0  0  0  0  0  0
    0.0950   -8.8404    3.2292 C   0  0  0  0  0  0  0  0  0  0  0  0
   -0.9173   -8.4596    2.5152 C   0  0  0  0  0  0  0  0  0  0  0  0
   -1.0331   -7.2162    2.0653 C   0  0  0  0  0  0  0  0  0  0  0  0
   -0.0105   -6.3168    2.3081 C   0  0  0  0  0  0  0  0  0  0  0  0
    0.0485   -4.9783    1.8782 C   0  0  0  0  0  0  0  0  0  0  0  0
    0.9625   -4.1072    2.3252 C   0  0  0  0  0  0  0  0  0  0  0  0
    0.1722  -10.4518    3.7515 C   0  0  0  0  0  0  0  0  0  0  0  0
   -1.0084  -11.1101    3.5938 C   0  0  0  0  0  0  0  0  0  0  0  0
    1.2718  -10.8097    4.4859 N   0  0  0  0  0  0  0  0  0  0  0  0
    1.2343  -12.1607    4.4401 N   0  0  0  0  0  0  0  0  0  0  0  0
   -0.8350  -12.4369    3.7747 C   0  0  0  0  0  0  0  0  0  0  0  0
    0.3393  -12.9640    4.1468 C   0  0  0  0  0  0  0  0  0  0  0  0
   -0.3121   -4.6879    0.4983 C   0  0  0  0  0  0  0  0  0  0  0  0
   -0.4155   -3.4462    0.1050 C   0  0  0  0  0  0  0  0  0  0  0  0
    0.4472   -2.4781    0.7406 C   0  0  0  0  0  0  0  0  0  0  0  0
    1.1112   -2.8215    1.8710 C   0  0  0  0  0  0  0  0  0  0  0  0
  6  7  1  0
  3  9  1  0
  9 10  2  0
 10 13  1  0
 13 14  2  0
 12 14  1  0
 11 12  2  0
  9 11  1  0
  1  2  2  0
  2  6  1  0
  5  6  2  0
  4  5  1  0
  3  4  2  0
  1  3  1  0
  7  8  2  0
  8 18  1  0
 17 18  2  0
 16 17  1  0
 15 16  2  0
  7 15  1  0
M  END

$$$$
No_1684-/export/home/yangzhenyu/potential_scad_32_flow//YTHDC2/2024-12-06-03-22-00/
     RDKit          3D

 20 22  0  0  1  0  0  0  0  0999 V2000
    1.1787   -8.0297    3.5154 C   0  0  0  0  0  0  0  0  0  0  0  0
    1.0491   -6.8434    2.9820 O   0  0  0  0  0  0  0  0  0  0  0  0
   -0.0075   -8.7761    3.2545 C   0  0  1  0  0  0  0  0  0  0  0  0
   -0.0511   -9.9415    3.9309 C   0  0  0  0  0  0  0  0  0  0  0  0
   -0.1503  -10.9876    3.2702 C   0  0  0  0  0  0  0  0  0  0  0  0
   -1.3054  -11.2450    2.5713 C   0  0  0  0  0  0  0  0  0  0  0  0
   -1.5323  -12.5391    2.0119 C   0  0  0  0  0  0  0  0  0  0  0  0
   -2.6565  -12.8568    1.3850 C   0  0  0  0  0  0  0  0  0  0  0  0
   -3.6500  -11.8956    1.1898 C   0  0  0  0  0  0  0  0  0  0  0  0
   -3.5017  -10.6644    1.7522 C   0  0  0  0  0  0  0  0  0  0  0  0
   -2.3438  -10.3069    2.4894 C   0  0  0  0  0  0  0  0  0  0  0  0
    0.1734   -6.2082    2.6965 C   0  0  2  0  0  0  0  0  0  0  0  0
   -1.0742   -6.9762    2.5790 C   0  0  0  0  0  0  0  0  0  0  0  0
   -1.1739   -8.2217    2.9776 C   0  0  0  0  0  0  0  0  0  0  0  0
    0.3771   -4.8708    2.2943 C   0  0  0  0  0  0  0  0  0  0  0  0
   -0.1639   -4.4992    1.0652 C   0  0  0  0  0  0  0  0  0  0  0  0
   -0.3891   -3.1171    0.8428 C   0  0  0  0  0  0  0  0  0  0  0  0
    0.2572   -2.1470    1.6394 C   0  0  0  0  0  0  0  0  0  0  0  0
    0.9076   -2.5203    2.7577 C   0  0  0  0  0  0  0  0  0  0  0  0
    0.9391   -3.8825    3.1021 C   0  0  0  0  0  0  0  0  0  0  0  0
  1  2  1  0
  1  3  1  0
  3  4  1  1
  4  5  1  0
  5  6  1  0
  2 12  1  0
 12 13  1  0
  3 14  1  0
 13 14  1  0
 12 15  1  6
 15 16  2  0
 16 17  1  0
 17 18  2  0
 18 19  1  0
 19 20  2  0
 15 20  1  0
  6  7  2  0
  7  8  1  0
  8  9  2  0
  9 10  1  0
 10 11  2  0
  6 11  1  0
M  END

$$$$
No_1685-/export/home/yangzhenyu/potential_scad_32_flow//YTHDC2/2024-12-06-03-22-00/
     RDKit          3D

 19 19  0  0  1  0  0  0  0  0999 V2000
    1.1787   -8.0297    3.5154 C   0  0  0  0  0  0  0  0  0  0  0  0
    1.0491   -6.8434    2.9820 C   0  0  0  0  0  0  0  0  0  0  0  0
    1.9985   -8.9840    2.8958 C   0  0  0  0  0  0  0  0  0  0  0  0
    1.9135  -10.3404    3.6266 C   0  0  0  0  0  0  0  0  0  0  0  0
    0.7479  -10.9191    3.7202 C   0  0  0  0  0  0  0  0  0  0  0  0
    0.2782   -6.7158    1.8352 C   0  0  1  0  0  0  0  0  0  0  0  0
    0.1051   -7.5857    1.1024 C   0  0  0  0  0  0  0  0  0  0  0  0
    0.8510  -12.3447    3.6259 C   0  0  0  0  0  0  0  0  0  0  0  0
    1.0173  -12.8735    2.4032 C   0  0  2  0  0  0  0  0  0  0  0  0
    0.8722  -12.2833    1.3790 C   0  0  0  0  0  0  0  0  0  0  0  0
    1.7241  -11.4684    0.8747 C   0  0  0  0  0  0  0  0  0  0  0  0
    1.4416  -10.4032    0.0367 C   0  0  0  0  0  0  0  0  0  0  0  0
   -0.7913   -8.0329    0.1689 C   0  0  0  0  0  0  0  0  0  0  0  0
   -0.5284   -9.2269   -0.7347 C   0  0  0  0  0  0  0  0  0  0  0  0
    0.6445   -9.7674   -0.4084 C   0  0  0  0  0  0  0  0  0  0  0  0
    1.2727  -14.2914    2.5139 C   0  0  0  0  0  0  0  0  0  0  0  0
   -0.3798   -5.5713    1.8182 C   0  0  0  0  0  0  0  0  0  0  0  0
    2.2392  -14.9448    1.7855 O   0  0  0  0  0  0  0  0  0  0  0  0
    0.5834  -15.1701    3.3441 O   0  0  0  0  0  0  0  0  0  0  0  0
  1  2  1  0
  1  3  1  0
  3  4  1  0
  4  5  1  0
  2  6  1  0
  6  7  1  0
  5  8  1  0
  8  9  1  0
  9 10  1  0
 10 11  1  0
 11 12  2  3
  7 13  1  0
 13 14  2  3
 12 15  1  0
 14 15  1  0
  9 16  1  6
  6 17  1  1
 16 18  2  0
 16 19  1  0
M  END

$$$$
No_1686-/export/home/yangzhenyu/potential_scad_32_flow//YTHDC2/2024-12-06-03-22-00/
     RDKit          3D

 19 20  0  0  1  0  0  0  0  0999 V2000
    1.1787   -8.0297    3.5154 C   0  0  0  0  0  0  0  0  0  0  0  0
    1.1048   -9.2215    3.2892 C   0  0  0  0  0  0  0  0  0  0  0  0
    1.2339   -9.7611    2.0189 C   0  0  0  0  0  0  0  0  0  0  0  0
    1.3583   -9.0036    0.9764 C   0  0  0  0  0  0  0  0  0  0  0  0
    1.5996   -7.6362    1.1311 C   0  0  0  0  0  0  0  0  0  0  0  0
    1.4830   -7.0928    2.3626 C   0  0  0  0  0  0  0  0  0  0  0  0
    1.4898   -5.7274    2.6199 C   0  0  0  0  0  0  0  0  0  0  0  0
    1.1882  -11.3736    1.8424 C   0  0  0  0  0  0  0  0  0  0  0  0
    1.0670  -11.6643    0.5390 C   0  0  0  0  0  0  0  0  0  0  0  0
   -0.0229  -12.5280    0.3409 C   0  0  2  0  0  0  0  0  0  0  0  0
    0.1793  -13.9748    0.6708 C   0  0  0  0  0  0  0  0  0  0  0  0
    1.7017   -5.1738    3.8733 S   0  0  0  0  0  0  0  0  0  0  0  0
    1.6353   -4.8711    1.4372 O   0  0  0  0  0  0  0  0  0  0  0  0
    1.3664  -14.2650    1.1485 C   0  0  0  0  0  0  0  0  0  0  0  0
    1.4169  -15.3294    2.0539 C   0  0  0  0  0  0  0  0  0  0  0  0
    0.3453  -16.1460    2.1310 C   0  0  0  0  0  0  0  0  0  0  0  0
   -0.8268  -15.8301    1.5815 C   0  0  0  0  0  0  0  0  0  0  0  0
   -0.9305  -14.7543    0.8036 C   0  0  0  0  0  0  0  0  0  0  0  0
   -1.0610  -12.1853   -0.4350 C   0  0  0  0  0  0  0  0  0  0  0  0
  6  7  1  0
  3  8  1  0
  8  9  1  0
  9 10  1  0
 10 11  1  0
  7 12  1  0
  7 13  2  0
 10 19  1  6
  1  2  2  0
  2  3  1  0
  3  4  2  0
  4  5  1  0
  5  6  2  0
  1  6  1  0
 11 14  2  0
 14 15  1  0
 15 16  2  0
 16 17  1  0
 17 18  2  0
 11 18  1  0
M  END

$$$$
No_1687-/export/home/yangzhenyu/potential_scad_32_flow//YTHDC2/2024-12-06-03-22-00/
     RDKit          3D

 18 18  0  0  0  0  0  0  0  0999 V2000
    1.1787   -8.0297    3.5154 C   0  0  0  0  0  0  0  0  0  0  0  0
    1.1048   -9.2215    3.2892 C   0  0  0  0  0  0  0  0  0  0  0  0
    1.2339   -9.7611    2.0189 C   0  0  0  0  0  0  0  0  0  0  0  0
    1.3583   -9.0036    0.9764 C   0  0  0  0  0  0  0  0  0  0  0  0
    1.7077   -9.6100   -0.3010 C   0  0  0  0  0  0  0  0  0  0  0  0
    1.3637   -7.1087    2.3226 C   0  0  0  0  0  0  0  0  0  0  0  0
    1.4257   -7.6645    1.0231 C   0  0  0  0  0  0  0  0  0  0  0  0
    1.6722  -10.7840   -0.4044 O   0  0  0  0  0  0  0  0  0  0  0  0
    1.2337   -8.9275   -1.4153 O   0  0  0  0  0  0  0  0  0  0  0  0
    1.1535  -10.3170    4.5776 Cl  0  0  0  0  0  0  0  0  0  0  0  0
    1.3197   -5.6013    2.5638 Cl  0  0  0  0  0  0  0  0  0  0  0  0
    1.3330  -11.1755    1.9431 O   0  0  0  0  0  0  0  0  0  0  0  0
    0.2160  -11.7832    1.6313 C   0  0  0  0  0  0  0  0  0  0  0  0
    0.3923  -13.2810    1.4012 C   0  0  0  0  0  0  0  0  0  0  0  0
    1.5710  -13.6819    1.9531 C   0  0  0  0  0  0  0  0  0  0  0  0
    1.6967  -15.1389    2.1444 C   0  0  0  0  0  0  0  0  0  0  0  0
    0.7372  -15.9592    1.7115 C   0  0  0  0  0  0  0  0  0  0  0  0
   -0.4154  -15.4573    1.2319 C   0  0  0  0  0  0  0  0  0  0  0  0
  4  5  1  0
  5  8  2  0
  5  9  1  0
  2 10  1  0
  6 11  1  0
  3 12  1  0
 12 13  1  0
 13 14  1  0
 14 15  1  0
 15 16  2  3
 16 17  1  0
 17 18  2  0
  1  2  2  0
  2  3  1  0
  3  4  2  0
  4  7  1  0
  6  7  2  0
  1  6  1  0
M  END

$$$$
No_1688-/export/home/yangzhenyu/potential_scad_32_flow//YTHDC2/2024-12-06-03-22-00/
     RDKit          3D

 18 18  0  0  1  0  0  0  0  0999 V2000
    1.1787   -8.0297    3.5154 C   0  0  0  0  0  0  0  0  0  0  0  0
    1.0491   -6.8434    2.9820 C   0  0  0  0  0  0  0  0  0  0  0  0
    0.9905   -9.0774    2.6527 C   0  0  0  0  0  0  0  0  0  0  0  0
    0.7897   -8.9519    1.3691 C   0  0  0  0  0  0  0  0  0  0  0  0
    0.6550  -10.0985    0.4848 C   0  0  1  0  0  0  0  0  0  0  0  0
    0.7849   -6.5836    1.6043 C   0  0  0  0  0  0  0  0  0  0  0  0
    0.6652   -7.6671    0.8008 C   0  0  0  0  0  0  0  0  0  0  0  0
    0.0083   -9.7878   -0.7706 C   0  0  0  0  0  0  0  0  0  0  0  0
    0.3923   -8.7026   -1.6050 O   0  0  0  0  0  0  0  0  0  0  0  0
   -0.9751  -10.4269   -1.2170 O   0  0  0  0  0  0  0  0  0  0  0  0
    1.2615  -10.6203    3.2453 O   0  0  0  0  0  0  0  0  0  0  0  0
    0.2433  -11.3477    3.6276 C   0  0  0  0  0  0  0  0  0  0  0  0
    0.7072   -5.2436    1.1425 O   0  0  0  0  0  0  0  0  0  0  0  0
    1.0641  -11.2744    0.6056 C   0  0  0  0  0  0  0  0  0  0  0  0
    0.5235  -12.6036    3.7110 C   0  0  0  0  0  0  0  0  0  0  0  0
   -0.1099  -13.5441    2.9159 C   0  0  0  0  0  0  0  0  0  0  0  0
    0.5384  -14.8760    2.8101 C   0  0  0  0  0  0  0  0  0  0  0  0
    1.0681  -15.2344    1.8896 C   0  0  0  0  0  0  0  0  0  0  0  0
  4  5  1  0
  5  8  1  0
  8  9  2  0
  8 10  1  0
  3 11  1  0
 11 12  1  0
  6 13  1  0
  5 14  1  6
 12 15  1  0
 15 16  2  3
 16 17  1  0
 17 18  2  0
  1  2  2  0
  2  6  1  0
  6  7  2  0
  4  7  1  0
  3  4  2  0
  1  3  1  0
M  END

$$$$
No_1689-/export/home/yangzhenyu/potential_scad_32_flow//YTHDC2/2024-12-06-03-22-00/
     RDKit          3D

 19 20  0  0  1  0  0  0  0  0999 V2000
    1.1787   -8.0297    3.5154 C   0  0  0  0  0  0  0  0  0  0  0  0
    1.1048   -9.2215    3.2892 C   0  0  0  0  0  0  0  0  0  0  0  0
    1.2339   -9.7611    2.0189 C   0  0  0  0  0  0  0  0  0  0  0  0
    1.3583   -9.0036    0.9764 C   0  0  0  0  0  0  0  0  0  0  0  0
    1.5996   -7.6362    1.1311 C   0  0  0  0  0  0  0  0  0  0  0  0
    1.4830   -7.0928    2.3626 C   0  0  0  0  0  0  0  0  0  0  0  0
    1.5395   -5.7300    2.6182 C   0  0  0  0  0  0  0  0  0  0  0  0
    1.1775  -11.2233    1.8407 C   0  0  0  0  0  0  0  0  0  0  0  0
    1.9057  -12.1147    2.3397 C   0  0  0  0  0  0  0  0  0  0  0  0
    1.6867  -13.4551    2.0621 C   0  0  2  0  0  0  0  0  0  0  0  0
    0.7025  -13.8511    1.3021 C   0  0  0  0  0  0  0  0  0  0  0  0
   -0.1111  -12.9140    0.6527 C   0  0  0  0  0  0  0  0  0  0  0  0
    0.1535  -11.5434    0.9240 C   0  0  0  0  0  0  0  0  0  0  0  0
    1.6688   -5.1779    3.8866 N   0  0  0  0  0  0  0  0  0  0  0  0
    1.6936   -4.8541    1.5695 O   0  0  0  0  0  0  0  0  0  0  0  0
    2.5136  -14.4243    2.7653 Cl  0  0  0  0  0  0  0  0  0  0  0  0
   -0.7656  -10.6944    0.4308 O   0  0  0  0  0  0  0  0  0  0  0  0
    1.6090   -9.4040   -0.3662 C   0  0  0  0  0  0  0  0  0  0  0  0
    0.8359   -9.0276   -1.2253 O   0  0  0  0  0  0  0  0  0  0  0  0
  6  7  1  0
  3  8  1  0
  8  9  1  0
 10 11  1  0
  8 13  1  0
 12 13  1  0
  7 14  1  0
  7 15  2  0
 10 16  1  1
 13 17  2  0
  4 18  1  0
 18 19  2  0
  9 10  1  0
 11 12  1  0
  1  2  2  0
  2  3  1  0
  3  4  2  0
  4  5  1  0
  5  6  2  0
  1  6  1  0
M  END

$$$$
No_1690-/export/home/yangzhenyu/potential_scad_32_flow//YTHDC2/2024-12-06-03-22-00/
     RDKit          3D

 19 19  0  0  1  0  0  0  0  0999 V2000
    1.1787   -8.0297    3.5154 C   0  0  0  0  0  0  0  0  0  0  0  0
    1.1048   -9.2215    3.2892 C   0  0  0  0  0  0  0  0  0  0  0  0
    1.2339   -9.7611    2.0189 C   0  0  0  0  0  0  0  0  0  0  0  0
    1.3583   -9.0036    0.9764 C   0  0  0  0  0  0  0  0  0  0  0  0
    1.5996   -7.6362    1.1311 C   0  0  0  0  0  0  0  0  0  0  0  0
    1.4830   -7.0928    2.3626 C   0  0  0  0  0  0  0  0  0  0  0  0
    1.1008  -11.2372    1.8542 C   0  0  1  0  0  0  0  0  0  0  0  0
    0.4812  -11.6084    0.6459 N   0  0  0  0  0  0  0  0  0  0  0  0
    1.6468  -12.0654    2.6210 C   0  0  0  0  0  0  0  0  0  0  0  0
    2.1305  -11.9348    3.7196 C   0  0  0  0  0  0  0  0  0  0  0  0
    1.4801  -13.4825    2.0916 C   0  0  0  0  0  0  0  0  0  0  0  0
    1.9439  -14.5220    2.9346 N   0  0  0  0  0  0  0  0  0  0  0  0
    1.8305  -15.8181    2.5701 C   0  0  0  0  0  0  0  0  0  0  0  0
    3.0539  -16.3658    2.1868 O   0  0  0  0  0  0  0  0  0  0  0  0
    0.7616  -16.5748    2.6734 O   0  0  0  0  0  0  0  0  0  0  0  0
    1.5149   -5.4671    2.7145 Cl  0  0  0  0  0  0  0  0  0  0  0  0
   -0.8245  -11.6695    0.5027 S   0  0  0  0  0  0  0  0  0  0  0  0
   -1.6440  -11.2758    1.4226 O   0  0  0  0  0  0  0  0  0  0  0  0
   -1.3136  -10.8455   -0.7853 C   0  0  0  0  0  0  0  0  0  0  0  0
  3  7  1  0
  7  8  1  6
  7  9  1  0
  9 10  2  0
  9 11  1  0
 11 12  1  0
 12 13  1  0
 13 14  2  0
 13 15  1  0
  6 16  1  0
  8 17  1  0
 17 18  2  0
 17 19  1  6
  1  2  2  0
  2  3  1  0
  3  4  2  0
  4  5  1  0
  5  6  2  0
  1  6  1  0
M  END

$$$$
No_1691-/export/home/yangzhenyu/potential_scad_32_flow//YTHDC2/2024-12-06-03-22-00/
     RDKit          3D

 19 20  0  0  1  0  0  0  0  0999 V2000
    1.1787   -8.0297    3.5154 C   0  0  0  0  0  0  0  0  0  0  0  0
    1.1048   -9.2215    3.2892 C   0  0  0  0  0  0  0  0  0  0  0  0
    1.2339   -9.7611    2.0189 C   0  0  0  0  0  0  0  0  0  0  0  0
    1.1954  -11.2312    1.8661 C   0  0  2  0  0  0  0  0  0  0  0  0
    1.2996  -11.5815    0.5387 C   0  0  0  0  0  0  0  0  0  0  0  0
    1.3263   -7.1208    2.3229 C   0  0  0  0  0  0  0  0  0  0  0  0
    1.3693   -7.6408    1.0625 C   0  0  0  0  0  0  0  0  0  0  0  0
    1.4358   -8.9950    0.8622 C   0  0  0  0  0  0  0  0  0  0  0  0
    0.9078  -11.9576    2.8785 C   0  0  0  0  0  0  0  0  0  0  0  0
    1.1744  -13.3847    2.6330 C   0  0  0  0  0  0  0  0  0  0  0  0
    0.9873  -13.8958    1.5961 C   0  0  0  0  0  0  0  0  0  0  0  0
    1.3934  -15.3125    1.4280 N   0  0  0  0  0  0  0  0  0  0  0  0
    1.3547  -13.1828    0.3872 C   0  0  0  0  0  0  0  0  0  0  0  0
    1.3342   -5.4752    2.6118 O   0  0  0  0  0  0  0  0  0  0  0  0
    1.0556  -14.1940    3.8449 O   0  0  0  0  0  0  0  0  0  0  0  0
    0.7376   -4.7555    1.8417 C   0  0  0  0  0  0  0  0  0  0  0  0
    0.6911  -11.5457    4.1132 O   0  0  0  0  0  0  0  0  0  0  0  0
    1.6436  -16.0400    2.4661 C   0  0  0  0  0  0  0  0  0  0  0  0
    3.0521  -16.6034    2.4600 C   0  0  0  0  0  0  0  0  0  0  0  0
  4  3  1  6
  4  5  1  0
  4  9  1  0
  9 10  1  0
 10 11  1  0
 11 12  2  3
  5 13  1  0
 11 13  1  0
  6 14  1  0
 10 15  2  0
 14 16  1  0
  9 17  2  0
 12 18  1  0
 18 19  1  0
  1  2  2  0
  2  3  1  0
  3  8  2  0
  7  8  1  0
  6  7  2  0
  1  6  1  0
M  END

$$$$
No_1692-/export/home/yangzhenyu/potential_scad_32_flow//YTHDC2/2024-12-06-03-22-00/
     RDKit          3D

 19 20  0  0  0  0  0  0  0  0999 V2000
    1.1787   -8.0297    3.5154 C   0  0  0  0  0  0  0  0  0  0  0  0
    1.0491   -6.8434    2.9820 C   0  0  0  0  0  0  0  0  0  0  0  0
    0.0950   -8.8404    3.2292 C   0  0  0  0  0  0  0  0  0  0  0  0
   -0.9173   -8.4596    2.5152 C   0  0  0  0  0  0  0  0  0  0  0  0
   -1.0331   -7.2162    2.0653 C   0  0  0  0  0  0  0  0  0  0  0  0
   -0.0105   -6.3168    2.3081 C   0  0  0  0  0  0  0  0  0  0  0  0
    0.1465  -10.2446    3.6981 C   0  0  0  0  0  0  0  0  0  0  0  0
    0.1907  -11.3369    2.8651 C   0  0  0  0  0  0  0  0  0  0  0  0
    0.7661  -12.5788    3.2923 C   0  0  0  0  0  0  0  0  0  0  0  0
    1.3881  -13.3018    2.4169 C   0  0  0  0  0  0  0  0  0  0  0  0
    1.4359  -13.1470    1.1819 C   0  0  0  0  0  0  0  0  0  0  0  0
    0.9983  -11.9492    0.5983 C   0  0  0  0  0  0  0  0  0  0  0  0
    0.3676  -11.0296    1.5003 C   0  0  0  0  0  0  0  0  0  0  0  0
    2.0213  -14.8700    2.9357 O   0  0  0  0  0  0  0  0  0  0  0  0
   -0.0850   -5.0305    1.7933 O   0  0  0  0  0  0  0  0  0  0  0  0
   -0.2390   -3.9640    2.4047 C   0  0  0  0  0  0  0  0  0  0  0  0
   -0.1982  -10.4469    4.9901 O   0  0  0  0  0  0  0  0  0  0  0  0
    1.7713  -15.8994    2.3668 C   0  0  0  0  0  0  0  0  0  0  0  0
    1.4613  -16.7883    2.9235 C   0  0  0  0  0  0  0  0  0  0  0  0
  3  7  1  0
  7  8  1  0
 10 14  1  0
  6 15  1  0
 15 16  1  0
  7 17  2  0
 14 18  1  0
 18 19  1  0
  1  2  2  0
  2  6  1  0
  5  6  2  0
  4  5  1  0
  3  4  2  0
  1  3  1  0
  8  9  2  0
  9 10  1  0
 10 11  2  0
 11 12  1  0
 12 13  2  0
  8 13  1  0
M  END

$$$$
No_1693-/export/home/yangzhenyu/potential_scad_32_flow//YTHDC2/2024-12-06-03-22-00/
     RDKit          3D

 19 20  0  0  0  0  0  0  0  0999 V2000
    1.1787   -8.0297    3.5154 C   0  0  0  0  0  0  0  0  0  0  0  0
    1.1048   -9.2215    3.2892 C   0  0  0  0  0  0  0  0  0  0  0  0
    1.2339   -9.7611    2.0189 C   0  0  0  0  0  0  0  0  0  0  0  0
    1.3583   -9.0036    0.9764 C   0  0  0  0  0  0  0  0  0  0  0  0
    1.5996   -7.6362    1.1311 C   0  0  0  0  0  0  0  0  0  0  0  0
    1.4830   -7.0928    2.3626 C   0  0  0  0  0  0  0  0  0  0  0  0
    1.1008  -11.2372    1.8542 C   0  0  0  0  0  0  0  0  0  0  0  0
    1.9749  -12.0938    2.2342 N   0  0  0  0  0  0  0  0  0  0  0  0
    1.6470  -13.3117    2.5080 C   0  0  0  0  0  0  0  0  0  0  0  0
    0.6646  -13.5870    3.4010 C   0  0  0  0  0  0  0  0  0  0  0  0
    0.2374  -14.9321    3.4717 C   0  0  0  0  0  0  0  0  0  0  0  0
    0.7544  -15.9835    2.9552 C   0  0  0  0  0  0  0  0  0  0  0  0
    1.9286  -15.7817    2.1672 C   0  0  0  0  0  0  0  0  0  0  0  0
    2.4319  -14.5012    1.9816 C   0  0  0  0  0  0  0  0  0  0  0  0
    0.1967  -11.5927    0.9120 O   0  0  0  0  0  0  0  0  0  0  0  0
    1.5501   -5.4620    2.7078 O   0  0  0  0  0  0  0  0  0  0  0  0
    1.6236   -9.3911   -0.3178 C   0  0  0  0  0  0  0  0  0  0  0  0
    2.6420  -10.0008   -0.7266 O   0  0  0  0  0  0  0  0  0  0  0  0
    0.6498   -9.1000   -1.2062 O   0  0  0  0  0  0  0  0  0  0  0  0
  3  7  1  0
  7  8  1  0
  8  9  1  0
  7 15  2  0
  6 16  1  0
  4 17  1  0
 17 18  2  0
 17 19  1  0
  1  2  2  0
  2  3  1  0
  3  4  2  0
  4  5  1  0
  5  6  2  0
  1  6  1  0
  9 10  2  0
 10 11  1  0
 11 12  2  0
 12 13  1  0
 13 14  2  0
  9 14  1  0
M  END

$$$$
No_1694-/export/home/yangzhenyu/potential_scad_32_flow//YTHDC2/2024-12-06-03-22-00/
     RDKit          3D

 19 21  0  0  0  0  0  0  0  0999 V2000
    1.1787   -8.0297    3.5154 C   0  0  0  0  0  0  0  0  0  0  0  0
    1.1048   -9.2215    3.2892 C   0  0  0  0  0  0  0  0  0  0  0  0
    1.3627  -10.1721    4.3044 C   0  0  0  0  0  0  0  0  0  0  0  0
    1.0682  -11.5187    4.0618 C   0  0  0  0  0  0  0  0  0  0  0  0
    0.6332  -11.9655    2.9682 C   0  0  0  0  0  0  0  0  0  0  0  0
    0.4776  -11.1308    1.9203 C   0  0  0  0  0  0  0  0  0  0  0  0
    0.7470   -9.8274    2.0368 C   0  0  0  0  0  0  0  0  0  0  0  0
    0.5535   -7.1314    2.6861 C   0  0  0  0  0  0  0  0  0  0  0  0
    0.2950   -7.6000    1.3275 C   0  0  0  0  0  0  0  0  0  0  0  0
    0.2692   -8.8631    1.0973 C   0  0  0  0  0  0  0  0  0  0  0  0
   -0.0069   -6.7080    0.3888 C   0  0  0  0  0  0  0  0  0  0  0  0
   -0.2106   -5.3957    0.7330 C   0  0  0  0  0  0  0  0  0  0  0  0
    0.4852  -13.3942    2.7261 C   0  0  0  0  0  0  0  0  0  0  0  0
    0.7884  -14.0139    1.8440 C   0  0  0  0  0  0  0  0  0  0  0  0
    0.6778  -15.4525    1.6653 C   0  0  0  0  0  0  0  0  0  0  0  0
    0.8524  -16.0272    0.7054 C   0  0  0  0  0  0  0  0  0  0  0  0
    0.9420  -15.3880   -0.5713 C   0  0  0  0  0  0  0  0  0  0  0  0
    0.8894  -13.9106   -0.5710 C   0  0  0  0  0  0  0  0  0  0  0  0
    0.7887  -13.2614    0.6115 C   0  0  0  0  0  0  0  0  0  0  0  0
  9 11  1  0
 11 12  2  0
  5 13  1  0
 13 14  2  3
 14 15  1  0
 15 16  1  0
 16 17  1  0
 17 18  1  0
 14 19  1  0
 18 19  1  0
  2  3  1  0
  3  4  2  0
  4  5  1  0
  5  6  2  0
  6  7  1  0
  1  2  2  0
  2  7  1  0
  7 10  2  0
  9 10  1  0
  8  9  2  0
  1  8  1  0
M  END

$$$$
No_1695-/export/home/yangzhenyu/potential_scad_32_flow//YTHDC2/2024-12-06-03-22-00/
     RDKit          3D

 20 21  0  0  1  0  0  0  0  0999 V2000
    1.1787   -8.0297    3.5154 C   0  0  0  0  0  0  0  0  0  0  0  0
    1.0491   -6.8434    2.9820 C   0  0  0  0  0  0  0  0  0  0  0  0
    0.0950   -8.8404    3.2292 C   0  0  0  0  0  0  0  0  0  0  0  0
   -0.9173   -8.4596    2.5152 C   0  0  0  0  0  0  0  0  0  0  0  0
   -1.0331   -7.2162    2.0653 C   0  0  0  0  0  0  0  0  0  0  0  0
   -0.0105   -6.3168    2.3081 C   0  0  0  0  0  0  0  0  0  0  0  0
    0.1150   -4.9910    1.8495 C   0  0  0  0  0  0  0  0  0  0  0  0
   -0.5774   -4.1593    2.0596 N   0  0  0  0  0  0  0  0  0  0  0  0
    0.1754  -10.2880    3.6908 C   0  0  0  0  0  0  0  0  0  0  0  0
   -1.0687  -10.9513    3.8353 C   0  0  0  0  0  0  0  0  0  0  0  0
    1.2940  -10.7326    4.5282 C   0  0  0  0  0  0  0  0  0  0  0  0
    1.9333  -11.7427    3.9369 C   0  0  0  0  0  0  0  0  0  0  0  0
    1.6830  -12.2749    2.9691 C   0  0  0  0  0  0  0  0  0  0  0  0
    0.2206  -12.5836    2.6534 C   0  0  2  0  0  0  0  0  0  0  0  0
   -0.6525  -12.3087    3.2367 C   0  0  0  0  0  0  0  0  0  0  0  0
    1.1077   -4.6640    0.9344 O   0  0  0  0  0  0  0  0  0  0  0  0
    0.2398  -14.0776    2.1484 C   0  0  0  0  0  0  0  0  0  0  0  0
    1.0221  -14.9042    2.7981 O   0  0  0  0  0  0  0  0  0  0  0  0
    0.6161  -16.3144    3.0284 C   0  0  0  0  0  0  0  0  0  0  0  0
   -1.3636   -4.3006    2.6777 H   0  0  0  0  0  0  0  0  0  0  0  0
  6  7  1  0
  7  8  2  0
  3  9  1  0
  9 10  2  0
  9 11  1  0
 11 12  2  0
 12 13  1  0
 13 14  1  0
 10 15  1  0
 14 15  1  0
  7 16  1  0
 14 17  1  1
 17 18  1  0
 18 19  1  0
  1  2  2  0
  2  6  1  0
  5  6  2  0
  4  5  1  0
  3  4  2  0
  1  3  1  0
  8 20  1  0
M  END

$$$$
No_1696-/export/home/yangzhenyu/potential_scad_32_flow//YTHDC2/2024-12-06-03-22-00/
     RDKit          3D

 18 20  0  0  0  0  0  0  0  0999 V2000
    1.1787   -8.0297    3.5154 C   0  0  0  0  0  0  0  0  0  0  0  0
    1.0491   -6.8434    2.9820 C   0  0  0  0  0  0  0  0  0  0  0  0
    0.9905   -9.0774    2.6527 C   0  0  0  0  0  0  0  0  0  0  0  0
    1.1655  -10.4663    3.1286 C   0  0  0  0  0  0  0  0  0  0  0  0
    1.2197  -11.4898    2.5831 C   0  0  0  0  0  0  0  0  0  0  0  0
    1.0589  -11.4458    1.1293 C   0  0  0  0  0  0  0  0  0  0  0  0
    0.9638  -10.3069    0.4651 C   0  0  0  0  0  0  0  0  0  0  0  0
    0.9191   -9.0789    1.1942 C   0  0  0  0  0  0  0  0  0  0  0  0
    0.9103   -7.8220    0.6974 C   0  0  0  0  0  0  0  0  0  0  0  0
    1.0140   -6.6889    1.5108 C   0  0  0  0  0  0  0  0  0  0  0  0
    0.7513   -7.6341   -0.4649 O   0  0  0  0  0  0  0  0  0  0  0  0
    1.3555  -13.0285    3.2483 C   0  0  0  0  0  0  0  0  0  0  0  0
    0.1908  -13.8177    3.0675 C   0  0  0  0  0  0  0  0  0  0  0  0
   -0.8689  -13.4752    2.7387 C   0  0  0  0  0  0  0  0  0  0  0  0
    0.5765  -15.2022    3.4093 C   0  0  0  0  0  0  0  0  0  0  0  0
   -0.3044  -16.1486    3.1186 C   0  0  0  0  0  0  0  0  0  0  0  0
   -1.5776  -15.7650    2.7347 C   0  0  0  0  0  0  0  0  0  0  0  0
   -1.8868  -14.4932    2.5605 C   0  0  0  0  0  0  0  0  0  0  0  0
  1  2  1  0
  8  9  1  0
  2 10  1  0
  9 10  1  0
  9 11  2  0
  5 12  1  0
 12 13  1  0
  1  3  1  0
 13 14  2  0
 14 18  1  0
 17 18  2  0
 16 17  1  0
 15 16  2  0
 13 15  1  0
  3  4  2  0
  4  5  1  0
  5  6  2  0
  6  7  1  0
  7  8  2  0
  3  8  1  0
M  END

$$$$
No_1697-/export/home/yangzhenyu/potential_scad_32_flow//YTHDC2/2024-12-06-03-22-00/
     RDKit          3D

 19 19  0  0  0  0  0  0  0  0999 V2000
    1.1787   -8.0297    3.5154 N   0  0  0  0  0  0  0  0  0  0  0  0
    0.8669   -7.0905    2.8589 C   0  0  0  0  0  0  0  0  0  0  0  0
    1.0447   -7.3244    1.4123 C   0  0  0  0  0  0  0  0  0  0  0  0
    1.3746   -8.4389    1.0864 C   0  0  0  0  0  0  0  0  0  0  0  0
    1.8493   -9.4093    1.8124 C   0  0  0  0  0  0  0  0  0  0  0  0
    2.3022  -10.6908    1.3119 N   0  0  0  0  0  0  0  0  0  0  0  0
    1.7315   -9.2966    3.2174 C   0  0  0  0  0  0  0  0  0  0  0  0
    2.0015  -10.2988    4.0875 C   0  0  0  0  0  0  0  0  0  0  0  0
    1.6432   -8.6784   -0.4725 C   0  0  0  0  0  0  0  0  0  0  0  0
    2.8115   -8.6103   -1.0812 O   0  0  0  0  0  0  0  0  0  0  0  0
    0.6448   -8.9242   -1.2605 O   0  0  0  0  0  0  0  0  0  0  0  0
    1.2299  -11.2016    4.4802 O   0  0  0  0  0  0  0  0  0  0  0  0
    3.2319  -10.2856    4.8386 O   0  0  0  0  0  0  0  0  0  0  0  0
    0.5461   -5.8361    3.3229 C   0  0  0  0  0  0  0  0  0  0  0  0
    1.5908   -4.7679    3.3437 C   0  0  0  0  0  0  0  0  0  0  0  0
    0.9727   -3.5312    2.8039 C   0  0  0  0  0  0  0  0  0  0  0  0
    0.9073   -2.5214    3.6354 C   0  0  0  0  0  0  0  0  0  0  0  0
    1.8212   -1.8704    4.0532 C   0  0  0  0  0  0  0  0  0  0  0  0
   -0.3479   -2.4768    4.4338 C   0  0  0  0  0  0  0  0  0  0  0  0
  5  6  1  0
  7  8  1  0
  4  9  1  0
  9 10  1  0
  9 11  2  0
  8 12  2  0
  8 13  1  0
  2 14  1  0
 14 15  1  0
 15 16  1  0
 16 17  1  0
 17 18  1  0
 17 19  1  0
  1  2  2  0
  2  3  1  0
  3  4  2  0
  4  5  1  0
  5  7  2  0
  1  7  1  0
M  END

$$$$
No_1698-/export/home/yangzhenyu/potential_scad_32_flow//YTHDC2/2024-12-06-03-22-00/
     RDKit          3D

 18 19  0  0  0  0  0  0  0  0999 V2000
    1.1787   -8.0297    3.5154 C   0  0  0  0  0  0  0  0  0  0  0  0
    1.0491   -6.8434    2.9820 C   0  0  0  0  0  0  0  0  0  0  0  0
    0.0950   -8.8404    3.2292 C   0  0  0  0  0  0  0  0  0  0  0  0
   -0.9173   -8.4596    2.5152 C   0  0  0  0  0  0  0  0  0  0  0  0
   -1.0331   -7.2162    2.0653 C   0  0  0  0  0  0  0  0  0  0  0  0
   -2.2155   -6.7621    1.5011 C   0  0  0  0  0  0  0  0  0  0  0  0
    0.0919   -6.3006    2.2576 C   0  0  0  0  0  0  0  0  0  0  0  0
   -2.4371   -7.0823    0.2852 C   0  0  0  0  0  0  0  0  0  0  0  0
   -3.3720   -6.4107   -0.4378 C   0  0  0  0  0  0  0  0  0  0  0  0
   -4.0964   -5.4001    0.0970 C   0  0  0  0  0  0  0  0  0  0  0  0
   -3.8853   -4.9724    1.3811 C   0  0  0  0  0  0  0  0  0  0  0  0
   -2.8450   -5.6540    2.0981 C   0  0  0  0  0  0  0  0  0  0  0  0
    0.1694  -10.2366    3.8695 C   0  0  0  0  0  0  0  0  0  0  0  0
    1.2675  -10.8555    4.1117 C   0  0  0  0  0  0  0  0  0  0  0  0
    1.6798  -11.7604    3.1989 C   0  0  0  0  0  0  0  0  0  0  0  0
    1.4630  -11.4471    1.8935 C   0  0  0  0  0  0  0  0  0  0  0  0
    2.2331  -10.3788    1.3127 C   0  0  0  0  0  0  0  0  0  0  0  0
    1.9407   -9.8110    0.1704 C   0  0  0  0  0  0  0  0  0  0  0  0
  5  6  1  0
  3 13  1  0
 13 14  1  0
 14 15  1  0
 15 16  1  0
 16 17  1  0
 17 18  1  0
  1  2  2  0
  2  7  1  0
  5  7  2  0
  4  5  1  0
  3  4  2  0
  1  3  1  0
  6  8  2  0
  8  9  1  0
  9 10  2  0
 10 11  1  0
 11 12  2  0
  6 12  1  0
M  END

$$$$
No_1699-/export/home/yangzhenyu/potential_scad_32_flow//YTHDC2/2024-12-06-03-22-00/
     RDKit          3D

 20 21  0  0  1  0  0  0  0  0999 V2000
    1.1787   -8.0297    3.5154 C   0  0  0  0  0  0  0  0  0  0  0  0
    1.1048   -9.2215    3.2892 C   0  0  0  0  0  0  0  0  0  0  0  0
    1.2339   -9.7611    2.0189 C   0  0  0  0  0  0  0  0  0  0  0  0
    1.1954  -11.2312    1.8661 C   0  0  1  0  0  0  0  0  0  0  0  0
    1.5546  -12.1691    2.7931 C   0  0  0  0  0  0  0  0  0  0  0  0
    0.5849   -7.0929    2.5729 C   0  0  0  0  0  0  0  0  0  0  0  0
    0.5651   -5.6716    2.6680 C   0  0  0  0  0  0  0  0  0  0  0  0
    1.0545   -4.7862    1.9421 Cl  0  0  0  0  0  0  0  0  0  0  0  0
    1.4325  -13.5005    2.5059 C   0  0  2  0  0  0  0  0  0  0  0  0
    0.8394  -13.9326    1.4020 C   0  0  0  0  0  0  0  0  0  0  0  0
    0.4484  -13.1447    0.4425 C   0  0  0  0  0  0  0  0  0  0  0  0
    0.6200  -11.7304    0.6228 C   0  0  0  0  0  0  0  0  0  0  0  0
    0.2578  -10.8848   -0.3511 O   0  0  0  0  0  0  0  0  0  0  0  0
    1.8790  -14.3885    3.5037 Cl  0  0  0  0  0  0  0  0  0  0  0  0
    0.2203   -7.5674    1.2794 O   0  0  0  0  0  0  0  0  0  0  0  0
    1.9637   -8.8487    0.9141 C   0  0  2  0  0  0  0  0  0  0  0  0
    1.0819   -8.0796    0.4787 C   0  0  0  0  0  0  0  0  0  0  0  0
    1.1929   -7.6566   -0.6590 O   0  0  0  0  0  0  0  0  0  0  0  0
    2.7802   -9.7193    0.0711 C   0  0  0  0  0  0  0  0  0  0  0  0
    2.8159   -9.0275   -1.1178 O   0  0  0  0  0  0  0  0  0  0  0  0
  1  2  1  0
  2  3  2  0
  4  3  1  1
  4  5  1  0
  1  6  2  0
  6  7  1  0
  7  8  1  0
  9 10  1  0
  4 12  1  0
 11 12  1  0
 12 13  2  0
  9 14  1  1
  6 15  1  0
  3 16  1  0
 15 17  1  0
 16 17  1  0
 17 18  2  0
 16 19  1  6
 19 20  1  0
  5  9  1  0
 10 11  1  0
M  END

$$$$
No_1700-/export/home/yangzhenyu/potential_scad_32_flow//YTHDC2/2024-12-06-03-22-00/
     RDKit          3D

 18 19  0  0  1  0  0  0  0  0999 V2000
    1.1787   -8.0297    3.5154 C   0  0  0  0  0  0  0  0  0  0  0  0
    1.0491   -6.8434    2.9820 C   0  0  0  0  0  0  0  0  0  0  0  0
    0.9905   -9.0774    2.6527 C   0  0  0  0  0  0  0  0  0  0  0  0
    0.7897   -8.9519    1.3691 C   0  0  0  0  0  0  0  0  0  0  0  0
    0.7018   -7.7198    0.7892 C   0  0  0  0  0  0  0  0  0  0  0  0
    0.8918   -6.5957    1.6117 C   0  0  0  0  0  0  0  0  0  0  0  0
    1.0711  -10.4814    3.2282 C   0  0  0  0  0  0  0  0  0  0  0  0
    1.1227  -11.5770    2.4616 C   0  0  0  0  0  0  0  0  0  0  0  0
    1.1500  -12.9052    3.0782 C   0  0  0  0  0  0  0  0  0  0  0  0
    1.2520  -13.9470    2.2846 N   0  0  0  0  0  0  0  0  0  0  0  0
    1.5801  -15.2472    2.7341 C   0  0  0  0  0  0  0  0  0  0  0  0
    0.8506   -5.0829    1.1031 C   0  0  0  0  0  0  0  0  0  0  0  0
    1.0304  -16.3392    2.2349 C   0  0  0  0  0  0  0  0  0  0  0  0
    0.2501  -16.2443    1.2080 C   0  0  0  0  0  0  0  0  0  0  0  0
    0.1770  -15.1120    0.4708 C   0  0  2  0  0  0  0  0  0  0  0  0
    0.4684  -13.8613    1.0589 C   0  0  0  0  0  0  0  0  0  0  0  0
   -0.4545  -15.1679   -0.7769 C   0  0  0  0  0  0  0  0  0  0  0  0
   -1.1424  -14.0840   -1.3021 C   0  0  0  0  0  0  0  0  0  0  0  0
  3  7  1  0
  7  8  2  3
  8  9  1  0
  9 10  1  0
 10 11  1  0
  6 12  1  0
 11 13  1  0
 13 14  1  0
 14 15  1  0
 10 16  1  0
 15 16  1  0
 15 17  1  1
 17 18  2  0
  1  2  2  0
  2  6  1  0
  5  6  2  0
  4  5  1  0
  3  4  2  0
  1  3  1  0
M  END

$$$$
No_1701-/export/home/yangzhenyu/potential_scad_32_flow//YTHDC2/2024-12-06-03-22-00/
     RDKit          3D

 18 18  0  0  0  0  0  0  0  0999 V2000
    1.1787   -8.0297    3.5154 C   0  0  0  0  0  0  0  0  0  0  0  0
    1.1048   -9.2215    3.2892 C   0  0  0  0  0  0  0  0  0  0  0  0
    1.2339   -9.7611    2.0189 C   0  0  0  0  0  0  0  0  0  0  0  0
    1.3583   -9.0036    0.9764 C   0  0  0  0  0  0  0  0  0  0  0  0
    1.7077   -9.6100   -0.3010 C   0  0  0  0  0  0  0  0  0  0  0  0
    1.3637   -7.1087    2.3226 C   0  0  0  0  0  0  0  0  0  0  0  0
    1.4257   -7.6645    1.0231 C   0  0  0  0  0  0  0  0  0  0  0  0
    1.6722  -10.7840   -0.4044 O   0  0  0  0  0  0  0  0  0  0  0  0
    1.4862   -8.9147   -1.4018 O   0  0  0  0  0  0  0  0  0  0  0  0
    1.1383  -10.1804    4.3877 C   0  0  0  0  0  0  0  0  0  0  0  0
    0.0311  -11.0140    4.6264 O   0  0  0  0  0  0  0  0  0  0  0  0
    1.9548  -10.2004    5.3713 O   0  0  0  0  0  0  0  0  0  0  0  0
    1.3364   -5.6100    2.5098 Br  0  0  0  0  0  0  0  0  0  0  0  0
    1.2655  -11.3697    1.8563 C   0  0  0  0  0  0  0  0  0  0  0  0
    2.4125  -12.0951    2.2173 C   0  0  0  0  0  0  0  0  0  0  0  0
    2.3622  -13.5047    1.9820 C   0  0  0  0  0  0  0  0  0  0  0  0
    1.6130  -14.1533    2.4918 C   0  0  0  0  0  0  0  0  0  0  0  0
    0.5510  -14.8670    1.9812 C   0  0  0  0  0  0  0  0  0  0  0  0
  4  5  1  0
  5  8  2  0
  5  9  1  0
  2 10  1  0
 10 11  1  0
 10 12  2  0
  6 13  1  0
  3 14  1  0
 14 15  1  0
 15 16  1  0
 16 17  1  0
 17 18  1  0
  1  2  2  0
  2  3  1  0
  3  4  2  0
  4  7  1  0
  6  7  2  0
  1  6  1  0
M  END

$$$$
No_1702-/export/home/yangzhenyu/potential_scad_32_flow//YTHDC2/2024-12-06-03-22-00/
     RDKit          3D

 20 22  0  0  0  0  0  0  0  0999 V2000
    1.1787   -8.0297    3.5154 C   0  0  0  0  0  0  0  0  0  0  0  0
    1.1048   -9.2215    3.2892 C   0  0  0  0  0  0  0  0  0  0  0  0
    1.3627  -10.1721    4.3044 C   0  0  0  0  0  0  0  0  0  0  0  0
    1.0682  -11.5187    4.0618 C   0  0  0  0  0  0  0  0  0  0  0  0
    0.6332  -11.9655    2.9682 C   0  0  0  0  0  0  0  0  0  0  0  0
    0.4776  -11.1308    1.9203 C   0  0  0  0  0  0  0  0  0  0  0  0
    0.7470   -9.8274    2.0368 C   0  0  0  0  0  0  0  0  0  0  0  0
    1.0387   -7.0301    2.5175 C   0  0  0  0  0  0  0  0  0  0  0  0
    0.9130   -7.5288    1.2013 C   0  0  0  0  0  0  0  0  0  0  0  0
    0.7893   -8.7979    0.9542 C   0  0  0  0  0  0  0  0  0  0  0  0
    0.5241   -9.2578   -0.2817 C   0  0  0  0  0  0  0  0  0  0  0  0
   -0.7560   -9.7391   -0.6285 O   0  0  0  0  0  0  0  0  0  0  0  0
    1.3013   -8.9300   -1.2618 O   0  0  0  0  0  0  0  0  0  0  0  0
    0.5064  -13.3732    2.6887 C   0  0  0  0  0  0  0  0  0  0  0  0
    1.4653  -14.2195    3.1737 C   0  0  0  0  0  0  0  0  0  0  0  0
    1.2477  -15.6435    2.9859 C   0  0  0  0  0  0  0  0  0  0  0  0
    0.3617  -16.1097    2.2420 C   0  0  0  0  0  0  0  0  0  0  0  0
   -0.5255  -15.2630    1.6521 C   0  0  0  0  0  0  0  0  0  0  0  0
   -0.3683  -13.9088    1.8551 C   0  0  0  0  0  0  0  0  0  0  0  0
    1.3230   -5.6049    2.7032 C   0  0  0  0  0  0  0  0  0  0  0  0
 10 11  1  0
 11 12  2  0
 11 13  1  0
  5 14  1  0
  8 20  1  0
  2  3  1  0
  3  4  2  0
  4  5  1  0
  5  6  2  0
  6  7  1  0
  1  2  2  0
  2  7  1  0
  7 10  2  0
  9 10  1  0
  8  9  2  0
  1  8  1  0
 14 15  2  0
 15 16  1  0
 16 17  2  0
 17 18  1  0
 18 19  2  0
 14 19  1  0
M  END

$$$$
No_1703-/export/home/yangzhenyu/potential_scad_32_flow//YTHDC2/2024-12-06-03-22-00/
     RDKit          3D

 18 19  0  0  1  0  0  0  0  0999 V2000
    1.1787   -8.0297    3.5154 C   0  0  0  0  0  0  0  0  0  0  0  0
    1.0491   -6.8434    2.9820 C   0  0  0  0  0  0  0  0  0  0  0  0
    0.9905   -9.0774    2.6527 C   0  0  1  0  0  0  0  0  0  0  0  0
    1.1655  -10.4663    3.1286 C   0  0  2  0  0  0  0  0  0  0  0  0
    1.7409  -10.6480    4.4599 C   0  0  0  0  0  0  0  0  0  0  0  0
    0.4783   -6.4688    1.7590 C   0  0  2  0  0  0  0  0  0  0  0  0
    0.2119   -7.5787    0.9640 C   0  0  0  0  0  0  0  0  0  0  0  0
    0.4248   -8.8744    1.3136 C   0  0  0  0  0  0  0  0  0  0  0  0
    1.0421  -11.5142    2.2935 C   0  0  0  0  0  0  0  0  0  0  0  0
    1.8175  -11.6406    1.2839 C   0  0  0  0  0  0  0  0  0  0  0  0
   -0.3659   -7.3820   -0.2267 O   0  0  0  0  0  0  0  0  0  0  0  0
    1.7202  -12.8963    0.6533 C   0  0  0  0  0  0  0  0  0  0  0  0
    0.9897  -13.8749    1.0056 C   0  0  0  0  0  0  0  0  0  0  0  0
    0.1770  -13.7799    2.0209 C   0  0  0  0  0  0  0  0  0  0  0  0
    0.2880  -12.5677    2.8249 C   0  0  0  0  0  0  0  0  0  0  0  0
    0.2849   -5.1787    1.2350 Br  0  0  0  0  0  0  0  0  0  0  0  0
   -0.6774  -14.8909    2.6847 Cl  0  0  0  0  0  0  0  0  0  0  0  0
    2.8743  -11.3482    4.6766 O   0  0  0  0  0  0  0  0  0  0  0  0
  1  2  1  0
  3  4  1  0
  4  5  1  6
  6  7  1  0
  3  8  1  1
  7  8  1  0
  4  9  1  0
  7 11  2  0
  6 16  1  6
 14 17  1  0
  5 18  2  0
  2  6  1  0
  1  3  1  0
  9 10  2  0
 10 12  1  0
 12 13  2  0
 13 14  1  0
 14 15  2  0
  9 15  1  0
M  END

$$$$
No_1704-/export/home/yangzhenyu/potential_scad_32_flow//YTHDC2/2024-12-06-03-22-00/
     RDKit          3D

 17 17  0  0  1  0  0  0  0  0999 V2000
    1.1787   -8.0297    3.5154 C   0  0  0  0  0  0  0  0  0  0  0  0
    1.0491   -6.8434    2.9820 C   0  0  0  0  0  0  0  0  0  0  0  0
    1.9985   -8.9840    2.8958 C   0  0  1  0  0  0  0  0  0  0  0  0
    1.9135  -10.3404    3.6266 C   0  0  0  0  0  0  0  0  0  0  0  0
    1.3291  -11.3908    3.0222 C   0  0  1  0  0  0  0  0  0  0  0  0
    1.0344  -11.3281    1.7959 C   0  0  0  0  0  0  0  0  0  0  0  0
    1.0857   -6.5153    1.8498 O   0  0  0  0  0  0  0  0  0  0  0  0
    1.6278  -10.2620    0.9255 C   0  0  0  0  0  0  0  0  0  0  0  0
    1.7636   -9.0557    1.6051 C   0  0  0  0  0  0  0  0  0  0  0  0
    1.2127   -5.7019    3.7548 O   0  0  0  0  0  0  0  0  0  0  0  0
    1.2483  -12.5439    3.6858 C   0  0  0  0  0  0  0  0  0  0  0  0
    1.8128  -10.3841   -0.2701 O   0  0  0  0  0  0  0  0  0  0  0  0
    1.0741  -13.7022    2.8115 C   0  0  0  0  0  0  0  0  0  0  0  0
    2.2826  -14.3726    2.5879 C   0  0  0  0  0  0  0  0  0  0  0  0
    2.1903  -15.6841    1.9961 C   0  0  0  0  0  0  0  0  0  0  0  0
    1.0193  -16.2414    1.8069 C   0  0  0  0  0  0  0  0  0  0  0  0
   -0.1601  -15.5814    2.0138 C   0  0  0  0  0  0  0  0  0  0  0  0
  1  2  1  0
  3  1  1  1
  3  4  1  0
  4  5  1  0
  5  6  1  0
  2  7  2  0
  6  8  1  0
  3  9  1  0
  8  9  1  0
  2 10  1  0
  5 11  1  6
  8 12  2  0
 11 13  1  0
 13 14  1  0
 14 15  2  3
 15 16  1  0
 16 17  2  0
M  END

$$$$
No_1705-/export/home/yangzhenyu/potential_scad_32_flow//YTHDC2/2024-12-06-03-22-00/
     RDKit          3D

 20 20  0  0  0  0  0  0  0  0999 V2000
    1.1787   -8.0297    3.5154 O   0  0  0  0  0  0  0  0  0  0  0  0
    0.9969   -8.9689    3.0048 C   0  0  0  0  0  0  0  0  0  0  0  0
    1.3055  -10.1056    3.6616 C   0  0  0  0  0  0  0  0  0  0  0  0
    1.1249  -11.3503    3.0941 C   0  0  0  0  0  0  0  0  0  0  0  0
    0.6932  -11.4484    1.8586 C   0  0  0  0  0  0  0  0  0  0  0  0
    0.5498  -10.3736    1.0579 C   0  0  0  0  0  0  0  0  0  0  0  0
    0.7643   -9.1185    1.6383 C   0  0  0  0  0  0  0  0  0  0  0  0
    0.5937   -7.8467    1.0482 C   0  0  0  0  0  0  0  0  0  0  0  0
    1.5294   -7.0230    1.0749 O   0  0  0  0  0  0  0  0  0  0  0  0
   -0.4082   -7.5594    0.2790 O   0  0  0  0  0  0  0  0  0  0  0  0
    1.2233  -12.8316    3.9806 C   0  0  0  0  0  0  0  0  0  0  0  0
    1.0542  -13.9330    3.2551 C   0  0  0  0  0  0  0  0  0  0  0  0
    1.4282  -14.1309    1.9546 C   0  0  0  0  0  0  0  0  0  0  0  0
    0.7525  -14.8804    1.2131 C   0  0  0  0  0  0  0  0  0  0  0  0
   -0.2251  -15.7068    1.6356 C   0  0  0  0  0  0  0  0  0  0  0  0
   -0.0350  -16.6688    2.6132 C   0  0  0  0  0  0  0  0  0  0  0  0
    1.3491  -16.7896    3.2074 C   0  0  0  0  0  0  0  0  0  0  0  0
    2.3444  -17.4766    2.7909 C   0  0  0  0  0  0  0  0  0  0  0  0
    3.5750  -16.9801    2.6448 C   0  0  0  0  0  0  0  0  0  0  0  0
    2.5357  -18.9077    3.4197 C   0  0  0  0  0  0  0  0  0  0  0  0
  1  2  1  0
  7  8  1  0
  8  9  1  0
  8 10  2  0
  4 11  1  0
 11 12  2  3
 12 13  1  0
 13 14  2  3
 14 15  1  0
 15 16  2  3
 16 17  1  0
 17 18  1  0
 18 19  1  0
 18 20  1  0
  2  3  2  0
  3  4  1  0
  4  5  2  0
  5  6  1  0
  6  7  2  0
  2  7  1  0
M  END

$$$$
No_1706-/export/home/yangzhenyu/potential_scad_32_flow//YTHDC2/2024-12-06-03-22-00/
     RDKit          3D

 16 16  0  0  0  0  0  0  0  0999 V2000
    1.1787   -8.0297    3.5154 C   0  0  0  0  0  0  0  0  0  0  0  0
    1.1048   -9.2215    3.2892 C   0  0  0  0  0  0  0  0  0  0  0  0
    1.2339   -9.7611    2.0189 C   0  0  0  0  0  0  0  0  0  0  0  0
    1.3583   -9.0036    0.9764 C   0  0  0  0  0  0  0  0  0  0  0  0
    1.7077   -9.6100   -0.3010 C   0  0  0  0  0  0  0  0  0  0  0  0
    1.3637   -7.1087    2.3226 C   0  0  0  0  0  0  0  0  0  0  0  0
    1.4257   -7.6645    1.0231 C   0  0  0  0  0  0  0  0  0  0  0  0
    1.9364   -8.8976   -1.3212 O   0  0  0  0  0  0  0  0  0  0  0  0
    1.5810  -10.8409   -0.4184 O   0  0  0  0  0  0  0  0  0  0  0  0
    1.3325   -5.6207    2.4687 Cl  0  0  0  0  0  0  0  0  0  0  0  0
    1.0722  -10.2378    4.3744 Cl  0  0  0  0  0  0  0  0  0  0  0  0
    1.3371  -11.3567    1.9474 N   0  0  0  0  0  0  0  0  0  0  0  0
    2.5498  -11.9605    2.2740 C   0  0  0  0  0  0  0  0  0  0  0  0
    2.3430  -13.3654    1.8962 C   0  0  0  0  0  0  0  0  0  0  0  0
    1.1380  -13.9153    2.1716 C   0  0  0  0  0  0  0  0  0  0  0  0
    0.9202  -15.0879    1.8875 C   0  0  0  0  0  0  0  0  0  0  0  0
  4  5  1  0
  5  8  1  0
  5  9  2  0
  6 10  1  0
  2 11  1  0
  3 12  1  0
 12 13  1  0
 13 14  1  0
 14 15  1  0
 15 16  1  0
  1  2  2  0
  2  3  1  0
  3  4  2  0
  4  7  1  0
  6  7  2  0
  1  6  1  0
M  END

$$$$
No_1707-/export/home/yangzhenyu/potential_scad_32_flow//YTHDC2/2024-12-06-03-22-00/
     RDKit          3D

 19 19  0  0  0  0  0  0  0  0999 V2000
    1.1787   -8.0297    3.5154 N   0  0  0  0  0  0  0  0  0  0  0  0
    0.8669   -7.0905    2.8589 C   0  0  0  0  0  0  0  0  0  0  0  0
    1.0447   -7.3244    1.4123 C   0  0  0  0  0  0  0  0  0  0  0  0
    1.3746   -8.4389    1.0864 C   0  0  0  0  0  0  0  0  0  0  0  0
    1.8493   -9.4093    1.8124 C   0  0  0  0  0  0  0  0  0  0  0  0
    1.7421   -9.2119    3.1541 C   0  0  0  0  0  0  0  0  0  0  0  0
    2.0083  -10.3048    4.0591 C   0  0  0  0  0  0  0  0  0  0  0  0
    1.2724  -11.3673    4.2581 C   0  0  0  0  0  0  0  0  0  0  0  0
    1.7428   -8.6720   -0.3975 C   0  0  0  0  0  0  0  0  0  0  0  0
    2.8574   -9.0637   -0.8929 O   0  0  0  0  0  0  0  0  0  0  0  0
    0.7939   -8.6567   -1.3195 O   0  0  0  0  0  0  0  0  0  0  0  0
    3.3154  -10.2539    4.8679 C   0  0  0  0  0  0  0  0  0  0  0  0
    3.6222  -11.3796    5.3762 O   0  0  0  0  0  0  0  0  0  0  0  0
    0.0151  -11.4596    3.5896 C   0  0  0  0  0  0  0  0  0  0  0  0
   -0.2944  -12.5146    2.7530 C   0  0  0  0  0  0  0  0  0  0  0  0
   -1.4274  -12.5746    2.1467 N   0  0  0  0  0  0  0  0  0  0  0  0
   -1.6997  -13.5123    1.4091 C   0  0  0  0  0  0  0  0  0  0  0  0
   -0.6560  -14.4205    1.1617 C   0  0  0  0  0  0  0  0  0  0  0  0
    0.5793  -14.3307    1.5522 C   0  0  0  0  0  0  0  0  0  0  0  0
  6  7  1  0
  7  8  2  3
  4  9  1  0
  9 10  2  0
  9 11  1  0
  7 12  1  0
 12 13  1  0
  8 14  1  0
 14 15  2  3
 15 16  1  0
 16 17  1  0
 17 18  2  3
 18 19  1  0
  1  2  2  0
  2  3  1  0
  3  4  2  0
  4  5  1  0
  5  6  2  0
  1  6  1  0
M  END

$$$$
No_1708-/export/home/yangzhenyu/potential_scad_32_flow//YTHDC2/2024-12-06-03-22-00/
     RDKit          3D

 18 18  0  0  0  0  0  0  0  0999 V2000
    1.1787   -8.0297    3.5154 C   0  0  0  0  0  0  0  0  0  0  0  0
    1.1048   -9.2215    3.2892 C   0  0  0  0  0  0  0  0  0  0  0  0
    1.3627  -10.1721    4.3044 C   0  0  0  0  0  0  0  0  0  0  0  0
    1.7354  -11.4730    3.9023 C   0  0  0  0  0  0  0  0  0  0  0  0
    1.8080  -11.8127    2.7216 C   0  0  0  0  0  0  0  0  0  0  0  0
    1.4028  -10.9289    1.8117 C   0  0  0  0  0  0  0  0  0  0  0  0
    1.2324   -9.6663    1.9861 C   0  0  0  0  0  0  0  0  0  0  0  0
    1.1223   -8.7716    0.9645 C   0  0  0  0  0  0  0  0  0  0  0  0
    1.6052   -9.0324   -0.1923 O   0  0  0  0  0  0  0  0  0  0  0  0
    0.5512   -7.5280    1.0943 O   0  0  0  0  0  0  0  0  0  0  0  0
    1.9997  -13.1851    2.2858 C   0  0  0  0  0  0  0  0  0  0  0  0
    2.3360  -13.4713    0.9842 O   0  0  0  0  0  0  0  0  0  0  0  0
    2.3810  -14.1445    3.1081 N   0  0  0  0  0  0  0  0  0  0  0  0
    2.2076  -15.4619    2.7369 C   0  0  0  0  0  0  0  0  0  0  0  0
    1.0004  -16.1454    3.0496 C   0  0  0  0  0  0  0  0  0  0  0  0
    0.9895  -17.5155    3.0056 C   0  0  0  0  0  0  0  0  0  0  0  0
    2.1370  -18.1876    2.4097 C   0  0  0  0  0  0  0  0  0  0  0  0
    3.3872  -17.4768    2.2270 C   0  0  0  0  0  0  0  0  0  0  0  0
  1  2  1  0
  7  8  1  0
  8  9  2  0
  8 10  1  0
  5 11  1  0
 11 12  2  0
 11 13  1  0
 13 14  1  0
 14 15  1  0
 15 16  2  3
 16 17  1  0
 17 18  2  0
  2  3  2  0
  3  4  1  0
  4  5  2  0
  5  6  1  0
  6  7  2  0
  2  7  1  0
M  END

$$$$
No_1709-/export/home/yangzhenyu/potential_scad_32_flow//YTHDC2/2024-12-06-03-22-00/
     RDKit          3D

 10 10  0  0  0  0  0  0  0  0999 V2000
    1.1787   -8.0297    3.5154 O   0  0  0  0  0  0  0  0  0  0  0  0
    0.6747   -7.4019    2.7838 C   0  0  0  0  0  0  0  0  0  0  0  0
    0.5570   -6.0797    2.8560 C   0  0  0  0  0  0  0  0  0  0  0  0
   -0.2158   -5.3007    2.0284 C   0  0  0  0  0  0  0  0  0  0  0  0
   -0.8260   -5.9169    1.0290 C   0  0  0  0  0  0  0  0  0  0  0  0
   -0.6925   -7.2407    0.8216 C   0  0  0  0  0  0  0  0  0  0  0  0
    0.1645   -8.0156    1.6621 C   0  0  0  0  0  0  0  0  0  0  0  0
    0.1608   -9.3811    1.6398 C   0  0  0  0  0  0  0  0  0  0  0  0
    1.2258   -9.9180    0.7949 N   0  0  0  0  0  0  0  0  0  0  0  0
    2.0684   -9.1075    0.0819 O   0  0  0  0  0  0  0  0  0  0  0  0
  1  2  1  0
  7  8  1  0
  8  9  1  0
  9 10  2  0
  2  3  2  0
  3  4  1  0
  4  5  2  0
  5  6  1  0
  6  7  2  0
  2  7  1  0
M  END

$$$$
No_1710-/export/home/yangzhenyu/potential_scad_32_flow//YTHDC2/2024-12-06-03-22-00/
     RDKit          3D

 17 18  0  0  1  0  0  0  0  0999 V2000
    1.1787   -8.0297    3.5154 I   0  0  0  0  0  0  0  0  0  0  0  0
    0.7262   -7.1086    2.2967 C   0  0  1  0  0  0  0  0  0  0  0  0
    0.4843   -5.8065    2.4191 C   0  0  0  0  0  0  0  0  0  0  0  0
    0.8311   -7.7164    0.9594 C   0  0  0  0  0  0  0  0  0  0  0  0
    1.8365   -8.5960    0.6637 C   0  0  0  0  0  0  0  0  0  0  0  0
    2.1446   -8.8941   -0.6092 C   0  0  0  0  0  0  0  0  0  0  0  0
    1.7950   -8.6132   -1.5602 O   0  0  0  0  0  0  0  0  0  0  0  0
    3.0248   -9.8695   -0.8296 O   0  0  0  0  0  0  0  0  0  0  0  0
   -0.8254   -5.3750    2.0794 C   0  0  0  0  0  0  0  0  0  0  0  0
   -1.1408   -4.0751    1.7306 C   0  0  0  0  0  0  0  0  0  0  0  0
   -0.1823   -3.0640    2.2075 C   0  0  0  0  0  0  0  0  0  0  0  0
   -0.4946   -1.7147    1.9351 C   0  0  0  0  0  0  0  0  0  0  0  0
    0.2436   -0.8267    2.6043 C   0  0  0  0  0  0  0  0  0  0  0  0
    1.3044   -1.2999    3.3907 C   0  0  0  0  0  0  0  0  0  0  0  0
    1.5264   -2.4597    3.7539 C   0  0  0  0  0  0  0  0  0  0  0  0
    0.7350   -3.5007    3.1825 C   0  0  0  0  0  0  0  0  0  0  0  0
    1.0775   -4.8218    3.1851 C   0  0  0  0  0  0  0  0  0  0  0  0
  2  1  1  6
  2  3  1  0
  2  4  1  0
  4  5  1  0
  5  6  1  0
  6  7  2  0
  6  8  1  0
 11 12  1  0
 12 13  2  0
 13 14  1  0
 14 15  2  0
 15 16  1  0
  3  9  2  0
  9 10  1  0
 10 11  2  0
 11 16  1  0
 16 17  2  0
  3 17  1  0
M  END

$$$$
No_1711-/export/home/yangzhenyu/potential_scad_32_flow//YTHDC2/2024-12-06-03-22-00/
     RDKit          3D

 20 21  0  0  1  0  0  0  0  0999 V2000
    1.1787   -8.0297    3.5154 C   0  0  0  0  0  0  0  0  0  0  0  0
    1.1048   -9.2215    3.2892 C   0  0  0  0  0  0  0  0  0  0  0  0
    1.2339   -9.7611    2.0189 C   0  0  0  0  0  0  0  0  0  0  0  0
    1.3583   -9.0036    0.9764 C   0  0  0  0  0  0  0  0  0  0  0  0
    1.5996   -7.6362    1.1311 C   0  0  0  0  0  0  0  0  0  0  0  0
    1.4830   -7.0928    2.3626 C   0  0  0  0  0  0  0  0  0  0  0  0
    1.4898   -5.7274    2.6199 C   0  0  0  0  0  0  0  0  0  0  0  0
    1.1681  -11.2222    1.8390 C   0  0  2  0  0  0  0  0  0  0  0  0
    1.9047  -12.1147    2.3357 C   0  0  0  0  0  0  0  0  0  0  0  0
    1.6844  -13.4555    2.0602 C   0  0  2  0  0  0  0  0  0  0  0  0
    0.6977  -13.8514    1.3046 C   0  0  0  0  0  0  0  0  0  0  0  0
   -0.1168  -12.9151    0.6554 C   0  0  1  0  0  0  0  0  0  0  0  0
    0.1481  -11.5441    0.9254 C   0  0  0  0  0  0  0  0  0  0  0  0
    1.6975   -5.1712    3.8653 N   0  0  0  0  0  0  0  0  0  0  0  0
    1.3495   -4.8405    1.6326 O   0  0  0  0  0  0  0  0  0  0  0  0
    2.5130  -14.4233    2.7631 Cl  0  0  0  0  0  0  0  0  0  0  0  0
   -0.6953  -10.6622    0.3298 O   0  0  0  0  0  0  0  0  0  0  0  0
    1.6646   -9.4382   -0.5361 O   0  0  0  0  0  0  0  0  0  0  0  0
    0.8682  -10.1639    4.3587 O   0  0  0  0  0  0  0  0  0  0  0  0
   -1.0896  -13.3567   -0.2869 C   0  0  0  0  0  0  0  0  0  0  0  0
  6  7  1  0
  8  3  1  6
  8  9  1  0
 10 11  1  0
  8 13  1  0
 12 13  1  0
  7 14  1  0
  7 15  2  0
 10 16  1  1
 13 17  2  0
  4 18  1  0
  2 19  1  0
 12 20  1  6
  9 10  1  0
 11 12  1  0
  1  2  2  0
  2  3  1  0
  3  4  2  0
  4  5  1  0
  5  6  2  0
  1  6  1  0
M  END

$$$$
No_1712-/export/home/yangzhenyu/potential_scad_32_flow//YTHDC2/2024-12-06-03-22-00/
     RDKit          3D

 19 19  0  0  0  0  0  0  0  0999 V2000
    1.1787   -8.0297    3.5154 C   0  0  0  0  0  0  0  0  0  0  0  0
    1.0491   -6.8434    2.9820 O   0  0  0  0  0  0  0  0  0  0  0  0
   -0.0075   -8.7761    3.2545 C   0  0  0  0  0  0  0  0  0  0  0  0
   -0.0511   -9.9415    3.9309 C   0  0  0  0  0  0  0  0  0  0  0  0
    0.9737  -10.6592    4.2013 C   0  0  0  0  0  0  0  0  0  0  0  0
    0.8812  -12.0848    3.7913 C   0  0  0  0  0  0  0  0  0  0  0  0
   -0.3295  -12.5813    3.4675 C   0  0  0  0  0  0  0  0  0  0  0  0
   -1.4146  -11.7537    3.2086 C   0  0  0  0  0  0  0  0  0  0  0  0
   -1.3188  -10.3697    3.5159 C   0  0  0  0  0  0  0  0  0  0  0  0
    1.0180   -5.7760    3.5775 C   0  0  0  0  0  0  0  0  0  0  0  0
   -0.4662  -13.9341    3.2109 C   0  0  0  0  0  0  0  0  0  0  0  0
   -1.5940  -14.5274    2.7533 O   0  0  0  0  0  0  0  0  0  0  0  0
    0.5244  -14.9504    3.5465 O   0  0  0  0  0  0  0  0  0  0  0  0
    0.6267  -16.2175    2.9866 C   0  0  0  0  0  0  0  0  0  0  0  0
    1.6932  -16.4722    2.2597 C   0  0  0  0  0  0  0  0  0  0  0  0
    1.8429  -17.6776    1.7404 O   0  0  0  0  0  0  0  0  0  0  0  0
    2.7911  -15.7060    2.1214 C   0  0  0  0  0  0  0  0  0  0  0  0
    2.1821   -5.2998    4.0144 C   0  0  0  0  0  0  0  0  0  0  0  0
    0.2711   -4.8514    2.5480 C   0  0  0  0  0  0  0  0  0  0  0  0
  1  2  1  0
  1  3  1  0
  3  4  1  0
  2 10  1  0
  7 11  1  0
 11 12  2  0
 11 13  1  0
 13 14  1  0
 14 15  1  0
 15 16  2  0
 15 17  1  0
 10 18  1  0
 10 19  1  0
  4  5  2  0
  5  6  1  0
  6  7  2  0
  7  8  1  0
  8  9  2  0
  4  9  1  0
M  END

$$$$
No_1713-/export/home/yangzhenyu/potential_scad_32_flow//YTHDC2/2024-12-06-03-22-00/
     RDKit          3D

 19 21  0  0  0  0  0  0  0  0999 V2000
    1.1787   -8.0297    3.5154 C   0  0  0  0  0  0  0  0  0  0  0  0
    1.0491   -6.8434    2.9820 C   0  0  0  0  0  0  0  0  0  0  0  0
    0.9905   -9.0774    2.6527 C   0  0  0  0  0  0  0  0  0  0  0  0
    0.7897   -8.9519    1.3691 C   0  0  0  0  0  0  0  0  0  0  0  0
    0.7018   -7.7198    0.7892 C   0  0  0  0  0  0  0  0  0  0  0  0
    0.8918   -6.5957    1.6117 C   0  0  0  0  0  0  0  0  0  0  0  0
    1.0774  -10.6059    3.3145 C   0  0  0  0  0  0  0  0  0  0  0  0
    2.1444  -11.0408    3.6446 C   0  0  0  0  0  0  0  0  0  0  0  0
   -0.0506  -11.2314    3.3994 C   0  0  0  0  0  0  0  0  0  0  0  0
   -0.1534  -12.4640    3.1550 C   0  0  0  0  0  0  0  0  0  0  0  0
    2.2261  -12.4654    3.8102 C   0  0  0  0  0  0  0  0  0  0  0  0
   -1.2066  -13.2579    2.9207 C   0  0  0  0  0  0  0  0  0  0  0  0
    1.1471  -13.1967    3.5360 C   0  0  0  0  0  0  0  0  0  0  0  0
    1.1854  -14.5560    3.4847 C   0  0  0  0  0  0  0  0  0  0  0  0
    0.7938   -5.3015    1.0568 O   0  0  0  0  0  0  0  0  0  0  0  0
    0.0120  -15.2801    3.1664 C   0  0  0  0  0  0  0  0  0  0  0  0
   -1.1205  -14.6419    2.8149 C   0  0  0  0  0  0  0  0  0  0  0  0
    1.1732   -4.1848    1.8414 C   0  0  0  0  0  0  0  0  0  0  0  0
    0.0905  -16.7101    3.1210 Cl  0  0  0  0  0  0  0  0  0  0  0  0
  3  7  1  0
  6 15  1  0
 15 18  1  0
 16 19  1  0
  7  8  2  0
  8 11  1  0
 11 13  2  0
  9 10  2  0
  7  9  1  0
  1  2  2  0
  2  6  1  0
  5  6  2  0
  4  5  1  0
  3  4  2  0
  1  3  1  0
 10 12  1  0
 12 17  2  0
 16 17  1  0
 14 16  2  0
 13 14  1  0
 10 13  1  0
M  END

$$$$
No_1714-/export/home/yangzhenyu/potential_scad_32_flow//YTHDC2/2024-12-06-03-22-00/
     RDKit          3D

 18 20  0  0  0  0  0  0  0  0999 V2000
    1.1787   -8.0297    3.5154 C   0  0  0  0  0  0  0  0  0  0  0  0
    1.1048   -9.2215    3.2892 C   0  0  0  0  0  0  0  0  0  0  0  0
    1.3627  -10.1721    4.3044 C   0  0  0  0  0  0  0  0  0  0  0  0
    1.7354  -11.4730    3.9023 C   0  0  0  0  0  0  0  0  0  0  0  0
    1.8080  -11.8127    2.7216 C   0  0  0  0  0  0  0  0  0  0  0  0
    1.5854  -11.0021    1.7249 C   0  0  0  0  0  0  0  0  0  0  0  0
    1.3573   -9.7389    1.9287 C   0  0  0  0  0  0  0  0  0  0  0  0
    1.1102   -8.8712    0.9017 C   0  0  0  0  0  0  0  0  0  0  0  0
    0.5299   -7.6926    1.0325 C   0  0  0  0  0  0  0  0  0  0  0  0
    0.7526   -7.0802    2.3301 C   0  0  0  0  0  0  0  0  0  0  0  0
    1.9565  -13.6132    2.3981 O   0  0  0  0  0  0  0  0  0  0  0  0
    0.5542   -5.7003    2.5263 C   0  0  0  0  0  0  0  0  0  0  0  0
   -0.5396   -5.1085    2.1263 C   0  0  0  0  0  0  0  0  0  0  0  0
   -0.7261   -3.6636    2.2755 C   0  0  0  0  0  0  0  0  0  0  0  0
    2.0500  -14.0410    1.3956 C   0  0  0  0  0  0  0  0  0  0  0  0
   -0.1575   -2.8366    2.2787 C   0  0  0  0  0  0  0  0  0  0  0  0
    1.3370   -3.1899    2.6125 C   0  0  0  0  0  0  0  0  0  0  0  0
    1.6694   -4.6161    2.6615 C   0  0  0  0  0  0  0  0  0  0  0  0
  5 11  1  0
 10 12  1  0
 11 15  1  0
  1  2  2  0
  7  8  2  0
  8  9  1  0
  9 10  2  0
  1 10  1  0
  2  3  1  0
  3  4  2  0
  4  5  1  0
  5  6  2  0
  6  7  1  0
  2  7  1  0
 12 13  2  0
 13 14  1  0
 14 16  2  0
 16 17  1  0
 17 18  2  0
 12 18  1  0
M  END

$$$$
No_1715-/export/home/yangzhenyu/potential_scad_32_flow//YTHDC2/2024-12-06-03-22-00/
     RDKit          3D

 17 18  0  0  1  0  0  0  0  0999 V2000
    1.1787   -8.0297    3.5154 C   0  0  0  0  0  0  0  0  0  0  0  0
    1.1048   -9.2215    3.2892 C   0  0  0  0  0  0  0  0  0  0  0  0
    1.2339   -9.7611    2.0189 C   0  0  0  0  0  0  0  0  0  0  0  0
    1.3583   -9.0036    0.9764 C   0  0  0  0  0  0  0  0  0  0  0  0
    1.5996   -7.6362    1.1311 C   0  0  0  0  0  0  0  0  0  0  0  0
    1.4830   -7.0928    2.3626 C   0  0  0  0  0  0  0  0  0  0  0  0
    1.1008  -11.2372    1.8542 C   0  0  2  0  0  0  0  0  0  0  0  0
    1.9749  -12.0938    2.2342 C   0  0  0  0  0  0  0  0  0  0  0  0
    1.7533  -13.4231    1.8956 C   0  0  0  0  0  0  0  0  0  0  0  0
    0.5760  -13.4522    1.0640 C   0  0  0  0  0  0  0  0  0  0  0  0
    0.2982  -11.9865    0.9898 C   0  0  0  0  0  0  0  0  0  0  0  0
    1.5347   -5.6390    2.6210 Cl  0  0  0  0  0  0  0  0  0  0  0  0
    2.3858  -14.6506    2.1359 C   0  0  0  0  0  0  0  0  0  0  0  0
    1.8128  -15.5876    2.9596 C   0  0  1  0  0  0  0  0  0  0  0  0
    0.6388  -15.2794    3.6654 C   0  0  0  0  0  0  0  0  0  0  0  0
    2.1815  -16.8739    3.1603 C   0  0  0  0  0  0  0  0  0  0  0  0
    1.6248  -17.7983    3.9094 C   0  0  0  0  0  0  0  0  0  0  0  0
  7  3  1  6
  7  8  1  0
  8  9  2  0
  9 10  1  0
  7 11  1  0
 10 11  1  0
  6 12  1  0
  9 13  1  0
 13 14  1  0
 14 15  1  6
 14 16  1  0
 16 17  2  0
  1  2  2  0
  2  3  1  0
  3  4  2  0
  4  5  1  0
  5  6  2  0
  1  6  1  0
M  END

$$$$
No_1716-/export/home/yangzhenyu/potential_scad_32_flow//YTHDC2/2024-12-06-03-22-00/
     RDKit          3D

 18 18  0  0  1  0  0  0  0  0999 V2000
    1.1787   -8.0297    3.5154 C   0  0  0  0  0  0  0  0  0  0  0  0
    1.1048   -9.2215    3.2892 C   0  0  0  0  0  0  0  0  0  0  0  0
    1.2339   -9.7611    2.0189 C   0  0  0  0  0  0  0  0  0  0  0  0
    1.3583   -9.0036    0.9764 C   0  0  0  0  0  0  0  0  0  0  0  0
    1.5996   -7.6362    1.1311 C   0  0  0  0  0  0  0  0  0  0  0  0
    1.4830   -7.0928    2.3626 C   0  0  0  0  0  0  0  0  0  0  0  0
    1.4898   -5.7274    2.6199 C   0  0  0  0  0  0  0  0  0  0  0  0
    1.1681  -11.2222    1.8390 C   0  0  1  0  0  0  0  0  0  0  0  0
    0.7145  -11.5870    0.5424 N   0  0  0  0  0  0  0  0  0  0  0  0
    1.6013  -12.0513    2.6406 C   0  0  0  0  0  0  0  0  0  0  0  0
    0.9691  -13.0306    3.0185 C   0  0  0  0  0  0  0  0  0  0  0  0
    1.4511  -14.4077    2.9637 C   0  0  2  0  0  0  0  0  0  0  0  0
    2.5372  -14.7479    2.3692 C   0  0  0  0  0  0  0  0  0  0  0  0
    0.5969  -15.4352    3.5663 C   0  0  0  0  0  0  0  0  0  0  0  0
    1.7009   -5.1851    3.8636 O   0  0  0  0  0  0  0  0  0  0  0  0
    0.8673   -4.8353    1.7797 O   0  0  0  0  0  0  0  0  0  0  0  0
    2.8491  -16.1436    2.1921 C   0  0  0  0  0  0  0  0  0  0  0  0
    2.1279  -17.1829    2.7183 C   0  0  0  0  0  0  0  0  0  0  0  0
  6  7  1  0
  3  8  1  0
  8  9  1  6
  8 10  1  0
 10 11  1  0
 11 12  1  0
 12 13  1  0
 12 14  1  6
  7 15  1  0
  7 16  2  0
 13 17  2  3
 17 18  1  0
  1  2  2  0
  2  3  1  0
  3  4  2  0
  4  5  1  0
  5  6  2  0
  1  6  1  0
M  END

$$$$
No_1717-/export/home/yangzhenyu/potential_scad_32_flow//YTHDC2/2024-12-06-03-22-00/
     RDKit          3D

 11 11  0  0  0  0  0  0  0  0999 V2000
    1.1787   -8.0297    3.5154 C   0  0  0  0  0  0  0  0  0  0  0  0
    1.0491   -6.8434    2.9820 C   0  0  0  0  0  0  0  0  0  0  0  0
    0.9905   -9.0774    2.6527 C   0  0  0  0  0  0  0  0  0  0  0  0
    0.7897   -8.9519    1.3691 C   0  0  0  0  0  0  0  0  0  0  0  0
    0.7018   -7.7198    0.7892 C   0  0  0  0  0  0  0  0  0  0  0  0
    0.8918   -6.5957    1.6117 C   0  0  0  0  0  0  0  0  0  0  0  0
    1.0774  -10.6059    3.3145 C   0  0  0  0  0  0  0  0  0  0  0  0
    2.1444  -11.0408    3.6446 C   0  0  0  0  0  0  0  0  0  0  0  0
   -0.0506  -11.2314    3.3994 C   0  0  0  0  0  0  0  0  0  0  0  0
   -1.1898  -10.5223    3.9624 O   0  0  0  0  0  0  0  0  0  0  0  0
    2.4956  -10.9040    5.0486 O   0  0  0  0  0  0  0  0  0  0  0  0
  3  7  1  0
  7  8  1  0
  7  9  1  0
  9 10  1  0
  8 11  1  0
  1  2  2  0
  2  6  1  0
  5  6  2  0
  4  5  1  0
  3  4  2  0
  1  3  1  0
M  END

$$$$
No_1718-/export/home/yangzhenyu/potential_scad_32_flow//YTHDC2/2024-12-06-03-22-00/
     RDKit          3D

 18 19  0  0  0  0  0  0  0  0999 V2000
    1.1787   -8.0297    3.5154 C   0  0  0  0  0  0  0  0  0  0  0  0
    1.0491   -6.8434    2.9820 C   0  0  0  0  0  0  0  0  0  0  0  0
    1.9985   -8.9840    2.8958 C   0  0  0  0  0  0  0  0  0  0  0  0
    1.9135  -10.3404    3.6266 C   0  0  0  0  0  0  0  0  0  0  0  0
    1.3291  -11.3908    3.0222 C   0  0  0  0  0  0  0  0  0  0  0  0
    1.2749  -12.5326    3.7562 C   0  0  0  0  0  0  0  0  0  0  0  0
    0.4248   -6.6481    1.7861 C   0  0  0  0  0  0  0  0  0  0  0  0
    0.4186   -7.4786    1.0077 C   0  0  0  0  0  0  0  0  0  0  0  0
   -0.3862   -7.3284   -0.1933 C   0  0  0  0  0  0  0  0  0  0  0  0
   -0.4567   -8.3667   -1.2524 C   0  0  0  0  0  0  0  0  0  0  0  0
   -0.9854   -8.2433   -2.3079 N   0  0  0  0  0  0  0  0  0  0  0  0
    0.7618  -13.6770    3.1357 C   0  0  0  0  0  0  0  0  0  0  0  0
    0.4459  -13.6943    1.8677 C   0  0  0  0  0  0  0  0  0  0  0  0
    0.5901  -12.6266    1.0781 C   0  0  0  0  0  0  0  0  0  0  0  0
    1.1080  -11.4602    1.5835 C   0  0  0  0  0  0  0  0  0  0  0  0
   -1.5216   -7.1151   -2.4366 C   0  0  0  0  0  0  0  0  0  0  0  0
   -1.5942   -6.1039   -1.7046 C   0  0  0  0  0  0  0  0  0  0  0  0
   -1.0021   -6.2334   -0.4740 C   0  0  0  0  0  0  0  0  0  0  0  0
  1  2  1  0
  1  3  1  0
  3  4  1  0
  4  5  1  0
  2  7  1  0
  7  8  2  3
  8  9  1  0
  5  6  2  0
  6 12  1  0
 12 13  2  0
 13 14  1  0
 14 15  2  0
  5 15  1  0
  9 10  2  0
 10 11  1  0
 11 16  2  0
 16 17  1  0
 17 18  2  0
  9 18  1  0
M  END

$$$$
No_1719-/export/home/yangzhenyu/potential_scad_32_flow//YTHDC2/2024-12-06-03-22-00/
     RDKit          3D

 18 20  0  0  0  0  0  0  0  0999 V2000
    1.1787   -8.0297    3.5154 C   0  0  0  0  0  0  0  0  0  0  0  0
    1.0491   -6.8434    2.9820 C   0  0  0  0  0  0  0  0  0  0  0  0
    0.0950   -8.8404    3.2292 C   0  0  0  0  0  0  0  0  0  0  0  0
   -0.9173   -8.4596    2.5152 C   0  0  0  0  0  0  0  0  0  0  0  0
   -1.0331   -7.2162    2.0653 C   0  0  0  0  0  0  0  0  0  0  0  0
   -0.0105   -6.3168    2.3081 C   0  0  0  0  0  0  0  0  0  0  0  0
    0.1465  -10.2446    3.6981 C   0  0  0  0  0  0  0  0  0  0  0  0
    1.2433  -10.8239    4.0166 C   0  0  0  0  0  0  0  0  0  0  0  0
    1.0790  -12.2885    4.3779 N   0  0  0  0  0  0  0  0  0  0  0  0
    0.0124  -12.7573    3.8993 C   0  0  0  0  0  0  0  0  0  0  0  0
   -0.6559  -11.3969    3.4669 C   0  0  0  0  0  0  0  0  0  0  0  0
   -0.0729   -5.0188    1.8413 C   0  0  0  0  0  0  0  0  0  0  0  0
   -0.5051   -4.7214    0.6975 C   0  0  0  0  0  0  0  0  0  0  0  0
   -1.2352   -5.3004    0.1065 C   0  0  0  0  0  0  0  0  0  0  0  0
   -0.2798   -3.3089    0.2216 C   0  0  0  0  0  0  0  0  0  0  0  0
   -0.8069   -2.8590   -0.9643 C   0  0  0  0  0  0  0  0  0  0  0  0
   -1.5681   -3.6785   -1.6293 C   0  0  0  0  0  0  0  0  0  0  0  0
   -1.8623   -4.9166   -1.1998 C   0  0  0  0  0  0  0  0  0  0  0  0
  3  7  1  0
  7  8  2  0
  8  9  1  0
  9 10  2  0
  7 11  1  0
 10 11  1  0
  6 12  1  0
 12 13  1  0
  1  2  2  0
  2  6  1  0
  5  6  2  0
  4  5  1  0
  3  4  2  0
  1  3  1  0
 13 14  2  0
 14 18  1  0
 17 18  2  0
 16 17  1  0
 15 16  2  0
 13 15  1  0
M  END

$$$$
No_1720-/export/home/yangzhenyu/potential_scad_32_flow//YTHDC2/2024-12-06-03-22-00/
     RDKit          3D

 17 17  0  0  1  0  0  0  0  0999 V2000
    1.1787   -8.0297    3.5154 C   0  0  0  0  0  0  0  0  0  0  0  0
    1.0491   -6.8434    2.9820 C   0  0  0  0  0  0  0  0  0  0  0  0
    0.0950   -8.8404    3.2292 C   0  0  0  0  0  0  0  0  0  0  0  0
    0.0602  -10.1764    3.8231 C   0  0  0  0  0  0  0  0  0  0  0  0
    0.2248   -6.3830    2.0648 C   0  0  0  0  0  0  0  0  0  0  0  0
   -0.6745   -7.2322    1.6857 C   0  0  0  0  0  0  0  0  0  0  0  0
   -0.7374   -8.4992    2.1291 C   0  0  0  0  0  0  0  0  0  0  0  0
   -0.1792  -11.3045    3.0702 C   0  0  0  0  0  0  0  0  0  0  0  0
    0.7825  -12.3781    3.1611 C   0  0  1  0  0  0  0  0  0  0  0  0
    1.9699  -12.1253    3.5164 C   0  0  0  0  0  0  0  0  0  0  0  0
    0.4352   -5.1058    1.4255 C   0  0  0  0  0  0  0  0  0  0  0  0
    0.2930  -13.6732    3.7943 C   0  0  0  0  0  0  0  0  0  0  0  0
    1.3225   -4.2608    1.9089 C   0  0  0  0  0  0  0  0  0  0  0  0
    1.3718   -2.8979    1.3896 C   0  0  0  0  0  0  0  0  0  0  0  0
    1.0880  -14.8097    3.2542 C   0  0  0  0  0  0  0  0  0  0  0  0
    2.0318  -14.5460    2.1596 C   0  0  0  0  0  0  0  0  0  0  0  0
    2.7760  -11.3848    2.5525 C   0  0  0  0  0  0  0  0  0  0  0  0
  3  4  1  0
  4  8  1  0
  9  8  1  1
  9 10  1  0
  5 11  1  0
  9 12  1  0
 11 13  2  3
 13 14  1  0
 12 15  1  0
 15 16  1  0
 10 17  1  0
  1  2  2  0
  2  5  1  0
  5  6  2  0
  6  7  1  0
  3  7  2  0
  1  3  1  0
M  END

$$$$
No_1721-/export/home/yangzhenyu/potential_scad_32_flow//YTHDC2/2024-12-06-03-22-00/
     RDKit          3D

 19 21  0  0  0  0  0  0  0  0999 V2000
    1.1787   -8.0297    3.5154 C   0  0  0  0  0  0  0  0  0  0  0  0
    1.1048   -9.2215    3.2892 C   0  0  0  0  0  0  0  0  0  0  0  0
    1.3627  -10.1721    4.3044 C   0  0  0  0  0  0  0  0  0  0  0  0
    1.0682  -11.5187    4.0618 C   0  0  0  0  0  0  0  0  0  0  0  0
    0.6332  -11.9655    2.9682 C   0  0  0  0  0  0  0  0  0  0  0  0
    0.4776  -11.1308    1.9203 C   0  0  0  0  0  0  0  0  0  0  0  0
    0.7470   -9.8274    2.0368 C   0  0  0  0  0  0  0  0  0  0  0  0
    1.0387   -7.0301    2.5175 C   0  0  0  0  0  0  0  0  0  0  0  0
    0.9130   -7.5288    1.2013 C   0  0  0  0  0  0  0  0  0  0  0  0
    0.7893   -8.7979    0.9542 C   0  0  0  0  0  0  0  0  0  0  0  0
    0.5241   -9.2578   -0.2817 C   0  0  0  0  0  0  0  0  0  0  0  0
   -0.7560   -9.7391   -0.6285 O   0  0  0  0  0  0  0  0  0  0  0  0
    1.1160   -8.6749   -1.3392 O   0  0  0  0  0  0  0  0  0  0  0  0
    0.5047  -13.3701    2.6851 C   0  0  0  0  0  0  0  0  0  0  0  0
    0.9597  -14.0410    1.7734 C   0  0  0  0  0  0  0  0  0  0  0  0
    0.3899  -14.6441    0.9447 C   0  0  0  0  0  0  0  0  0  0  0  0
   -0.8532  -14.9656    0.9154 C   0  0  0  0  0  0  0  0  0  0  0  0
   -1.4529  -14.5387    2.2291 C   0  0  0  0  0  0  0  0  0  0  0  0
   -0.7404  -13.7969    3.0688 C   0  0  0  0  0  0  0  0  0  0  0  0
 10 11  1  0
 11 12  2  0
 11 13  1  0
  5 14  1  0
  2  3  1  0
  3  4  2  0
  4  5  1  0
  5  6  2  0
  6  7  1  0
  1  2  2  0
  2  7  1  0
  7 10  2  0
  9 10  1  0
  8  9  2  0
  1  8  1  0
 14 15  2  0
 15 16  1  0
 16 17  2  0
 17 18  1  0
 18 19  2  0
 14 19  1  0
M  END

$$$$
No_1722-/export/home/yangzhenyu/potential_scad_32_flow//YTHDC2/2024-12-06-03-22-00/
     RDKit          3D

 21 21  0  0  1  0  0  0  0  0999 V2000
    1.1787   -8.0297    3.5154 C   0  0  0  0  0  0  0  0  0  0  0  0
    1.0491   -6.8434    2.9820 C   0  0  0  0  0  0  0  0  0  0  0  0
    1.0690   -9.1150    2.7206 C   0  0  0  0  0  0  0  0  0  0  0  0
    0.9689   -6.6391    1.6260 C   0  0  0  0  0  0  0  0  0  0  0  0
    0.9670   -9.0334    1.3824 C   0  0  0  0  0  0  0  0  0  0  0  0
    0.7641  -10.1483    0.4695 C   0  0  0  0  0  0  0  0  0  0  0  0
    0.8413   -7.7010    0.7982 C   0  0  0  0  0  0  0  0  0  0  0  0
    0.0880   -9.8006   -0.7641 O   0  0  0  0  0  0  0  0  0  0  0  0
    1.0888  -11.2435    0.6107 O   0  0  0  0  0  0  0  0  0  0  0  0
    0.9342   -5.3317    1.1336 C   0  0  0  0  0  0  0  0  0  0  0  0
    1.1952  -10.4806    3.2828 C   0  0  1  0  0  0  0  0  0  0  0  0
    2.5784  -10.9353    3.5941 C   0  0  0  0  0  0  0  0  0  0  0  0
    0.1857  -11.1729    3.6664 C   0  0  0  0  0  0  0  0  0  0  0  0
    2.4885  -12.0604    4.4373 O   0  0  0  0  0  0  0  0  0  0  0  0
    1.6231   -4.3487    1.7318 O   0  0  0  0  0  0  0  0  0  0  0  0
    0.2915   -4.9776    0.1939 O   0  0  0  0  0  0  0  0  0  0  0  0
   -0.1255  -12.3502    3.1884 O   0  0  0  0  0  0  0  0  0  0  0  0
   -0.7398  -10.5671    4.4813 N   0  0  0  0  0  0  0  0  0  0  0  0
   -1.9526  -10.4071    4.4258 C   0  0  0  0  0  0  0  0  0  0  0  0
   -2.5382   -9.8019    3.7179 C   0  0  0  0  0  0  0  0  0  0  0  0
   -3.9605   -9.5189    3.7323 C   0  0  0  0  0  0  0  0  0  0  0  0
  5  6  1  0
  6  8  1  0
  6  9  2  0
  4 10  1  0
  3 11  1  0
 11 12  1  1
 11 13  1  0
 12 14  1  0
 10 15  2  0
 10 16  1  0
 13 17  2  0
 13 18  1  0
 18 19  1  0
 19 20  2  3
 20 21  1  0
  1  2  2  0
  2  4  1  0
  4  7  2  0
  5  7  1  0
  3  5  2  0
  1  3  1  0
M  END

$$$$
No_1723-/export/home/yangzhenyu/potential_scad_32_flow//YTHDC2/2024-12-06-03-22-00/
     RDKit          3D

 18 19  0  0  0  0  0  0  0  0999 V2000
    1.1787   -8.0297    3.5154 C   0  0  0  0  0  0  0  0  0  0  0  0
    1.1048   -9.2215    3.2892 C   0  0  0  0  0  0  0  0  0  0  0  0
    1.3627  -10.1721    4.3044 C   0  0  0  0  0  0  0  0  0  0  0  0
    1.0682  -11.5187    4.0618 C   0  0  0  0  0  0  0  0  0  0  0  0
    0.6332  -11.9655    2.9682 C   0  0  0  0  0  0  0  0  0  0  0  0
    0.6698  -11.3145    2.0035 C   0  0  0  0  0  0  0  0  0  0  0  0
    0.9069   -9.8966    2.0084 C   0  0  0  0  0  0  0  0  0  0  0  0
    0.9669   -7.0142    2.6358 N   0  0  0  0  0  0  0  0  0  0  0  0
    0.9549   -7.5834    1.2798 C   0  0  0  0  0  0  0  0  0  0  0  0
    0.8754   -8.8014    0.9744 C   0  0  0  0  0  0  0  0  0  0  0  0
    0.8147   -9.2014   -0.2981 O   0  0  0  0  0  0  0  0  0  0  0  0
    0.5438  -13.6345    2.7018 C   0  0  0  0  0  0  0  0  0  0  0  0
   -0.6372  -14.0477    2.4498 O   0  0  0  0  0  0  0  0  0  0  0  0
    1.5624  -14.3824    3.1217 O   0  0  0  0  0  0  0  0  0  0  0  0
    0.9649   -6.6166    0.2586 O   0  0  0  0  0  0  0  0  0  0  0  0
   -0.7467  -15.4079    2.2474 C   0  0  0  0  0  0  0  0  0  0  0  0
   -1.3820  -15.9235    3.1392 C   0  0  0  0  0  0  0  0  0  0  0  0
   -2.6216  -15.9057    3.2138 C   0  0  0  0  0  0  0  0  0  0  0  0
  1  2  1  0
  8  9  1  0
  7 10  1  0
  9 10  1  0
 10 11  2  0
  5 12  1  0
 12 13  1  0
 12 14  2  0
  9 15  2  0
 13 16  1  0
 16 17  1  0
 17 18  1  0
  1  8  1  0
  2  3  2  0
  3  4  1  0
  4  5  2  0
  5  6  1  0
  6  7  2  0
  2  7  1  0
M  END

$$$$
No_1724-/export/home/yangzhenyu/potential_scad_32_flow//YTHDC2/2024-12-06-03-22-00/
     RDKit          3D

 19 19  0  0  1  0  0  0  0  0999 V2000
    1.1787   -8.0297    3.5154 O   0  0  0  0  0  0  0  0  0  0  0  0
    0.9969   -8.9689    3.0048 C   0  0  0  0  0  0  0  0  0  0  0  0
    1.3055  -10.1056    3.6616 C   0  0  0  0  0  0  0  0  0  0  0  0
    1.1249  -11.3503    3.0941 C   0  0  0  0  0  0  0  0  0  0  0  0
    0.6932  -11.4484    1.8586 C   0  0  0  0  0  0  0  0  0  0  0  0
    0.5498  -10.3736    1.0579 C   0  0  0  0  0  0  0  0  0  0  0  0
    0.7643   -9.1185    1.6383 C   0  0  0  0  0  0  0  0  0  0  0  0
    0.5937   -7.8467    1.0482 C   0  0  0  0  0  0  0  0  0  0  0  0
    1.5294   -7.0230    1.0749 O   0  0  0  0  0  0  0  0  0  0  0  0
   -0.4082   -7.5594    0.2790 O   0  0  0  0  0  0  0  0  0  0  0  0
    1.1857  -12.6455    3.8343 C   0  0  0  0  0  0  0  0  0  0  0  0
    0.4214  -13.7504    3.2093 O   0  0  0  0  0  0  0  0  0  0  0  0
    1.3231  -14.8586    3.1183 C   0  0  0  0  0  0  0  0  0  0  0  0
    0.5884  -16.0705    2.9730 C   0  0  0  0  0  0  0  0  0  0  0  0
    1.1148  -17.1105    3.5615 C   0  0  2  0  0  0  0  0  0  0  0  0
    2.4239  -17.4722    3.1633 C   0  0  0  0  0  0  0  0  0  0  0  0
    3.1631  -16.6700    2.2541 N   0  0  0  0  0  0  0  0  0  0  0  0
    3.0382  -18.5879    3.5743 O   0  0  0  0  0  0  0  0  0  0  0  0
    0.4957  -18.0580    4.3076 C   0  0  0  0  0  0  0  0  0  0  0  0
  1  2  1  0
  7  8  1  0
  8  9  1  0
  8 10  2  0
  4 11  1  0
 11 12  1  0
 12 13  1  0
 13 14  1  0
 14 15  1  0
 15 16  1  0
 16 17  1  0
 16 18  2  0
 15 19  1  6
  2  3  2  0
  3  4  1  0
  4  5  2  0
  5  6  1  0
  6  7  2  0
  2  7  1  0
M  END

$$$$
No_1725-/export/home/yangzhenyu/potential_scad_32_flow//YTHDC2/2024-12-06-03-22-00/
     RDKit          3D

 17 17  0  0  0  0  0  0  0  0999 V2000
    1.1787   -8.0297    3.5154 C   0  0  0  0  0  0  0  0  0  0  0  0
    1.1048   -9.2215    3.2892 C   0  0  0  0  0  0  0  0  0  0  0  0
    1.3627  -10.1721    4.3044 C   0  0  0  0  0  0  0  0  0  0  0  0
    1.7354  -11.4730    3.9023 C   0  0  0  0  0  0  0  0  0  0  0  0
    1.8080  -11.8127    2.7216 C   0  0  0  0  0  0  0  0  0  0  0  0
    1.5854  -11.0021    1.7249 C   0  0  0  0  0  0  0  0  0  0  0  0
    1.3573   -9.7389    1.9287 C   0  0  0  0  0  0  0  0  0  0  0  0
    1.1102   -8.8712    0.9017 C   0  0  0  0  0  0  0  0  0  0  0  0
    0.5299   -7.6926    1.0325 O   0  0  0  0  0  0  0  0  0  0  0  0
    1.1841   -9.3630   -0.4581 O   0  0  0  0  0  0  0  0  0  0  0  0
    2.1111  -13.2043    2.3260 C   0  0  0  0  0  0  0  0  0  0  0  0
    2.4381  -13.5919    1.0739 O   0  0  0  0  0  0  0  0  0  0  0  0
    1.7621  -14.2400    3.1264 N   0  0  0  0  0  0  0  0  0  0  0  0
    1.8851  -15.5502    2.8388 N   0  0  0  0  0  0  0  0  0  0  0  0
    0.9820  -16.4059    3.0727 C   0  0  0  0  0  0  0  0  0  0  0  0
   -0.0341  -16.0864    3.7188 C   0  0  0  0  0  0  0  0  0  0  0  0
    1.1858  -17.6552    2.5899 C   0  0  0  0  0  0  0  0  0  0  0  0
  1  2  1  0
  7  8  1  0
  8  9  2  0
  8 10  1  0
  5 11  1  0
 11 12  2  0
 11 13  1  0
 13 14  1  0
 14 15  1  0
 15 16  1  0
 15 17  1  0
  2  3  2  0
  3  4  1  0
  4  5  2  0
  5  6  1  0
  6  7  2  0
  2  7  1  0
M  END

$$$$
No_1726-/export/home/yangzhenyu/potential_scad_32_flow//YTHDC2/2024-12-06-03-22-00/
     RDKit          3D

 19 20  0  0  1  0  0  0  0  0999 V2000
    1.1787   -8.0297    3.5154 C   0  0  0  0  0  0  0  0  0  0  0  0
    1.1048   -9.2215    3.2892 C   0  0  0  0  0  0  0  0  0  0  0  0
    1.3627  -10.1721    4.3044 C   0  0  0  0  0  0  0  0  0  0  0  0
    2.3720  -10.8948    4.2468 C   0  0  0  0  0  0  0  0  0  0  0  0
    1.0579   -7.0441    2.4219 C   0  0  0  0  0  0  0  0  0  0  0  0
    0.9008   -7.8163    1.1995 C   0  0  0  0  0  0  0  0  0  0  0  0
    0.8844   -9.0182    1.0022 C   0  0  0  0  0  0  0  0  0  0  0  0
    0.9598   -9.8675    2.0296 C   0  0  0  0  0  0  0  0  0  0  0  0
    2.1224  -11.9206    3.2336 C   0  0  2  0  0  0  0  0  0  0  0  0
    1.6631  -11.1337    1.8938 C   0  0  0  0  0  0  0  0  0  0  0  0
    1.0612   -5.6501    2.4932 C   0  0  0  0  0  0  0  0  0  0  0  0
    1.7419   -5.2057    3.4530 C   0  0  0  0  0  0  0  0  0  0  0  0
    1.5527   -3.6949    3.5016 O   0  0  0  0  0  0  0  0  0  0  0  0
    2.1260  -13.1895    3.2117 C   0  0  0  0  0  0  0  0  0  0  0  0
    1.3962  -13.9899    2.3081 C   0  0  0  0  0  0  0  0  0  0  0  0
    1.3857  -15.2733    2.4095 N   0  0  0  0  0  0  0  0  0  0  0  0
    0.4229  -15.8862    2.9797 C   0  0  0  0  0  0  0  0  0  0  0  0
   -0.7060  -15.3827    3.1400 C   0  0  0  0  0  0  0  0  0  0  0  0
   -1.7242  -16.3303    3.6383 C   0  0  0  0  0  0  0  0  0  0  0  0
  2  3  1  0
  3  4  1  0
  4  9  1  0
  8 10  1  0
  9 10  1  0
  5 11  1  0
 11 12  1  0
 12 13  1  0
  9 14  1  1
 14 15  1  0
 15 16  1  0
 16 17  1  0
 17 18  1  0
 18 19  2  0
  1  2  2  0
  2  8  1  0
  7  8  2  0
  6  7  1  0
  5  6  2  0
  1  5  1  0
M  END

$$$$
No_1727-/export/home/yangzhenyu/potential_scad_32_flow//YTHDC2/2024-12-06-03-22-00/
     RDKit          3D

 18 18  0  0  1  0  0  0  0  0999 V2000
    1.1787   -8.0297    3.5154 C   0  0  0  0  0  0  0  0  0  0  0  0
    1.0491   -6.8434    2.9820 C   0  0  0  0  0  0  0  0  0  0  0  0
    0.0950   -8.8404    3.2292 C   0  0  0  0  0  0  0  0  0  0  0  0
   -0.9173   -8.4596    2.5152 C   0  0  0  0  0  0  0  0  0  0  0  0
   -1.0331   -7.2162    2.0653 C   0  0  0  0  0  0  0  0  0  0  0  0
   -0.0105   -6.3168    2.3081 C   0  0  0  0  0  0  0  0  0  0  0  0
    0.1465  -10.2446    3.6981 C   0  0  0  0  0  0  0  0  0  0  0  0
    1.2433  -10.8239    4.0166 C   0  0  0  0  0  0  0  0  0  0  0  0
    1.0790  -12.2885    4.3779 C   0  0  0  0  0  0  0  0  0  0  0  0
    0.8834  -12.9822    3.2583 C   0  0  0  0  0  0  0  0  0  0  0  0
    0.9855  -14.4349    3.3223 C   0  0  0  0  0  0  0  0  0  0  0  0
    1.2040  -15.2012    2.1256 C   0  0  0  0  0  0  0  0  0  0  0  0
    1.0345  -14.5412    0.9681 C   0  0  1  0  0  0  0  0  0  0  0  0
    0.9442  -13.1796    0.8630 Cl  0  0  0  0  0  0  0  0  0  0  0  0
    1.1169  -15.4312   -0.0756 C   0  0  0  0  0  0  0  0  0  0  0  0
   -0.0795   -5.0422    1.8316 C   0  0  0  0  0  0  0  0  0  0  0  0
   -0.7923   -4.1510    2.2808 N   0  0  0  0  0  0  0  0  0  0  0  0
    0.8131   -4.6290    0.9696 O   0  0  0  0  0  0  0  0  0  0  0  0
  3  7  1  0
  7  8  2  3
  8  9  1  0
  9 10  2  3
 10 11  1  0
 11 12  2  3
 12 13  1  0
 13 14  1  0
 13 15  1  6
  6 16  1  0
 16 17  1  0
 16 18  2  0
  1  2  2  0
  2  6  1  0
  5  6  2  0
  4  5  1  0
  3  4  2  0
  1  3  1  0
M  END

$$$$
No_1728-/export/home/yangzhenyu/potential_scad_32_flow//YTHDC2/2024-12-06-03-22-00/
     RDKit          3D

 19 21  0  0  1  0  0  0  0  0999 V2000
    1.1787   -8.0297    3.5154 C   0  0  0  0  0  0  0  0  0  0  0  0
    1.1048   -9.2215    3.2892 C   0  0  0  0  0  0  0  0  0  0  0  0
    1.2339   -9.7611    2.0189 C   0  0  1  0  0  0  0  0  0  0  0  0
    1.1954  -11.2312    1.8661 C   0  0  0  0  0  0  0  0  0  0  0  0
    1.5546  -12.1691    2.7931 C   0  0  0  0  0  0  0  0  0  0  0  0
    0.5849   -7.0929    2.5729 C   0  0  2  0  0  0  0  0  0  0  0  0
    0.5567   -7.6699    1.1955 C   0  0  0  0  0  0  0  0  0  0  0  0
    0.7903   -8.9699    0.9209 C   0  0  0  0  0  0  0  0  0  0  0  0
    0.7585  -13.2773    2.9106 C   0  0  0  0  0  0  0  0  0  0  0  0
    0.6440  -14.0551    1.7567 C   0  0  0  0  0  0  0  0  0  0  0  0
    0.2840  -13.0831    0.5849 C   0  0  0  0  0  0  0  0  0  0  0  0
    1.0159  -11.8389    0.6142 C   0  0  0  0  0  0  0  0  0  0  0  0
    0.6209   -5.6449    2.6414 C   0  0  0  0  0  0  0  0  0  0  0  0
    0.3468   -6.8733    0.1652 O   0  0  0  0  0  0  0  0  0  0  0  0
   -0.6028   -5.0309    2.5576 C   0  0  0  0  0  0  0  0  0  0  0  0
    1.7756   -4.8841    2.9973 C   0  0  0  0  0  0  0  0  0  0  0  0
   -0.6488   -3.6357    2.5647 C   0  0  0  0  0  0  0  0  0  0  0  0
    0.4685   -2.8960    2.6832 C   0  0  0  0  0  0  0  0  0  0  0  0
    1.6607   -3.5324    2.8722 C   0  0  0  0  0  0  0  0  0  0  0  0
  1  2  1  0
  3  4  1  1
  4  5  1  0
  6  7  1  0
  3  8  1  0
  7  8  1  0
  5  9  1  0
  9 10  1  0
 10 11  1  0
  4 12  1  0
 11 12  1  0
  6 13  1  6
  7 14  2  0
  1  6  1  0
  2  3  1  0
 13 15  2  0
 15 17  1  0
 17 18  2  0
 18 19  1  0
 16 19  2  0
 13 16  1  0
M  END

$$$$
No_1729-/export/home/yangzhenyu/potential_scad_32_flow//YTHDC2/2024-12-06-03-22-00/
     RDKit          3D

 18 18  0  0  0  0  0  0  0  0999 V2000
    1.1787   -8.0297    3.5154 C   0  0  0  0  0  0  0  0  0  0  0  0
    1.0491   -6.8434    2.9820 C   0  0  0  0  0  0  0  0  0  0  0  0
    0.0950   -8.8404    3.2292 C   0  0  0  0  0  0  0  0  0  0  0  0
   -0.9173   -8.4596    2.5152 C   0  0  0  0  0  0  0  0  0  0  0  0
   -1.0331   -7.2162    2.0653 C   0  0  0  0  0  0  0  0  0  0  0  0
   -0.0105   -6.3168    2.3081 C   0  0  0  0  0  0  0  0  0  0  0  0
    0.0485   -4.9783    1.8782 C   0  0  0  0  0  0  0  0  0  0  0  0
   -0.6974   -4.6139    0.8644 N   0  0  0  0  0  0  0  0  0  0  0  0
    1.1225   -4.1435    2.1836 O   0  0  0  0  0  0  0  0  0  0  0  0
    0.1681  -10.2798    3.6512 C   0  0  0  0  0  0  0  0  0  0  0  0
   -1.0484  -10.9644    3.7962 C   0  0  0  0  0  0  0  0  0  0  0  0
    1.4188  -10.9514    4.0736 C   0  0  0  0  0  0  0  0  0  0  0  0
    2.6263  -10.4040    4.1676 C   0  0  0  0  0  0  0  0  0  0  0  0
    1.1019  -12.1972    4.5292 O   0  0  0  0  0  0  0  0  0  0  0  0
   -0.7111   -3.2594    0.3683 C   0  0  0  0  0  0  0  0  0  0  0  0
   -0.3067   -3.0603   -0.8737 C   0  0  0  0  0  0  0  0  0  0  0  0
   -0.0859   -1.7412   -1.3478 C   0  0  0  0  0  0  0  0  0  0  0  0
   -0.5205   -0.7054   -0.5471 C   0  0  0  0  0  0  0  0  0  0  0  0
  6  7  1  0
  7  8  1  0
  7  9  2  0
  3 10  1  0
 10 11  2  0
 10 12  1  0
 12 13  1  0
 12 14  2  0
  8 15  1  0
 15 16  1  0
 16 17  2  3
 17 18  1  0
  1  2  2  0
  2  6  1  0
  5  6  2  0
  4  5  1  0
  3  4  2  0
  1  3  1  0
M  END

$$$$
No_1730-/export/home/yangzhenyu/potential_scad_32_flow//YTHDC2/2024-12-06-03-22-00/
     RDKit          3D

 17 19  0  0  0  0  0  0  0  0999 V2000
    1.1787   -8.0297    3.5154 N   0  0  0  0  0  0  0  0  0  0  0  0
    1.0818   -9.0751    3.2053 C   0  0  0  0  0  0  0  0  0  0  0  0
    0.7576   -9.3725    1.9159 C   0  0  0  0  0  0  0  0  0  0  0  0
    0.7445  -10.8746    1.6491 C   0  0  0  0  0  0  0  0  0  0  0  0
    0.9910  -11.7526    2.6067 C   0  0  0  0  0  0  0  0  0  0  0  0
    1.4405  -11.4331    3.8064 C   0  0  0  0  0  0  0  0  0  0  0  0
    1.4304  -10.0463    4.1669 C   0  0  0  0  0  0  0  0  0  0  0  0
    1.1357   -6.7948    2.7839 C   0  0  0  0  0  0  0  0  0  0  0  0
    1.2410   -7.1363    1.3557 C   0  0  0  0  0  0  0  0  0  0  0  0
    1.0598   -8.4294    0.9501 C   0  0  0  0  0  0  0  0  0  0  0  0
    0.8901  -13.3982    2.1943 C   0  0  0  0  0  0  0  0  0  0  0  0
    1.8984  -14.0395    2.3289 C   0  0  0  0  0  0  0  0  0  0  0  0
    1.4190   -5.4997    3.2345 C   0  0  0  0  0  0  0  0  0  0  0  0
    1.7450  -15.3470    2.1051 C   0  0  0  0  0  0  0  0  0  0  0  0
    0.6041  -15.8568    1.6367 C   0  0  0  0  0  0  0  0  0  0  0  0
   -0.4811  -15.0717    1.5241 C   0  0  0  0  0  0  0  0  0  0  0  0
   -0.3377  -13.7585    1.8843 C   0  0  0  0  0  0  0  0  0  0  0  0
  5 11  1  0
  8 13  1  0
  3  4  1  0
  4  5  2  0
  5  6  1  0
  6  7  2  0
  2  7  1  0
  1  2  2  0
  2  3  1  0
  3 10  2  0
  9 10  1  0
  8  9  2  0
  1  8  1  0
 11 12  2  0
 12 14  1  0
 14 15  2  0
 15 16  1  0
 16 17  2  0
 11 17  1  0
M  END

$$$$
No_1731-/export/home/yangzhenyu/potential_scad_32_flow//YTHDC2/2024-12-06-03-22-00/
     RDKit          3D

 17 17  0  0  1  0  0  0  0  0999 V2000
    1.1787   -8.0297    3.5154 C   0  0  0  0  0  0  0  0  0  0  0  0
    1.0491   -6.8434    2.9820 N   0  0  0  0  0  0  0  0  0  0  0  0
    1.0164   -9.0814    2.6596 C   0  0  0  0  0  0  0  0  0  0  0  0
    0.8420   -8.8183    1.4191 C   0  0  2  0  0  0  0  0  0  0  0  0
    0.7457   -9.7009    0.4317 C   0  0  0  0  0  0  0  0  0  0  0  0
    0.9440   -7.3512    1.2766 C   0  0  0  0  0  0  0  0  0  0  0  0
    0.5661  -10.9247    0.7915 O   0  0  0  0  0  0  0  0  0  0  0  0
    0.6636   -9.2781   -0.8437 O   0  0  0  0  0  0  0  0  0  0  0  0
    1.1370  -10.4726    3.1946 C   0  0  0  0  0  0  0  0  0  0  0  0
    2.5423  -11.0384    3.3492 C   0  0  0  0  0  0  0  0  0  0  0  0
    2.6216  -11.8356    4.5114 C   0  0  0  0  0  0  0  0  0  0  0  0
    1.1994   -5.4539    3.1989 C   0  0  0  0  0  0  0  0  0  0  0  0
    1.7523  -12.9134    4.2428 O   0  0  0  0  0  0  0  0  0  0  0  0
    0.1131   -4.6779    3.2575 C   0  0  0  0  0  0  0  0  0  0  0  0
    0.2362   -3.2647    3.4418 C   0  0  0  0  0  0  0  0  0  0  0  0
   -0.9316   -2.5389    3.5623 C   0  0  0  0  0  0  0  0  0  0  0  0
   -2.0864   -3.2088    3.1941 C   0  0  0  0  0  0  0  0  0  0  0  0
  1  2  1  0
  1  3  2  0
  3  4  1  0
  4  5  1  6
  2  6  1  0
  4  6  1  0
  5  7  2  0
  5  8  1  0
  3  9  1  0
  9 10  1  0
 10 11  1  0
  2 12  1  0
 11 13  1  0
 12 14  1  0
 14 15  2  3
 15 16  1  0
 16 17  2  0
M  END

$$$$
No_1732-/export/home/yangzhenyu/potential_scad_32_flow//YTHDC2/2024-12-06-03-22-00/
     RDKit          3D

 18 18  0  0  0  0  0  0  0  0999 V2000
    1.1787   -8.0297    3.5154 N   0  0  0  0  0  0  0  0  0  0  0  0
    1.0818   -9.0751    3.2053 C   0  0  0  0  0  0  0  0  0  0  0  0
    0.7576   -9.3725    1.9159 C   0  0  0  0  0  0  0  0  0  0  0  0
    0.8823   -8.4917    1.0547 C   0  0  0  0  0  0  0  0  0  0  0  0
    1.4631   -7.3107    1.2451 C   0  0  0  0  0  0  0  0  0  0  0  0
    1.6470   -6.9326    2.5669 C   0  0  0  0  0  0  0  0  0  0  0  0
    0.8237  -10.1305    4.2407 C   0  0  0  0  0  0  0  0  0  0  0  0
   -0.4178  -10.6899    4.4426 O   0  0  0  0  0  0  0  0  0  0  0  0
    1.9165  -10.9323    4.6269 N   0  0  0  0  0  0  0  0  0  0  0  0
    0.8379   -8.9145   -0.4020 C   0  0  0  0  0  0  0  0  0  0  0  0
   -0.4888   -9.1250   -0.7369 O   0  0  0  0  0  0  0  0  0  0  0  0
    1.6271   -8.8749   -1.2744 O   0  0  0  0  0  0  0  0  0  0  0  0
    1.8084   -5.6320    3.0343 C   0  0  0  0  0  0  0  0  0  0  0  0
    1.0576   -4.7886    3.2072 O   0  0  0  0  0  0  0  0  0  0  0  0
    1.4304   -3.5071    3.5687 C   0  0  0  0  0  0  0  0  0  0  0  0
    1.6875   -2.8144    2.3668 C   0  0  0  0  0  0  0  0  0  0  0  0
    2.7687   -2.6076    2.2507 O   0  0  0  0  0  0  0  0  0  0  0  0
    0.8140   -2.7969    1.4503 O   0  0  0  0  0  0  0  0  0  0  0  0
  2  7  1  0
  7  8  2  0
  7  9  1  0
  4 10  1  0
 10 11  2  0
 10 12  1  0
  6 13  1  0
 13 14  1  0
 14 15  1  0
 15 16  1  0
 16 17  2  0
 16 18  1  0
  1  2  2  0
  2  3  1  0
  3  4  2  0
  4  5  1  0
  5  6  2  0
  1  6  1  0
M  END

$$$$
No_1733-/export/home/yangzhenyu/potential_scad_32_flow//YTHDC2/2024-12-06-03-22-00/
     RDKit          3D

 20 22  0  0  1  0  0  0  0  0999 V2000
    1.1787   -8.0297    3.5154 S   0  0  0  0  0  0  0  0  0  0  0  0
    0.9303   -9.3504    3.2709 C   0  0  2  0  0  0  0  0  0  0  0  0
    1.5237  -10.2642    4.1775 C   0  0  0  0  0  0  0  0  0  0  0  0
    0.7033   -7.2574    2.1090 C   0  0  0  0  0  0  0  0  0  0  0  0
    0.3441   -8.0038    1.2433 C   0  0  0  0  0  0  0  0  0  0  0  0
    0.2437   -9.2562    1.0119 C   0  0  0  0  0  0  0  0  0  0  0  0
    0.6482  -10.0634    2.0704 C   0  0  0  0  0  0  0  0  0  0  0  0
    0.9808  -11.5902    4.3792 N   0  0  0  0  0  0  0  0  0  0  0  0
    0.5071  -12.0913    3.2634 C   0  0  0  0  0  0  0  0  0  0  0  0
    0.3037  -11.3830    2.0930 C   0  0  2  0  0  0  0  0  0  0  0  0
    0.2540  -13.3836    3.2165 N   0  0  0  0  0  0  0  0  0  0  0  0
    0.9067   -5.7408    2.0637 C   0  0  0  0  0  0  0  0  0  0  0  0
   -0.0045  -12.2306    1.0852 C   0  0  0  0  0  0  0  0  0  0  0  0
   -0.0615  -13.5136    1.0453 C   0  0  0  0  0  0  0  0  0  0  0  0
    0.0500  -14.1083    2.2258 C   0  0  1  0  0  0  0  0  0  0  0  0
    0.0257  -15.4621    2.3271 C   0  0  0  0  0  0  0  0  0  0  0  0
    1.1877  -16.2267    2.5659 N   0  0  0  0  0  0  0  0  0  0  0  0
    1.2315  -17.4785    2.9134 C   0  0  0  0  0  0  0  0  0  0  0  0
    2.5452  -18.1083    2.7824 C   0  0  0  0  0  0  0  0  0  0  0  0
    3.6940  -17.2926    2.3742 O   0  0  0  0  0  0  0  0  0  0  0  0
  2  1  1  6
  2  3  1  0
  1  4  1  0
  4  5  2  0
  5  6  1  0
  2  7  1  0
  6  7  2  0
  3  8  2  0
  8  9  1  0
  7 10  1  0
  9 10  1  0
  9 11  2  0
  4 12  1  0
 10 13  1  6
 13 14  1  0
 11 15  1  0
 14 15  1  0
 15 16  1  6
 16 17  1  0
 17 18  1  0
 18 19  1  0
 19 20  2  0
M  END

$$$$
No_1734-/export/home/yangzhenyu/potential_scad_32_flow//YTHDC2/2024-12-06-03-22-00/
     RDKit          3D

 17 18  0  0  0  0  0  0  0  0999 V2000
    1.1787   -8.0297    3.5154 C   0  0  0  0  0  0  0  0  0  0  0  0
    1.1048   -9.2215    3.2892 C   0  0  0  0  0  0  0  0  0  0  0  0
    1.3627  -10.1721    4.3044 C   0  0  0  0  0  0  0  0  0  0  0  0
    1.7354  -11.4730    3.9023 C   0  0  0  0  0  0  0  0  0  0  0  0
    1.8080  -11.8127    2.7216 C   0  0  0  0  0  0  0  0  0  0  0  0
    1.5854  -11.0021    1.7249 C   0  0  0  0  0  0  0  0  0  0  0  0
    1.3573   -9.7389    1.9287 C   0  0  0  0  0  0  0  0  0  0  0  0
    1.2865   -8.8078    0.9161 C   0  0  0  0  0  0  0  0  0  0  0  0
    1.6845   -9.1638   -0.2896 O   0  0  0  0  0  0  0  0  0  0  0  0
    0.9531   -7.5121    1.0883 N   0  0  0  0  0  0  0  0  0  0  0  0
    0.9204   -7.0389    2.3661 C   0  0  0  0  0  0  0  0  0  0  0  0
    0.8333   -5.6541    2.5434 S   0  0  0  0  0  0  0  0  0  0  0  0
    2.0514  -13.2197    2.3505 O   0  0  0  0  0  0  0  0  0  0  0  0
    1.8867  -13.7215    1.0829 C   0  0  0  0  0  0  0  0  0  0  0  0
    0.5834  -13.9997    0.8267 C   0  0  0  0  0  0  0  0  0  0  0  0
   -0.2901  -14.2261    1.6256 C   0  0  0  0  0  0  0  0  0  0  0  0
   -0.0242  -15.4360    2.3885 C   0  0  0  0  0  0  0  0  0  0  0  0
  1  2  1  0
  7  8  1  0
  8  9  2  0
  8 10  1  0
  1 11  1  0
 10 11  1  0
 11 12  2  0
  5 13  1  0
 13 14  1  0
 14 15  1  0
 15 16  1  0
 16 17  1  0
  2  3  2  0
  3  4  1  0
  4  5  2  0
  5  6  1  0
  6  7  2  0
  2  7  1  0
M  END

$$$$
No_1735-/export/home/yangzhenyu/potential_scad_32_flow//YTHDC2/2024-12-06-03-22-00/
     RDKit          3D

 20 21  0  0  1  0  0  0  0  0999 V2000
    1.1787   -8.0297    3.5154 C   0  0  0  0  0  0  0  0  0  0  0  0
    1.0491   -6.8434    2.9820 C   0  0  0  0  0  0  0  0  0  0  0  0
    0.9905   -9.0774    2.6527 C   0  0  0  0  0  0  0  0  0  0  0  0
    0.7897   -8.9519    1.3691 C   0  0  0  0  0  0  0  0  0  0  0  0
    0.7018   -7.7198    0.7892 C   0  0  0  0  0  0  0  0  0  0  0  0
    0.8918   -6.5957    1.6117 C   0  0  0  0  0  0  0  0  0  0  0  0
    1.0998  -10.4710    3.2437 C   0  0  0  0  0  0  0  0  0  0  0  0
    0.0472  -11.2546    3.3963 C   0  0  0  0  0  0  0  0  0  0  0  0
   -0.3712  -11.7969    2.5371 C   0  0  0  0  0  0  0  0  0  0  0  0
   -0.0596  -12.7469    2.0880 C   0  0  2  0  0  0  0  0  0  0  0  0
    1.4436  -13.2474    2.2410 C   0  0  0  0  0  0  0  0  0  0  0  0
    1.6759  -14.4817    1.4673 C   0  0  0  0  0  0  0  0  0  0  0  0
    0.7447  -14.8365    0.8143 C   0  0  0  0  0  0  0  0  0  0  0  0
   -0.3975  -13.8760    1.0232 C   0  0  0  0  0  0  0  0  0  0  0  0
    0.9087   -5.2807    1.1874 C   0  0  0  0  0  0  0  0  0  0  0  0
    0.1952   -4.2929    1.9899 O   0  0  0  0  0  0  0  0  0  0  0  0
   -1.6086  -13.8448    0.5015 C   0  0  0  0  0  0  0  0  0  0  0  0
   -2.0976  -12.8177   -0.3042 C   0  0  0  0  0  0  0  0  0  0  0  0
   -3.1820  -12.1589   -0.0728 C   0  0  0  0  0  0  0  0  0  0  0  0
   -4.1381  -12.9008    0.6096 C   0  0  0  0  0  0  0  0  0  0  0  0
  3  7  1  0
  7  8  1  0
  8  9  2  3
  9 10  1  0
 10 11  1  6
 11 12  1  0
 12 13  2  0
 10 14  1  0
 13 14  1  0
  6 15  1  0
 15 16  1  0
 14 17  1  0
 17 18  1  0
 18 19  2  3
 19 20  1  0
  1  2  2  0
  2  6  1  0
  5  6  2  0
  4  5  1  0
  3  4  2  0
  1  3  1  0
M  END

$$$$
No_1736-/export/home/yangzhenyu/potential_scad_32_flow//YTHDC2/2024-12-06-03-22-00/
     RDKit          3D

 19 20  0  0  0  0  0  0  0  0999 V2000
    1.1787   -8.0297    3.5154 C   0  0  0  0  0  0  0  0  0  0  0  0
    1.0491   -6.8434    2.9820 C   0  0  0  0  0  0  0  0  0  0  0  0
    0.9905   -9.0774    2.6527 C   0  0  0  0  0  0  0  0  0  0  0  0
    0.7897   -8.9519    1.3691 C   0  0  0  0  0  0  0  0  0  0  0  0
    0.7018   -7.7198    0.7892 C   0  0  0  0  0  0  0  0  0  0  0  0
    0.8918   -6.5957    1.6117 C   0  0  0  0  0  0  0  0  0  0  0  0
    1.0600  -10.5680    3.3321 C   0  0  0  0  0  0  0  0  0  0  0  0
    2.1422  -11.0089    3.6867 C   0  0  0  0  0  0  0  0  0  0  0  0
    0.8986   -5.2530    1.1685 C   0  0  0  0  0  0  0  0  0  0  0  0
    0.3676  -11.5400    2.4822 C   0  0  0  0  0  0  0  0  0  0  0  0
    1.0532  -12.4670    1.9696 C   0  0  0  0  0  0  0  0  0  0  0  0
    2.3708  -12.8448    2.4500 C   0  0  0  0  0  0  0  0  0  0  0  0
    2.8318  -12.0715    3.4427 N   0  0  0  0  0  0  0  0  0  0  0  0
    2.7571  -14.1393    2.3642 N   0  0  0  0  0  0  0  0  0  0  0  0
    0.1956   -4.2355    1.8989 C   0  0  0  0  0  0  0  0  0  0  0  0
    0.1574   -3.0972    1.3638 C   0  0  0  0  0  0  0  0  0  0  0  0
   -0.5016   -2.8525    0.1709 C   0  0  0  0  0  0  0  0  0  0  0  0
   -0.0477   -1.9666   -0.7593 C   0  0  0  0  0  0  0  0  0  0  0  0
    0.7288   -0.9722   -0.2699 C   0  0  0  0  0  0  0  0  0  0  0  0
  3  7  1  0
  6  9  1  0
  9 15  1  0
 15 16  1  0
 16 17  1  0
 17 18  2  3
 18 19  1  0
 12 14  1  0
  7  8  2  0
  8 13  1  0
 12 13  2  0
 11 12  1  0
 10 11  2  0
  7 10  1  0
  1  2  2  0
  2  6  1  0
  5  6  2  0
  4  5  1  0
  3  4  2  0
  1  3  1  0
M  END

$$$$
No_1737-/export/home/yangzhenyu/potential_scad_32_flow//YTHDC2/2024-12-06-03-22-00/
     RDKit          3D

 17 17  0  0  1  0  0  0  0  0999 V2000
    1.1787   -8.0297    3.5154 C   0  0  0  0  0  0  0  0  0  0  0  0
    1.0491   -6.8434    2.9820 C   0  0  0  0  0  0  0  0  0  0  0  0
    0.9905   -9.0774    2.6527 C   0  0  0  0  0  0  0  0  0  0  0  0
    0.7897   -8.9519    1.3691 C   0  0  0  0  0  0  0  0  0  0  0  0
    0.7018   -7.7198    0.7892 C   0  0  0  0  0  0  0  0  0  0  0  0
    0.8918   -6.5957    1.6117 C   0  0  0  0  0  0  0  0  0  0  0  0
    1.0998  -10.4710    3.2437 C   0  0  0  0  0  0  0  0  0  0  0  0
    1.3102  -11.5554    2.5214 C   0  0  0  0  0  0  0  0  0  0  0  0
    1.4257  -12.8124    3.1919 C   0  0  0  0  0  0  0  0  0  0  0  0
    1.4301  -14.0627    2.4374 C   0  0  1  0  0  0  0  0  0  0  0  0
    0.8588   -5.2558    1.2463 O   0  0  0  0  0  0  0  0  0  0  0  0
    2.4184  -14.2079    1.4799 C   0  0  1  0  0  0  0  0  0  0  0  0
    0.6628  -15.1040    2.7897 C   0  0  0  0  0  0  0  0  0  0  0  0
   -0.3691  -15.1607    3.0197 C   0  0  0  0  0  0  0  0  0  0  0  0
   -1.1552  -15.6273    2.2935 Cl  0  0  0  0  0  0  0  0  0  0  0  0
    2.7394  -13.1072    0.6202 C   0  0  0  0  0  0  0  0  0  0  0  0
    3.6460  -14.8117    1.9408 O   0  0  0  0  0  0  0  0  0  0  0  0
  1  2  1  0
  3  4  1  0
  2  6  1  0
  5  6  1  0
  3  7  1  0
  7  8  2  3
  8  9  1  0
 10  9  1  1
  6 11  2  0
 10 12  1  0
 10 13  1  0
 13 14  1  0
 14 15  1  0
 12 16  1  1
 12 17  1  0
  1  3  1  0
  4  5  1  0
M  END

$$$$
No_1738-/export/home/yangzhenyu/potential_scad_32_flow//YTHDC2/2024-12-06-03-22-00/
     RDKit          3D

 19 19  0  0  0  0  0  0  0  0999 V2000
    1.1787   -8.0297    3.5154 N   0  0  0  0  0  0  0  0  0  0  0  0
    1.0818   -9.0751    3.2053 C   0  0  0  0  0  0  0  0  0  0  0  0
    0.7576   -9.3725    1.9159 C   0  0  0  0  0  0  0  0  0  0  0  0
    0.8823   -8.4917    1.0547 C   0  0  0  0  0  0  0  0  0  0  0  0
    1.4631   -7.3107    1.2451 C   0  0  0  0  0  0  0  0  0  0  0  0
    1.6470   -6.9326    2.5669 C   0  0  0  0  0  0  0  0  0  0  0  0
    0.8237  -10.1305    4.2407 C   0  0  0  0  0  0  0  0  0  0  0  0
   -0.4178  -10.6899    4.4426 O   0  0  0  0  0  0  0  0  0  0  0  0
    1.8552  -10.7021    4.8355 N   0  0  0  0  0  0  0  0  0  0  0  0
    0.8338   -8.9230   -0.3979 C   0  0  0  0  0  0  0  0  0  0  0  0
   -0.4911   -9.1292   -0.7354 O   0  0  0  0  0  0  0  0  0  0  0  0
    1.6234   -8.8776   -1.2746 O   0  0  0  0  0  0  0  0  0  0  0  0
    1.8102   -5.6101    3.0250 C   0  0  0  0  0  0  0  0  0  0  0  0
    1.8569   -5.3598    4.2978 O   0  0  0  0  0  0  0  0  0  0  0  0
    1.4169   -4.6107    2.1360 O   0  0  0  0  0  0  0  0  0  0  0  0
    0.5138  -10.8060    1.5278 C   0  0  0  0  0  0  0  0  0  0  0  0
    1.6467  -11.7590    1.1961 Cl  0  0  0  0  0  0  0  0  0  0  0  0
    3.2308  -10.4744    4.5380 C   0  0  0  0  0  0  0  0  0  0  0  0
    3.9519  -11.2123    5.6989 C   0  0  0  0  0  0  0  0  0  0  0  0
  2  7  1  0
  7  8  2  0
  7  9  1  0
  4 10  1  0
 10 11  2  0
 10 12  1  0
  6 13  1  0
 13 14  2  0
 13 15  1  0
  3 16  1  0
 16 17  1  0
  9 18  1  0
 18 19  1  0
  1  2  2  0
  2  3  1  0
  3  4  2  0
  4  5  1  0
  5  6  2  0
  1  6  1  0
M  END

$$$$
No_1739-/export/home/yangzhenyu/potential_scad_32_flow//YTHDC2/2024-12-06-03-22-00/
     RDKit          3D

 19 20  0  0  0  0  0  0  0  0999 V2000
    1.1787   -8.0297    3.5154 C   0  0  0  0  0  0  0  0  0  0  0  0
    1.0491   -6.8434    2.9820 C   0  0  0  0  0  0  0  0  0  0  0  0
    0.9905   -9.0774    2.6527 C   0  0  0  0  0  0  0  0  0  0  0  0
    0.7897   -8.9519    1.3691 C   0  0  0  0  0  0  0  0  0  0  0  0
    0.7018   -7.7198    0.7892 C   0  0  0  0  0  0  0  0  0  0  0  0
    0.8918   -6.5957    1.6117 C   0  0  0  0  0  0  0  0  0  0  0  0
    1.0998  -10.4710    3.2437 C   0  0  0  0  0  0  0  0  0  0  0  0
    0.0471  -11.2546    3.3963 C   0  0  0  0  0  0  0  0  0  0  0  0
    0.1622  -12.5732    3.4140 C   0  0  0  0  0  0  0  0  0  0  0  0
    1.4182  -13.1957    3.4048 C   0  0  0  0  0  0  0  0  0  0  0  0
    2.5550  -12.3947    3.0877 C   0  0  0  0  0  0  0  0  0  0  0  0
    2.4166  -11.0849    2.9699 C   0  0  0  0  0  0  0  0  0  0  0  0
    0.7699   -5.2688    1.2681 O   0  0  0  0  0  0  0  0  0  0  0  0
    1.4368  -14.6898    3.3793 O   0  0  0  0  0  0  0  0  0  0  0  0
    0.4707  -15.4244    3.0327 C   0  0  0  0  0  0  0  0  0  0  0  0
    0.1802  -15.4135    1.7852 C   0  0  0  0  0  0  0  0  0  0  0  0
    1.1412  -15.4960    0.8640 C   0  0  0  0  0  0  0  0  0  0  0  0
    0.8009  -15.2284   -0.4545 C   0  0  0  0  0  0  0  0  0  0  0  0
   -0.4983  -15.0606   -0.8430 C   0  0  0  0  0  0  0  0  0  0  0  0
  1  2  1  0
  3  4  1  0
  2  6  1  0
  5  6  1  0
  3  7  1  0
  6 13  2  0
 10 14  1  0
 14 15  1  0
 15 16  1  0
 16 17  1  0
 17 18  2  3
 18 19  1  0
  1  3  1  0
  4  5  1  0
  7  8  2  0
  8  9  1  0
  9 10  2  0
 10 11  1  0
 11 12  2  0
  7 12  1  0
M  END

$$$$
No_1740-/export/home/yangzhenyu/potential_scad_32_flow//YTHDC2/2024-12-06-03-22-00/
     RDKit          3D

 20 20  0  0  1  0  0  0  0  0999 V2000
    1.1787   -8.0297    3.5154 C   0  0  0  0  0  0  0  0  0  0  0  0
    1.0491   -6.8434    2.9820 C   0  0  0  0  0  0  0  0  0  0  0  0
    0.9905   -9.0774    2.6527 C   0  0  0  0  0  0  0  0  0  0  0  0
    0.7897   -8.9519    1.3691 C   0  0  0  0  0  0  0  0  0  0  0  0
    0.7018   -7.7198    0.7892 C   0  0  0  0  0  0  0  0  0  0  0  0
    0.8918   -6.5957    1.6117 C   0  0  0  0  0  0  0  0  0  0  0  0
    1.0711  -10.4814    3.2282 S   0  0  0  0  0  0  0  0  0  0  0  0
   -0.2130  -10.9799    3.8462 N   0  0  0  0  0  0  0  0  0  0  0  0
    2.1727  -10.4528    4.3406 O   0  0  0  0  0  0  0  0  0  0  0  0
    1.5111  -11.6816    2.4063 O   0  0  0  0  0  0  0  0  0  0  0  0
    0.8231   -5.2914    1.1438 C   0  0  0  0  0  0  0  0  0  0  0  0
   -0.3427   -4.7830    0.6996 C   0  0  1  0  0  0  0  0  0  0  0  0
   -1.4440   -5.5085    0.8448 C   0  0  0  0  0  0  0  0  0  0  0  0
   -0.5802   -3.3549    1.2591 C   0  0  0  0  0  0  0  0  0  0  0  0
   -2.0240   -6.0055   -0.1660 C   0  0  0  0  0  0  0  0  0  0  0  0
   -1.9787   -5.5272   -1.3507 C   0  0  0  0  0  0  0  0  0  0  0  0
   -2.0088   -4.1919   -1.5040 C   0  0  0  0  0  0  0  0  0  0  0  0
   -1.8626   -3.5791   -2.7859 C   0  0  0  0  0  0  0  0  0  0  0  0
   -1.6558   -4.2543   -3.9849 C   0  0  0  0  0  0  0  0  0  0  0  0
   -1.6734   -5.6121   -3.8511 C   0  0  0  0  0  0  0  0  0  0  0  0
  3  7  1  0
  7  8  1  0
  7  9  2  0
  7 10  2  0
  6 11  1  0
 11 12  1  0
 12 13  1  0
 12 14  1  1
 13 15  1  0
 15 16  1  0
 16 17  2  3
 17 18  1  0
 18 19  2  3
 19 20  1  0
  1  2  2  0
  2  6  1  0
  5  6  2  0
  4  5  1  0
  3  4  2  0
  1  3  1  0
M  END

$$$$
No_1741-/export/home/yangzhenyu/potential_scad_32_flow//YTHDC2/2024-12-06-03-22-00/
     RDKit          3D

 17 18  0  0  0  0  0  0  0  0999 V2000
    1.1787   -8.0297    3.5154 C   0  0  0  0  0  0  0  0  0  0  0  0
    1.1048   -9.2215    3.2892 C   0  0  0  0  0  0  0  0  0  0  0  0
    1.2339   -9.7611    2.0189 C   0  0  0  0  0  0  0  0  0  0  0  0
    1.3583   -9.0036    0.9764 C   0  0  0  0  0  0  0  0  0  0  0  0
    1.5996   -7.6362    1.1311 C   0  0  0  0  0  0  0  0  0  0  0  0
    1.4830   -7.0928    2.3626 C   0  0  0  0  0  0  0  0  0  0  0  0
    1.1008  -11.2372    1.8542 C   0  0  0  0  0  0  0  0  0  0  0  0
    0.4812  -11.6084    0.6459 C   0  0  0  0  0  0  0  0  0  0  0  0
    0.5134  -13.0269    0.4830 C   0  0  0  0  0  0  0  0  0  0  0  0
    1.2057  -13.8685    1.2734 C   0  0  0  0  0  0  0  0  0  0  0  0
    1.9819  -13.3990    2.3594 C   0  0  0  0  0  0  0  0  0  0  0  0
    1.8610  -12.0988    2.6716 C   0  0  0  0  0  0  0  0  0  0  0  0
    2.4163  -11.5839    3.7861 N   0  0  0  0  0  0  0  0  0  0  0  0
    1.5506   -5.6582    2.6458 Br  0  0  0  0  0  0  0  0  0  0  0  0
    1.5438   -9.4747   -0.3419 O   0  0  0  0  0  0  0  0  0  0  0  0
    1.2961  -15.4436    0.8720 C   0  0  0  0  0  0  0  0  0  0  0  0
    2.1776  -16.1077    1.6002 O   0  0  0  0  0  0  0  0  0  0  0  0
  3  7  1  0
  6 14  1  0
  4 15  1  0
 10 16  1  0
 16 17  2  0
 12 13  1  0
  1  2  2  0
  2  3  1  0
  3  4  2  0
  4  5  1  0
  5  6  2  0
  1  6  1  0
  7  8  2  0
  8  9  1  0
  9 10  2  0
 10 11  1  0
 11 12  2  0
  7 12  1  0
M  END

$$$$
No_1742-/export/home/yangzhenyu/potential_scad_32_flow//YTHDC2/2024-12-06-03-22-00/
     RDKit          3D

 20 21  0  0  0  0  0  0  0  0999 V2000
    1.1787   -8.0297    3.5154 C   0  0  0  0  0  0  0  0  0  0  0  0
    1.0491   -6.8434    2.9820 C   0  0  0  0  0  0  0  0  0  0  0  0
    0.9905   -9.0774    2.6527 C   0  0  0  0  0  0  0  0  0  0  0  0
    0.7897   -8.9519    1.3691 C   0  0  0  0  0  0  0  0  0  0  0  0
    0.7018   -7.7198    0.7892 C   0  0  0  0  0  0  0  0  0  0  0  0
    0.8918   -6.5957    1.6117 C   0  0  0  0  0  0  0  0  0  0  0  0
    1.0711  -10.4814    3.2282 C   0  0  0  0  0  0  0  0  0  0  0  0
   -0.1055  -11.1328    3.5223 C   0  0  0  0  0  0  0  0  0  0  0  0
   -0.7419  -11.5628    2.6150 C   0  0  0  0  0  0  0  0  0  0  0  0
   -2.0657  -11.3665    2.4148 C   0  0  0  0  0  0  0  0  0  0  0  0
   -2.7917  -11.7701    1.3738 C   0  0  0  0  0  0  0  0  0  0  0  0
   -2.2241  -12.6599    0.5264 C   0  0  0  0  0  0  0  0  0  0  0  0
   -0.8970  -13.0126    0.6258 C   0  0  0  0  0  0  0  0  0  0  0  0
   -0.1429  -12.5700    1.7079 C   0  0  0  0  0  0  0  0  0  0  0  0
    1.1731  -12.8808    1.8145 C   0  0  0  0  0  0  0  0  0  0  0  0
    0.9272   -5.0973    1.0830 O   0  0  0  0  0  0  0  0  0  0  0  0
    1.6887  -13.6307    2.4394 N   0  0  0  0  0  0  0  0  0  0  0  0
    2.1646  -12.3403    0.8087 O   0  0  0  0  0  0  0  0  0  0  0  0
   -0.2316   -4.4368    1.2225 C   0  0  0  0  0  0  0  0  0  0  0  0
    1.1713  -14.1523    3.1325 H   0  0  0  0  0  0  0  0  0  0  0  0
  3  7  1  0
  7  8  1  0
  8  9  1  0
 14 15  1  0
  6 16  1  0
 15 17  2  0
 15 18  1  0
 16 19  1  0
  1  2  2  0
  2  6  1  0
  5  6  2  0
  4  5  1  0
  3  4  2  0
  1  3  1  0
  9 10  2  0
 10 11  1  0
 11 12  2  0
 12 13  1  0
 13 14  2  0
  9 14  1  0
 17 20  1  0
M  END

$$$$
No_1743-/export/home/yangzhenyu/potential_scad_32_flow//YTHDC2/2024-12-06-03-22-00/
     RDKit          3D

 13 14  0  0  0  0  0  0  0  0999 V2000
    1.1787   -8.0297    3.5154 C   0  0  0  0  0  0  0  0  0  0  0  0
    1.1048   -9.2215    3.2892 C   0  0  0  0  0  0  0  0  0  0  0  0
    1.3627  -10.1721    4.3044 C   0  0  0  0  0  0  0  0  0  0  0  0
    1.7354  -11.4730    3.9023 C   0  0  0  0  0  0  0  0  0  0  0  0
    1.6166  -11.5515    2.5159 C   0  0  0  0  0  0  0  0  0  0  0  0
    1.4172  -10.6242    1.6178 C   0  0  0  0  0  0  0  0  0  0  0  0
    1.2598   -9.4423    1.9811 C   0  0  0  0  0  0  0  0  0  0  0  0
    1.0996   -7.0633    2.5049 C   0  0  0  0  0  0  0  0  0  0  0  0
    1.2922   -7.2465    1.2567 C   0  0  0  0  0  0  0  0  0  0  0  0
    1.4274   -8.5086    0.9073 C   0  0  0  0  0  0  0  0  0  0  0  0
    1.6084   -8.7700   -0.3829 O   0  0  0  0  0  0  0  0  0  0  0  0
    1.9087  -13.3286    2.0526 N   0  0  0  0  0  0  0  0  0  0  0  0
    1.7361  -13.5162    0.8439 O   0  0  0  0  0  0  0  0  0  0  0  0
  1  2  1  0
  8  9  1  0
  7 10  1  0
  9 10  1  0
 10 11  2  0
  5 12  1  0
 12 13  2  0
  1  8  1  0
  2  3  2  0
  3  4  1  0
  4  5  2  0
  5  6  1  0
  6  7  2  0
  2  7  1  0
M  END

$$$$
No_1744-/export/home/yangzhenyu/potential_scad_32_flow//YTHDC2/2024-12-06-03-22-00/
     RDKit          3D

 18 19  0  0  0  0  0  0  0  0999 V2000
    1.1787   -8.0297    3.5154 C   0  0  0  0  0  0  0  0  0  0  0  0
    1.1048   -9.2215    3.2892 C   0  0  0  0  0  0  0  0  0  0  0  0
    1.3627  -10.1721    4.3044 C   0  0  0  0  0  0  0  0  0  0  0  0
    1.0682  -11.5187    4.0618 C   0  0  0  0  0  0  0  0  0  0  0  0
    0.6332  -11.9655    2.9682 C   0  0  0  0  0  0  0  0  0  0  0  0
    0.4776  -11.1308    1.9203 C   0  0  0  0  0  0  0  0  0  0  0  0
    0.7470   -9.8274    2.0368 C   0  0  0  0  0  0  0  0  0  0  0  0
    1.0387   -7.0301    2.5175 N   0  0  0  0  0  0  0  0  0  0  0  0
    0.9298   -7.5514    1.2672 C   0  0  0  0  0  0  0  0  0  0  0  0
    0.7824   -8.7713    0.9713 C   0  0  0  0  0  0  0  0  0  0  0  0
    0.6486   -9.2285   -0.2792 C   0  0  0  0  0  0  0  0  0  0  0  0
   -0.7454   -9.4326   -0.6987 O   0  0  0  0  0  0  0  0  0  0  0  0
    1.3769   -8.8562   -1.2585 O   0  0  0  0  0  0  0  0  0  0  0  0
    0.5169  -13.3831    2.6802 C   0  0  0  0  0  0  0  0  0  0  0  0
    0.8986  -14.0450    1.6181 O   0  0  0  0  0  0  0  0  0  0  0  0
    0.1189  -14.2192    3.6519 O   0  0  0  0  0  0  0  0  0  0  0  0
    0.9470   -6.5766    0.3597 O   0  0  0  0  0  0  0  0  0  0  0  0
    0.7481  -15.2970    1.3494 C   0  0  0  0  0  0  0  0  0  0  0  0
  1  2  1  0
  8  9  1  0
  7 10  1  0
  9 10  1  0
 10 11  1  0
 11 12  2  0
 11 13  1  0
  5 14  1  0
 14 15  1  0
 14 16  2  0
  9 17  2  0
 15 18  1  0
  1  8  1  0
  2  3  2  0
  3  4  1  0
  4  5  2  0
  5  6  1  0
  6  7  2  0
  2  7  1  0
M  END

$$$$
No_1745-/export/home/yangzhenyu/potential_scad_32_flow//YTHDC2/2024-12-06-03-22-00/
     RDKit          3D

 20 21  0  0  1  0  0  0  0  0999 V2000
    1.1787   -8.0297    3.5154 O   0  0  0  0  0  0  0  0  0  0  0  0
    0.9969   -8.9689    3.0048 C   0  0  1  0  0  0  0  0  0  0  0  0
    0.9976   -8.9567    1.6341 C   0  0  2  0  0  0  0  0  0  0  0  0
    1.6062   -9.9071    0.9292 O   0  0  0  0  0  0  0  0  0  0  0  0
    1.4940  -10.1462    3.5283 C   0  0  0  0  0  0  0  0  0  0  0  0
    1.3154  -11.3428    3.0730 C   0  0  1  0  0  0  0  0  0  0  0  0
    1.7669  -11.2167    1.4958 C   0  0  0  0  0  0  0  0  0  0  0  0
    0.5914   -7.8793    1.0268 C   0  0  0  0  0  0  0  0  0  0  0  0
    1.2006   -6.7409    1.2371 O   0  0  0  0  0  0  0  0  0  0  0  0
   -0.6189   -7.6935    0.4191 C   0  0  1  0  0  0  0  0  0  0  0  0
   -0.8383   -8.6488   -0.6586 O   0  0  0  0  0  0  0  0  0  0  0  0
   -1.5625   -6.8877    0.7601 C   0  0  0  0  0  0  0  0  0  0  0  0
   -1.5645   -5.7047    0.3190 C   0  0  2  0  0  0  0  0  0  0  0  0
   -1.2466   -4.6365    1.2031 C   0  0  0  0  0  0  0  0  0  0  0  0
   -1.0416   -3.2742    0.8015 C   0  0  0  0  0  0  0  0  0  0  0  0
   -1.5961   -2.8241   -0.2622 C   0  0  0  0  0  0  0  0  0  0  0  0
   -2.0181   -3.8363   -1.1980 C   0  0  0  0  0  0  0  0  0  0  0  0
   -2.0172   -5.1569   -0.9140 C   0  0  0  0  0  0  0  0  0  0  0  0
   -2.5148   -6.0987   -1.8176 O   0  0  0  0  0  0  0  0  0  0  0  0
    1.9020  -12.6101    3.5607 C   0  0  0  0  0  0  0  0  0  0  0  0
  2  1  1  1
  2  3  1  0
  3  4  1  0
  2  5  1  0
  5  6  1  0
  4  7  1  0
  6  7  1  0
  3  8  1  1
  8  9  2  0
  8 10  1  0
 10 11  1  1
 10 12  1  0
 13 12  1  1
 14 15  1  0
 16 17  1  0
 13 18  1  0
 17 18  1  0
 18 19  2  0
  6 20  1  1
 13 14  1  0
 15 16  1  0
M  END

$$$$
No_1746-/export/home/yangzhenyu/potential_scad_32_flow//YTHDC2/2024-12-06-03-22-00/
     RDKit          3D

 18 19  0  0  0  0  0  0  0  0999 V2000
    1.1787   -8.0297    3.5154 C   0  0  0  0  0  0  0  0  0  0  0  0
    1.1048   -9.2215    3.2892 C   0  0  0  0  0  0  0  0  0  0  0  0
    1.4683  -10.2314    4.1915 C   0  0  0  0  0  0  0  0  0  0  0  0
    0.8445   -6.9865    2.5175 C   0  0  0  0  0  0  0  0  0  0  0  0
    0.3587   -7.3973    1.3953 C   0  0  0  0  0  0  0  0  0  0  0  0
    0.1901   -8.6971    1.0711 C   0  0  0  0  0  0  0  0  0  0  0  0
    0.5759   -9.6647    1.9442 C   0  0  0  0  0  0  0  0  0  0  0  0
    0.6465  -11.4192    4.2286 C   0  0  0  0  0  0  0  0  0  0  0  0
    1.2991  -12.6074    4.1143 C   0  0  0  0  0  0  0  0  0  0  0  0
    1.1447  -13.1659    2.7759 C   0  0  0  0  0  0  0  0  0  0  0  0
    0.8356  -14.6515    2.8672 C   0  0  0  0  0  0  0  0  0  0  0  0
    0.9093  -15.2846    1.5897 C   0  0  0  0  0  0  0  0  0  0  0  0
    0.9428  -14.6019    0.5482 C   0  0  0  0  0  0  0  0  0  0  0  0
    1.1001  -13.2208    0.3670 C   0  0  0  0  0  0  0  0  0  0  0  0
    1.1730  -12.4568    1.6106 C   0  0  0  0  0  0  0  0  0  0  0  0
    0.0461   -6.4701    0.3772 N   0  0  0  0  0  0  0  0  0  0  0  0
   -1.1657   -6.6114   -0.1673 C   0  0  0  0  0  0  0  0  0  0  0  0
   -1.9222   -7.5994    0.1779 N   0  0  0  0  0  0  0  0  0  0  0  0
  2  3  1  0
  3  8  1  0
  8  9  1  0
  9 10  1  0
 10 11  1  0
 11 12  1  0
 12 13  1  0
 13 14  1  0
 10 15  1  0
 14 15  1  0
  5 16  1  0
 16 17  2  3
 17 18  1  0
  1  2  2  0
  2  7  1  0
  6  7  2  0
  5  6  1  0
  4  5  2  0
  1  4  1  0
M  END

$$$$
No_1747-/export/home/yangzhenyu/potential_scad_32_flow//YTHDC2/2024-12-06-03-22-00/
     RDKit          3D

 18 19  0  0  0  0  0  0  0  0999 V2000
    1.1787   -8.0297    3.5154 C   0  0  0  0  0  0  0  0  0  0  0  0
    1.1048   -9.2215    3.2892 C   0  0  0  0  0  0  0  0  0  0  0  0
    1.3627  -10.1721    4.3044 C   0  0  0  0  0  0  0  0  0  0  0  0
    1.0682  -11.5187    4.0618 C   0  0  0  0  0  0  0  0  0  0  0  0
    0.6332  -11.9655    2.9682 C   0  0  0  0  0  0  0  0  0  0  0  0
    0.4776  -11.1308    1.9203 C   0  0  0  0  0  0  0  0  0  0  0  0
    0.7470   -9.8274    2.0368 C   0  0  0  0  0  0  0  0  0  0  0  0
    0.5535   -7.1314    2.6861 O   0  0  0  0  0  0  0  0  0  0  0  0
    0.3433  -13.3587    2.7316 C   0  0  0  0  0  0  0  0  0  0  0  0
    1.3058  -14.3266    3.1725 C   0  0  0  0  0  0  0  0  0  0  0  0
    1.0629  -15.6866    2.9948 C   0  0  0  0  0  0  0  0  0  0  0  0
    0.0592  -16.1382    2.3317 C   0  0  0  0  0  0  0  0  0  0  0  0
   -0.7753  -15.2734    1.7692 C   0  0  0  0  0  0  0  0  0  0  0  0
   -0.5829  -13.8667    1.9410 C   0  0  0  0  0  0  0  0  0  0  0  0
    2.3729   -7.4225    3.9637 Cl  0  0  0  0  0  0  0  0  0  0  0  0
   -1.5553  -13.0652    1.3594 C   0  0  0  0  0  0  0  0  0  0  0  0
   -1.6585  -12.8897    0.0314 C   0  0  0  0  0  0  0  0  0  0  0  0
   -2.1102  -11.7402   -0.4797 C   0  0  0  0  0  0  0  0  0  0  0  0
  1  2  1  0
  1  8  2  0
  5  9  1  0
  1 15  1  0
 14 16  1  0
 16 17  1  0
 17 18  2  0
  2  3  2  0
  3  4  1  0
  4  5  2  0
  5  6  1  0
  6  7  2  0
  2  7  1  0
  9 10  2  0
 10 11  1  0
 11 12  2  0
 12 13  1  0
 13 14  2  0
  9 14  1  0
M  END

$$$$
No_1748-/export/home/yangzhenyu/potential_scad_32_flow//YTHDC2/2024-12-06-03-22-00/
     RDKit          3D

 19 20  0  0  0  0  0  0  0  0999 V2000
    1.1787   -8.0297    3.5154 O   0  0  0  0  0  0  0  0  0  0  0  0
    0.9969   -8.9689    3.0048 C   0  0  0  0  0  0  0  0  0  0  0  0
    1.3055  -10.1056    3.6616 C   0  0  0  0  0  0  0  0  0  0  0  0
    1.1249  -11.3503    3.0941 C   0  0  0  0  0  0  0  0  0  0  0  0
    0.6932  -11.4484    1.8586 C   0  0  0  0  0  0  0  0  0  0  0  0
    0.5498  -10.3736    1.0579 C   0  0  0  0  0  0  0  0  0  0  0  0
    0.7643   -9.1185    1.6383 C   0  0  0  0  0  0  0  0  0  0  0  0
    0.5937   -7.8467    1.0482 C   0  0  0  0  0  0  0  0  0  0  0  0
   -0.4358   -7.6746    0.4159 C   0  0  0  0  0  0  0  0  0  0  0  0
    1.2531  -12.6631    3.7963 C   0  0  0  0  0  0  0  0  0  0  0  0
   -1.3039   -8.7767    0.2117 C   0  0  0  0  0  0  0  0  0  0  0  0
   -1.7189   -9.2503   -0.5803 C   0  0  0  0  0  0  0  0  0  0  0  0
    0.5257  -13.7362    3.1407 C   0  0  0  0  0  0  0  0  0  0  0  0
    1.4212  -14.8983    3.0734 C   0  0  0  0  0  0  0  0  0  0  0  0
    0.7885  -16.1062    2.6389 C   0  0  0  0  0  0  0  0  0  0  0  0
   -0.4890  -16.1124    2.3301 C   0  0  0  0  0  0  0  0  0  0  0  0
   -0.9800  -14.5756    2.7029 C   0  0  0  0  0  0  0  0  0  0  0  0
   -0.6254  -13.7427    3.0257 C   0  0  0  0  0  0  0  0  0  0  0  0
   -0.8222   -6.3368    0.0787 O   0  0  0  0  0  0  0  0  0  0  0  0
  1  2  1  0
  7  8  1  0
  8  9  2  3
  4 10  1  0
  9 11  1  0
 11 12  3  0
 10 13  1  0
  9 19  1  0
  2  3  2  0
  3  4  1  0
  4  5  2  0
  5  6  1  0
  6  7  2  0
  2  7  1  0
 13 14  2  0
 14 15  1  0
 15 16  2  0
 16 17  1  0
 17 18  2  0
 13 18  1  0
M  END

$$$$
No_1749-/export/home/yangzhenyu/potential_scad_32_flow//YTHDC2/2024-12-06-03-22-00/
     RDKit          3D

 19 20  0  0  0  0  0  0  0  0999 V2000
    1.1787   -8.0297    3.5154 C   0  0  0  0  0  0  0  0  0  0  0  0
    1.1048   -9.2215    3.2892 C   0  0  0  0  0  0  0  0  0  0  0  0
    1.2339   -9.7611    2.0189 C   0  0  0  0  0  0  0  0  0  0  0  0
    1.3583   -9.0036    0.9764 C   0  0  0  0  0  0  0  0  0  0  0  0
    1.5996   -7.6362    1.1311 C   0  0  0  0  0  0  0  0  0  0  0  0
    1.4830   -7.0928    2.3626 C   0  0  0  0  0  0  0  0  0  0  0  0
    1.1008  -11.2372    1.8542 C   0  0  0  0  0  0  0  0  0  0  0  0
    1.9749  -12.0938    2.2342 N   0  0  0  0  0  0  0  0  0  0  0  0
    1.7767  -13.3974    1.9600 C   0  0  0  0  0  0  0  0  0  0  0  0
    1.9308  -14.3519    2.9213 C   0  0  0  0  0  0  0  0  0  0  0  0
    1.8438  -15.7788    2.6968 C   0  0  0  0  0  0  0  0  0  0  0  0
    1.7079  -16.1842    1.4779 C   0  0  0  0  0  0  0  0  0  0  0  0
    1.5801  -15.4472    0.4793 C   0  0  0  0  0  0  0  0  0  0  0  0
    1.5880  -14.0130    0.6539 C   0  0  0  0  0  0  0  0  0  0  0  0
    0.0789  -11.5582    1.0526 O   0  0  0  0  0  0  0  0  0  0  0  0
    1.4617   -9.4005   -0.4184 C   0  0  0  0  0  0  0  0  0  0  0  0
    1.4872   -8.6500   -1.2865 O   0  0  0  0  0  0  0  0  0  0  0  0
    1.4959   -5.6328    2.6378 O   0  0  0  0  0  0  0  0  0  0  0  0
    1.2065  -10.4961   -0.7909 O   0  0  0  0  0  0  0  0  0  0  0  0
  3  7  1  0
  7  8  1  0
  8  9  1  0
  7 15  2  0
  4 16  1  0
 16 17  2  0
  6 18  1  0
 16 19  1  0
  1  2  2  0
  2  3  1  0
  3  4  2  0
  4  5  1  0
  5  6  2  0
  1  6  1  0
  9 10  2  0
 10 11  1  0
 11 12  2  0
 12 13  1  0
 13 14  2  0
  9 14  1  0
M  END

$$$$
No_1750-/export/home/yangzhenyu/potential_scad_32_flow//YTHDC2/2024-12-06-03-22-00/
     RDKit          3D

 18 19  0  0  0  0  0  0  0  0999 V2000
    1.1787   -8.0297    3.5154 C   0  0  0  0  0  0  0  0  0  0  0  0
    1.1048   -9.2215    3.2892 C   0  0  0  0  0  0  0  0  0  0  0  0
    1.2339   -9.7611    2.0189 C   0  0  0  0  0  0  0  0  0  0  0  0
    1.1954  -11.2312    1.8661 C   0  0  0  0  0  0  0  0  0  0  0  0
    1.2996  -11.5815    0.5387 C   0  0  0  0  0  0  0  0  0  0  0  0
    1.3263   -7.1208    2.3229 C   0  0  0  0  0  0  0  0  0  0  0  0
    1.3693   -7.6408    1.0625 C   0  0  0  0  0  0  0  0  0  0  0  0
    1.4358   -8.9950    0.8622 C   0  0  0  0  0  0  0  0  0  0  0  0
    0.9078  -11.9576    2.8785 C   0  0  0  0  0  0  0  0  0  0  0  0
    0.1713  -12.8619    2.7667 C   0  0  0  0  0  0  0  0  0  0  0  0
   -0.0467  -13.4985    1.4957 C   0  0  0  0  0  0  0  0  0  0  0  0
   -0.7269  -14.6407    1.2146 C   0  0  0  0  0  0  0  0  0  0  0  0
    0.5050  -12.7536    0.4199 C   0  0  0  0  0  0  0  0  0  0  0  0
    1.3521   -5.4402    2.5982 Cl  0  0  0  0  0  0  0  0  0  0  0  0
   -1.7317  -14.7830    0.3794 C   0  0  0  0  0  0  0  0  0  0  0  0
   -2.6697  -13.9243    0.2641 C   0  0  0  0  0  0  0  0  0  0  0  0
   -3.5957  -13.8924   -0.7206 C   0  0  0  0  0  0  0  0  0  0  0  0
   -3.5118  -14.8959   -1.6514 C   0  0  0  0  0  0  0  0  0  0  0  0
  3  4  1  0
 11 12  1  0
  6 14  1  0
 12 15  1  0
 15 16  2  3
 16 17  1  0
 17 18  2  0
  1  2  2  0
  2  3  1  0
  3  8  2  0
  7  8  1  0
  6  7  2  0
  1  6  1  0
  4  5  2  0
  5 13  1  0
 11 13  2  0
 10 11  1  0
  9 10  2  0
  4  9  1  0
M  END

$$$$
No_1751-/export/home/yangzhenyu/potential_scad_32_flow//YTHDC2/2024-12-06-03-22-00/
     RDKit          3D

 19 20  0  0  1  0  0  0  0  0999 V2000
    1.1787   -8.0297    3.5154 Cl  0  0  0  0  0  0  0  0  0  0  0  0
    0.7279   -9.0023    2.8722 C   0  0  2  0  0  0  0  0  0  0  0  0
    1.3852  -10.2194    3.0621 C   0  0  1  0  0  0  0  0  0  0  0  0
    1.9070  -10.5856    4.2215 C   0  0  0  0  0  0  0  0  0  0  0  0
    2.3356  -11.9512    4.4039 C   0  0  0  0  0  0  0  0  0  0  0  0
    1.2767  -11.2372    2.0169 C   0  0  0  0  0  0  0  0  0  0  0  0
    1.7640  -12.5091    2.1330 C   0  0  2  0  0  0  0  0  0  0  0  0
    1.6817  -13.3809    0.9388 Cl  0  0  0  0  0  0  0  0  0  0  0  0
    2.2305  -12.8843    3.4361 C   0  0  0  0  0  0  0  0  0  0  0  0
    0.4436   -8.7565    1.4164 C   0  0  0  0  0  0  0  0  0  0  0  0
   -0.9296   -8.8026    1.1818 C   0  0  0  0  0  0  0  0  0  0  0  0
   -1.2654   -8.7452   -0.2413 C   0  0  0  0  0  0  0  0  0  0  0  0
   -0.2460   -8.4383   -1.2347 C   0  0  1  0  0  0  0  0  0  0  0  0
    1.0810   -8.3980   -0.8217 C   0  0  0  0  0  0  0  0  0  0  0  0
    1.4196   -8.5512    0.5159 C   0  0  0  0  0  0  0  0  0  0  0  0
   -0.6750   -8.4514   -2.4965 O   0  0  0  0  0  0  0  0  0  0  0  0
    2.7360   -8.5568    0.6764 O   0  0  0  0  0  0  0  0  0  0  0  0
    2.5358  -14.1052    3.5417 O   0  0  0  0  0  0  0  0  0  0  0  0
   -1.8834   -8.2494   -2.9933 C   0  0  0  0  0  0  0  0  0  0  0  0
  2  1  1  6
  2  3  1  0
  3  4  1  1
  3  6  1  0
  7  8  1  1
  5  9  1  0
  7  9  1  0
  2 10  1  0
 10 11  1  0
 12 13  1  0
 10 15  1  0
 14 15  1  0
 13 16  1  6
 15 17  2  0
  9 18  2  0
 16 19  1  0
 11 12  1  0
 13 14  1  0
  4  5  1  0
  6  7  1  0
M  END

$$$$
No_1752-/export/home/yangzhenyu/potential_scad_32_flow//YTHDC2/2024-12-06-03-22-00/
     RDKit          3D

 19 20  0  0  0  0  0  0  0  0999 V2000
    1.1787   -8.0297    3.5154 C   0  0  0  0  0  0  0  0  0  0  0  0
    1.0491   -6.8434    2.9820 C   0  0  0  0  0  0  0  0  0  0  0  0
    1.0690   -9.1150    2.7206 C   0  0  0  0  0  0  0  0  0  0  0  0
    0.9689   -6.6391    1.6260 C   0  0  0  0  0  0  0  0  0  0  0  0
    1.2594  -10.4791    3.3003 C   0  0  0  0  0  0  0  0  0  0  0  0
    0.7929   -7.6539    0.8429 C   0  0  0  0  0  0  0  0  0  0  0  0
    0.9043   -8.9494    1.3181 C   0  0  0  0  0  0  0  0  0  0  0  0
    1.4572  -11.5434    2.6971 C   0  0  0  0  0  0  0  0  0  0  0  0
    1.4148  -11.3793    1.1701 C   0  0  0  0  0  0  0  0  0  0  0  0
    1.2230  -10.1809    0.6093 C   0  0  0  0  0  0  0  0  0  0  0  0
    1.6967  -12.8252    3.1137 C   0  0  0  0  0  0  0  0  0  0  0  0
    0.9629  -13.8052    3.0381 O   0  0  0  0  0  0  0  0  0  0  0  0
    1.0499  -10.1147   -0.6237 O   0  0  0  0  0  0  0  0  0  0  0  0
    2.8142  -13.0419    3.8345 O   0  0  0  0  0  0  0  0  0  0  0  0
    0.8457   -5.3460    1.0484 O   0  0  0  0  0  0  0  0  0  0  0  0
    0.4195   -4.2528    1.7727 C   0  0  0  0  0  0  0  0  0  0  0  0
    1.4629  -12.4866    0.4185 O   0  0  0  0  0  0  0  0  0  0  0  0
   -0.8689   -3.9892    1.8043 C   0  0  0  0  0  0  0  0  0  0  0  0
   -1.4029   -3.6654    3.0305 C   0  0  0  0  0  0  0  0  0  0  0  0
  3  5  1  0
  8  9  1  0
  7 10  1  0
  9 10  1  0
  8 11  1  0
 11 12  2  0
 10 13  2  0
 11 14  1  0
  4 15  1  0
 15 16  1  0
  9 17  2  0
 16 18  1  0
 18 19  1  0
  5  8  1  0
  1  2  2  0
  2  4  1  0
  4  6  2  0
  6  7  1  0
  3  7  2  0
  1  3  1  0
M  END

$$$$
No_1753-/export/home/yangzhenyu/potential_scad_32_flow//YTHDC2/2024-12-06-03-22-00/
     RDKit          3D

 18 18  0  0  0  0  0  0  0  0999 V2000
    1.1787   -8.0297    3.5154 C   0  0  0  0  0  0  0  0  0  0  0  0
    1.1048   -9.2215    3.2892 C   0  0  0  0  0  0  0  0  0  0  0  0
    1.2339   -9.7611    2.0189 C   0  0  0  0  0  0  0  0  0  0  0  0
    1.3583   -9.0036    0.9764 C   0  0  0  0  0  0  0  0  0  0  0  0
    1.7077   -9.6100   -0.3010 C   0  0  0  0  0  0  0  0  0  0  0  0
    1.3637   -7.1087    2.3226 C   0  0  0  0  0  0  0  0  0  0  0  0
    1.4257   -7.6645    1.0231 C   0  0  0  0  0  0  0  0  0  0  0  0
    1.6722  -10.7840   -0.4044 O   0  0  0  0  0  0  0  0  0  0  0  0
    1.2336   -8.9275   -1.4153 O   0  0  0  0  0  0  0  0  0  0  0  0
    1.1479  -10.1808    4.3865 Cl  0  0  0  0  0  0  0  0  0  0  0  0
    1.3164   -5.3653    2.6018 Cl  0  0  0  0  0  0  0  0  0  0  0  0
    1.2479  -11.1366    1.9066 C   0  0  0  0  0  0  0  0  0  0  0  0
    1.6045  -12.1754    2.2640 C   0  0  0  0  0  0  0  0  0  0  0  0
    1.5013  -13.6943    2.1530 C   0  0  0  0  0  0  0  0  0  0  0  0
    2.4941  -14.1191    2.8347 C   0  0  0  0  0  0  0  0  0  0  0  0
    2.4276  -15.6860    2.7198 C   0  0  0  0  0  0  0  0  0  0  0  0
    1.5301  -16.3381    2.1622 C   0  0  0  0  0  0  0  0  0  0  0  0
    0.5875  -15.6752    1.4506 C   0  0  0  0  0  0  0  0  0  0  0  0
  4  5  1  0
  5  8  2  0
  5  9  1  0
  2 10  1  0
  6 11  1  0
  3 12  1  0
 12 13  3  0
 13 14  1  0
 14 15  1  0
 15 16  2  3
 16 17  1  0
 17 18  2  0
  1  2  2  0
  2  3  1  0
  3  4  2  0
  4  7  1  0
  6  7  2  0
  1  6  1  0
M  END

$$$$
No_1754-/export/home/yangzhenyu/potential_scad_32_flow//YTHDC2/2024-12-06-03-22-00/
     RDKit          3D

 19 20  0  0  0  0  0  0  0  0999 V2000
    1.1787   -8.0297    3.5154 C   0  0  0  0  0  0  0  0  0  0  0  0
    1.1048   -9.2215    3.2892 C   0  0  0  0  0  0  0  0  0  0  0  0
    1.2339   -9.7611    2.0189 C   0  0  0  0  0  0  0  0  0  0  0  0
    1.1954  -11.2312    1.8661 C   0  0  0  0  0  0  0  0  0  0  0  0
    1.2996  -11.5815    0.5387 C   0  0  0  0  0  0  0  0  0  0  0  0
    1.3263   -7.1208    2.3229 C   0  0  0  0  0  0  0  0  0  0  0  0
    1.3693   -7.6408    1.0625 C   0  0  0  0  0  0  0  0  0  0  0  0
    1.4358   -8.9950    0.8622 C   0  0  0  0  0  0  0  0  0  0  0  0
    0.9078  -11.9576    2.8785 C   0  0  0  0  0  0  0  0  0  0  0  0
    0.1713  -12.8619    2.7667 C   0  0  0  0  0  0  0  0  0  0  0  0
   -0.0467  -13.4985    1.4957 C   0  0  0  0  0  0  0  0  0  0  0  0
    0.5285  -12.8138    0.3740 C   0  0  0  0  0  0  0  0  0  0  0  0
    1.3435   -5.6370    2.5535 C   0  0  0  0  0  0  0  0  0  0  0  0
    1.8167   -5.1677    3.6404 O   0  0  0  0  0  0  0  0  0  0  0  0
    0.6493   -4.8637    1.7576 O   0  0  0  0  0  0  0  0  0  0  0  0
   -0.6809  -14.6535    1.2819 N   0  0  0  0  0  0  0  0  0  0  0  0
   -1.1699  -15.2734    2.3433 C   0  0  0  0  0  0  0  0  0  0  0  0
   -0.2856  -16.3720    2.9059 C   0  0  0  0  0  0  0  0  0  0  0  0
   -0.6527  -17.1162    4.0523 C   0  0  0  0  0  0  0  0  0  0  0  0
  3  4  1  0
  6 13  1  0
 13 14  1  0
 13 15  2  0
 16 17  1  0
 17 18  1  0
 18 19  2  0
 11 16  1  0
  4  5  2  0
  5 12  1  0
 11 12  2  0
 10 11  1  0
  9 10  2  0
  4  9  1  0
  1  2  2  0
  2  3  1  0
  3  8  2  0
  7  8  1  0
  6  7  2  0
  1  6  1  0
M  END

$$$$
No_1755-/export/home/yangzhenyu/potential_scad_32_flow//YTHDC2/2024-12-06-03-22-00/
     RDKit          3D

 18 18  0  0  1  0  0  0  0  0999 V2000
    1.1787   -8.0297    3.5154 C   0  0  2  0  0  0  0  0  0  0  0  0
    1.0491   -6.8434    2.9820 C   0  0  0  0  0  0  0  0  0  0  0  0
    1.9985   -8.9840    2.8958 C   0  0  0  0  0  0  0  0  0  0  0  0
    1.9135  -10.3404    3.6266 C   0  0  0  0  0  0  0  0  0  0  0  0
    1.0430  -10.7032    4.2979 C   0  0  1  0  0  0  0  0  0  0  0  0
   -0.0808   -9.9351    4.4860 C   0  0  0  0  0  0  0  0  0  0  0  0
   -0.0554   -8.6235    4.0309 C   0  0  0  0  0  0  0  0  0  0  0  0
    0.6693   -6.7091    1.6187 N   0  0  0  0  0  0  0  0  0  0  0  0
    0.7731   -7.5495    0.8043 C   0  0  0  0  0  0  0  0  0  0  0  0
    2.0535   -7.7891    0.1775 C   0  0  0  0  0  0  0  0  0  0  0  0
    2.2755   -8.7258   -0.8419 C   0  0  0  0  0  0  0  0  0  0  0  0
    2.6966   -8.5902   -1.8790 O   0  0  0  0  0  0  0  0  0  0  0  0
    1.9541   -9.9736   -0.3657 Cl  0  0  0  0  0  0  0  0  0  0  0  0
   -0.0140   -5.4063    1.4372 C   0  0  0  0  0  0  0  0  0  0  0  0
   -0.9956   -7.8009    4.5160 O   0  0  0  0  0  0  0  0  0  0  0  0
    0.6952   -4.2728    1.5669 O   0  0  0  0  0  0  0  0  0  0  0  0
   -1.2582   -5.2489    1.0053 C   0  0  0  0  0  0  0  0  0  0  0  0
    0.9315  -12.3147    4.6872 O   0  0  0  0  0  0  0  0  0  0  0  0
  1  2  1  6
  1  3  1  0
  4  5  1  0
  1  7  1  0
  6  7  1  0
  2  8  1  0
  8  9  1  0
  9 10  1  0
 10 11  1  0
 11 12  2  0
 11 13  1  0
  8 14  1  0
  7 15  2  0
 14 16  2  0
 14 17  1  0
  5 18  1  6
  3  4  1  0
  5  6  1  0
M  END

$$$$
No_1756-/export/home/yangzhenyu/potential_scad_32_flow//YTHDC2/2024-12-06-03-22-00/
     RDKit          3D

 17 17  0  0  1  0  0  0  0  0999 V2000
    1.1787   -8.0297    3.5154 O   0  0  0  0  0  0  0  0  0  0  0  0
    0.6747   -7.4019    2.7838 C   0  0  0  0  0  0  0  0  0  0  0  0
    0.5570   -6.0797    2.8560 C   0  0  0  0  0  0  0  0  0  0  0  0
   -0.2158   -5.3007    2.0284 C   0  0  0  0  0  0  0  0  0  0  0  0
   -0.8260   -5.9169    1.0290 C   0  0  0  0  0  0  0  0  0  0  0  0
   -0.6925   -7.2407    0.8216 C   0  0  0  0  0  0  0  0  0  0  0  0
    0.1645   -8.0156    1.6621 C   0  0  0  0  0  0  0  0  0  0  0  0
    0.4049   -9.3434    1.4877 C   0  0  2  0  0  0  0  0  0  0  0  0
    1.4848   -9.6364    0.5257 C   0  0  0  0  0  0  0  0  0  0  0  0
    1.9880  -10.8099    0.3816 O   0  0  0  0  0  0  0  0  0  0  0  0
    1.9837   -8.7189   -0.4097 O   0  0  0  0  0  0  0  0  0  0  0  0
   -1.6670   -5.1725    0.1366 O   0  0  0  0  0  0  0  0  0  0  0  0
   -1.4061   -3.9223   -0.1251 C   0  0  0  0  0  0  0  0  0  0  0  0
   -0.1530  -10.3240    1.9412 C   0  0  0  0  0  0  0  0  0  0  0  0
   -0.0734  -10.6212    3.2460 C   0  0  0  0  0  0  0  0  0  0  0  0
   -0.7813  -11.6164    3.8679 C   0  0  0  0  0  0  0  0  0  0  0  0
   -1.4532  -12.3556    2.9412 C   0  0  0  0  0  0  0  0  0  0  0  0
  1  2  1  0
  7  8  1  0
  8  9  1  6
  9 10  2  0
  9 11  1  0
  5 12  1  0
 12 13  1  0
  8 14  1  0
 14 15  2  3
 15 16  1  0
 16 17  2  0
  2  3  2  0
  3  4  1  0
  4  5  2  0
  5  6  1  0
  6  7  2  0
  2  7  1  0
M  END

$$$$
No_1757-/export/home/yangzhenyu/potential_scad_32_flow//YTHDC2/2024-12-06-03-22-00/
     RDKit          3D

 18 19  0  0  0  0  0  0  0  0999 V2000
    1.1787   -8.0297    3.5154 C   0  0  0  0  0  0  0  0  0  0  0  0
    1.0491   -6.8434    2.9820 C   0  0  0  0  0  0  0  0  0  0  0  0
    1.9985   -8.9840    2.8958 C   0  0  0  0  0  0  0  0  0  0  0  0
    1.7297   -9.2108    1.6335 C   0  0  0  0  0  0  0  0  0  0  0  0
    1.5234   -8.1478    0.8618 C   0  0  0  0  0  0  0  0  0  0  0  0
    1.0558   -6.9632    1.4912 C   0  0  0  0  0  0  0  0  0  0  0  0
    1.6540   -8.1524   -0.4964 C   0  0  0  0  0  0  0  0  0  0  0  0
    1.0225   -7.6345   -1.2902 O   0  0  0  0  0  0  0  0  0  0  0  0
    2.9448   -8.5547   -0.9813 O   0  0  0  0  0  0  0  0  0  0  0  0
    2.0746  -10.3657    3.6232 N   0  0  0  0  0  0  0  0  0  0  0  0
    1.5871  -11.4780    3.7448 C   0  0  0  0  0  0  0  0  0  0  0  0
    2.1744  -12.6010    3.7479 C   0  0  0  0  0  0  0  0  0  0  0  0
    1.3946  -13.7766    3.2386 C   0  0  0  0  0  0  0  0  0  0  0  0
    0.1353  -13.6014    2.9973 C   0  0  0  0  0  0  0  0  0  0  0  0
   -0.5039  -12.5229    3.0657 C   0  0  0  0  0  0  0  0  0  0  0  0
    0.2219  -11.3022    3.4148 C   0  0  0  0  0  0  0  0  0  0  0  0
    2.1594  -15.2368    3.2266 O   0  0  0  0  0  0  0  0  0  0  0  0
    0.8663   -5.6785    3.5374 Cl  0  0  0  0  0  0  0  0  0  0  0  0
  5  7  1  0
  7  8  2  0
  7  9  1  0
  3 10  1  0
 10 11  1  0
 13 17  1  0
  2 18  1  0
 11 12  2  0
 12 13  1  0
 13 14  2  0
 14 15  1  0
 15 16  2  0
 11 16  1  0
  1  2  2  0
  2  6  1  0
  5  6  2  0
  4  5  1  0
  3  4  2  0
  1  3  1  0
M  END

$$$$
No_1758-/export/home/yangzhenyu/potential_scad_32_flow//YTHDC2/2024-12-06-03-22-00/
     RDKit          3D

 18 20  0  0  1  0  0  0  0  0999 V2000
    1.1787   -8.0297    3.5154 C   0  0  0  0  0  0  0  0  0  0  0  0
    1.1048   -9.2215    3.2892 C   0  0  0  0  0  0  0  0  0  0  0  0
    1.3627  -10.1721    4.3044 C   0  0  0  0  0  0  0  0  0  0  0  0
    1.0682  -11.5187    4.0618 C   0  0  0  0  0  0  0  0  0  0  0  0
    0.6332  -11.9655    2.9682 C   0  0  0  0  0  0  0  0  0  0  0  0
    0.4776  -11.1308    1.9203 C   0  0  0  0  0  0  0  0  0  0  0  0
    0.7470   -9.8274    2.0368 C   0  0  0  0  0  0  0  0  0  0  0  0
    0.5535   -7.1314    2.6861 C   0  0  0  0  0  0  0  0  0  0  0  0
    0.2950   -7.6000    1.3275 C   0  0  0  0  0  0  0  0  0  0  0  0
    0.2693   -8.8631    1.0973 C   0  0  1  0  0  0  0  0  0  0  0  0
   -0.2550   -6.7470    0.5421 O   0  0  0  0  0  0  0  0  0  0  0  0
    0.4921  -13.3974    2.7282 C   0  0  0  0  0  0  0  0  0  0  0  0
    1.1028  -14.2897    3.4432 C   0  0  0  0  0  0  0  0  0  0  0  0
    1.0321  -15.7135    3.1284 C   0  0  0  0  0  0  0  0  0  0  0  0
    0.3822  -16.1522    2.1427 C   0  0  0  0  0  0  0  0  0  0  0  0
   -0.2555  -15.2397    1.3163 C   0  0  0  0  0  0  0  0  0  0  0  0
   -0.1677  -13.9015    1.6289 C   0  0  0  0  0  0  0  0  0  0  0  0
    0.0880   -9.2689   -0.2030 C   0  0  0  0  0  0  0  0  0  0  0  0
  1  2  1  0
  8  9  1  0
  7 10  1  0
  9 10  1  0
  9 11  2  0
  5 12  1  0
 10 18  1  6
  1  8  1  0
 12 13  2  0
 13 14  1  0
 14 15  2  0
 15 16  1  0
 16 17  2  0
 12 17  1  0
  2  3  2  0
  3  4  1  0
  4  5  2  0
  5  6  1  0
  6  7  2  0
  2  7  1  0
M  END

$$$$
No_1759-/export/home/yangzhenyu/potential_scad_32_flow//YTHDC2/2024-12-06-03-22-00/
     RDKit          3D

 18 18  0  0  0  0  0  0  0  0999 V2000
    1.1787   -8.0297    3.5154 C   0  0  0  0  0  0  0  0  0  0  0  0
    1.0491   -6.8434    2.9820 C   0  0  0  0  0  0  0  0  0  0  0  0
    0.9905   -9.0774    2.6527 C   0  0  0  0  0  0  0  0  0  0  0  0
    0.7897   -8.9519    1.3691 C   0  0  0  0  0  0  0  0  0  0  0  0
    0.6550  -10.0985    0.4848 C   0  0  0  0  0  0  0  0  0  0  0  0
    1.4208   -5.5674    3.6003 C   0  0  0  0  0  0  0  0  0  0  0  0
    0.9111   -7.6795    0.9531 C   0  0  0  0  0  0  0  0  0  0  0  0
    1.1033   -6.7086    1.5541 C   0  0  0  0  0  0  0  0  0  0  0  0
   -0.0287   -9.6965   -0.7399 O   0  0  0  0  0  0  0  0  0  0  0  0
    0.9582  -11.2424    0.5773 O   0  0  0  0  0  0  0  0  0  0  0  0
    2.2161   -5.6245    4.6783 O   0  0  0  0  0  0  0  0  0  0  0  0
    0.8491   -4.4403    3.2761 N   0  0  0  0  0  0  0  0  0  0  0  0
    1.0509  -10.4416    3.3041 C   0  0  0  0  0  0  0  0  0  0  0  0
    0.0101  -11.1545    3.6783 C   0  0  0  0  0  0  0  0  0  0  0  0
   -1.1590  -10.4229    3.9037 O   0  0  0  0  0  0  0  0  0  0  0  0
   -0.0301  -12.3428    3.8336 N   0  0  0  0  0  0  0  0  0  0  0  0
    0.0874  -13.3484    3.0769 C   0  0  0  0  0  0  0  0  0  0  0  0
    1.3694  -14.1320    3.0725 C   0  0  0  0  0  0  0  0  0  0  0  0
  4  5  1  0
  2  6  1  0
  5  9  2  0
  5 10  1  0
  6 11  2  0
  6 12  1  0
  3 13  1  0
 13 14  1  0
 14 15  2  0
 14 16  1  0
 16 17  1  0
 17 18  1  0
  1  2  2  0
  2  8  1  0
  7  8  2  0
  4  7  1  0
  3  4  2  0
  1  3  1  0
M  END

$$$$
No_1760-/export/home/yangzhenyu/potential_scad_32_flow//YTHDC2/2024-12-06-03-22-00/
     RDKit          3D

 17 18  0  0  1  0  0  0  0  0999 V2000
    1.1787   -8.0297    3.5154 C   0  0  0  0  0  0  0  0  0  0  0  0
    1.1048   -9.2215    3.2892 C   0  0  0  0  0  0  0  0  0  0  0  0
    1.3627  -10.1721    4.3044 C   0  0  0  0  0  0  0  0  0  0  0  0
    1.0682  -11.5187    4.0618 C   0  0  0  0  0  0  0  0  0  0  0  0
    0.6332  -11.9655    2.9682 C   0  0  0  0  0  0  0  0  0  0  0  0
    0.6698  -11.3145    2.0035 C   0  0  0  0  0  0  0  0  0  0  0  0
    0.4330  -11.8748    0.5979 C   0  0  0  0  0  0  0  0  0  0  0  0
    0.9043   -9.8978    1.9830 C   0  0  0  0  0  0  0  0  0  0  0  0
    1.7418   -9.3300    1.0467 C   0  0  0  0  0  0  0  0  0  0  0  0
    2.8159   -9.9020    0.5109 O   0  0  0  0  0  0  0  0  0  0  0  0
    1.5409   -8.0348    0.6177 N   0  0  0  0  0  0  0  0  0  0  0  0
    0.3669  -13.4663    2.8625 O   0  0  0  0  0  0  0  0  0  0  0  0
   -0.4122  -13.8833    2.1250 C   0  0  1  0  0  0  0  0  0  0  0  0
   -0.3576  -13.1440    0.8165 C   0  0  0  0  0  0  0  0  0  0  0  0
    2.3155   -7.4803   -0.2943 C   0  0  0  0  0  0  0  0  0  0  0  0
   -0.4046  -15.2517    1.9813 C   0  0  0  0  0  0  0  0  0  0  0  0
   -0.2925  -15.9622    2.8190 C   0  0  0  0  0  0  0  0  0  0  0  0
  1  2  1  0
  6  7  1  0
  8  9  1  0
  9 10  2  0
  9 11  1  0
  5 12  1  0
 12 13  1  0
  7 14  1  0
 13 14  1  0
 11 15  1  0
 13 16  1  6
 16 17  2  0
  2  3  2  0
  3  4  1  0
  4  5  2  0
  5  6  1  0
  6  8  2  0
  2  8  1  0
M  END

$$$$
No_1761-/export/home/yangzhenyu/potential_scad_32_flow//YTHDC2/2024-12-06-03-22-00/
     RDKit          3D

 18 18  0  0  0  0  0  0  0  0999 V2000
    1.1787   -8.0297    3.5154 C   0  0  0  0  0  0  0  0  0  0  0  0
    1.1048   -9.2215    3.2892 C   0  0  0  0  0  0  0  0  0  0  0  0
    1.2339   -9.7611    2.0189 C   0  0  0  0  0  0  0  0  0  0  0  0
    1.3583   -9.0036    0.9764 C   0  0  0  0  0  0  0  0  0  0  0  0
    1.5996   -7.6362    1.1311 C   0  0  0  0  0  0  0  0  0  0  0  0
    1.4830   -7.0928    2.3626 C   0  0  0  0  0  0  0  0  0  0  0  0
    1.5395   -5.7300    2.6182 C   0  0  0  0  0  0  0  0  0  0  0  0
    1.1775  -11.2233    1.8407 C   0  0  0  0  0  0  0  0  0  0  0  0
    0.5085  -11.9762    2.1989 N   0  0  0  0  0  0  0  0  0  0  0  0
   -0.7398  -11.6527    2.6516 C   0  0  0  0  0  0  0  0  0  0  0  0
    0.7360  -13.3386    2.3783 C   0  0  0  0  0  0  0  0  0  0  0  0
    1.1736  -14.0435    1.8053 C   0  0  0  0  0  0  0  0  0  0  0  0
    1.4986  -15.4471    2.2241 C   0  0  0  0  0  0  0  0  0  0  0  0
    0.7212  -15.8834    3.3681 O   0  0  0  0  0  0  0  0  0  0  0  0
    2.7929  -15.9677    2.3089 O   0  0  0  0  0  0  0  0  0  0  0  0
    1.2981   -4.8104    1.6753 N   0  0  0  0  0  0  0  0  0  0  0  0
    1.4476   -5.2363    3.9047 O   0  0  0  0  0  0  0  0  0  0  0  0
    1.1737   -3.4542    1.7440 C   0  0  0  0  0  0  0  0  0  0  0  0
  6  7  1  0
  3  8  1  0
  8  9  1  0
  9 10  1  0
  9 11  1  0
 11 12  2  3
 12 13  1  0
 13 14  1  0
 13 15  2  0
  7 16  1  0
  7 17  2  0
 16 18  1  0
  1  2  2  0
  2  3  1  0
  3  4  2  0
  4  5  1  0
  5  6  2  0
  1  6  1  0
M  END

$$$$
No_1762-/export/home/yangzhenyu/potential_scad_32_flow//YTHDC2/2024-12-06-03-22-00/
     RDKit          3D

 19 19  0  0  0  0  0  0  0  0999 V2000
    1.1787   -8.0297    3.5154 O   0  0  0  0  0  0  0  0  0  0  0  0
    0.9969   -8.9689    3.0048 C   0  0  0  0  0  0  0  0  0  0  0  0
    1.3055  -10.1056    3.6616 C   0  0  0  0  0  0  0  0  0  0  0  0
    1.1249  -11.3503    3.0941 C   0  0  0  0  0  0  0  0  0  0  0  0
    0.6932  -11.4484    1.8586 C   0  0  0  0  0  0  0  0  0  0  0  0
    0.5498  -10.3736    1.0579 C   0  0  0  0  0  0  0  0  0  0  0  0
    0.7643   -9.1185    1.6383 C   0  0  0  0  0  0  0  0  0  0  0  0
    0.5937   -7.8467    1.0482 C   0  0  0  0  0  0  0  0  0  0  0  0
    1.5294   -7.0230    1.0749 O   0  0  0  0  0  0  0  0  0  0  0  0
   -0.5427   -7.4536    0.5080 O   0  0  0  0  0  0  0  0  0  0  0  0
    1.2317  -12.8366    3.9675 C   0  0  0  0  0  0  0  0  0  0  0  0
    1.2473  -13.6888    3.3225 C   0  0  0  0  0  0  0  0  0  0  0  0
    1.5445  -14.0583    1.9767 C   0  0  0  0  0  0  0  0  0  0  0  0
    1.0103  -14.8980    1.2502 C   0  0  0  0  0  0  0  0  0  0  0  0
    0.0674  -15.7583    1.7239 C   0  0  0  0  0  0  0  0  0  0  0  0
   -1.0328  -15.4087    2.1717 C   0  0  0  0  0  0  0  0  0  0  0  0
   -1.9406  -16.3586    2.7050 C   0  0  0  0  0  0  0  0  0  0  0  0
   -3.0557  -15.9545    3.2254 C   0  0  0  0  0  0  0  0  0  0  0  0
   -3.5740  -14.5631    3.0409 O   0  0  0  0  0  0  0  0  0  0  0  0
  1  2  1  0
  7  8  1  0
  8  9  2  0
  8 10  1  0
  4 11  1  0
 11 12  2  3
 12 13  1  0
 13 14  2  3
 14 15  1  0
 15 16  2  3
 16 17  1  0
 17 18  1  0
 18 19  2  0
  2  3  2  0
  3  4  1  0
  4  5  2  0
  5  6  1  0
  6  7  2  0
  2  7  1  0
M  END

$$$$
No_1763-/export/home/yangzhenyu/potential_scad_32_flow//YTHDC2/2024-12-06-03-22-00/
     RDKit          3D

 18 20  0  0  0  0  0  0  0  0999 V2000
    1.1787   -8.0297    3.5154 C   0  0  0  0  0  0  0  0  0  0  0  0
    1.1048   -9.2215    3.2892 C   0  0  0  0  0  0  0  0  0  0  0  0
    1.2339   -9.7611    2.0189 C   0  0  0  0  0  0  0  0  0  0  0  0
    1.3583   -9.0036    0.9764 C   0  0  0  0  0  0  0  0  0  0  0  0
    1.5996   -7.6362    1.1311 C   0  0  0  0  0  0  0  0  0  0  0  0
    1.4830   -7.0928    2.3626 C   0  0  0  0  0  0  0  0  0  0  0  0
    1.1008  -11.2372    1.8542 C   0  0  0  0  0  0  0  0  0  0  0  0
    0.5178  -11.9759    2.3445 C   0  0  0  0  0  0  0  0  0  0  0  0
    0.4575  -13.3705    2.1281 C   0  0  0  0  0  0  0  0  0  0  0  0
   -0.4455  -13.9843    1.5570 C   0  0  0  0  0  0  0  0  0  0  0  0
   -1.4674  -13.1079    0.8614 C   0  0  0  0  0  0  0  0  0  0  0  0
   -1.4742  -11.7199    1.1793 C   0  0  0  0  0  0  0  0  0  0  0  0
   -0.4552  -11.1578    1.7974 C   0  0  0  0  0  0  0  0  0  0  0  0
    1.6226  -14.0529    2.6178 C   0  0  0  0  0  0  0  0  0  0  0  0
    1.4037  -15.5626    2.7323 C   0  0  0  0  0  0  0  0  0  0  0  0
    0.1362  -16.0901    2.6970 C   0  0  0  0  0  0  0  0  0  0  0  0
   -0.7873  -15.2844    1.9074 C   0  0  0  0  0  0  0  0  0  0  0  0
    1.5041   -5.6425    2.6415 Cl  0  0  0  0  0  0  0  0  0  0  0  0
  3  7  1  0
  6 18  1  0
  7  8  1  0
  1  2  2  0
  2  3  1  0
  3  4  2  0
  4  5  1  0
  5  6  2  0
  1  6  1  0
  8  9  2  0
 10 11  2  0
 11 12  1  0
 12 13  2  0
  8 13  1  0
  9 10  1  0
 10 17  1  0
 16 17  2  0
 15 16  1  0
 14 15  2  0
  9 14  1  0
M  END

$$$$
No_1764-/export/home/yangzhenyu/potential_scad_32_flow//YTHDC2/2024-12-06-03-22-00/
     RDKit          3D

 20 22  0  0  0  0  0  0  0  0999 V2000
    1.1787   -8.0297    3.5154 C   0  0  0  0  0  0  0  0  0  0  0  0
    1.1048   -9.2215    3.2892 C   0  0  0  0  0  0  0  0  0  0  0  0
    1.3627  -10.1721    4.3044 C   0  0  0  0  0  0  0  0  0  0  0  0
    1.0682  -11.5187    4.0618 C   0  0  0  0  0  0  0  0  0  0  0  0
    0.6332  -11.9655    2.9682 C   0  0  0  0  0  0  0  0  0  0  0  0
    0.4776  -11.1308    1.9203 C   0  0  0  0  0  0  0  0  0  0  0  0
    0.7470   -9.8274    2.0368 C   0  0  0  0  0  0  0  0  0  0  0  0
    1.0387   -7.0301    2.5175 C   0  0  0  0  0  0  0  0  0  0  0  0
    0.9130   -7.5288    1.2013 C   0  0  0  0  0  0  0  0  0  0  0  0
    0.7893   -8.7979    0.9542 C   0  0  0  0  0  0  0  0  0  0  0  0
    0.5241   -9.2578   -0.2817 C   0  0  0  0  0  0  0  0  0  0  0  0
    1.2450   -9.2169   -1.2769 O   0  0  0  0  0  0  0  0  0  0  0  0
   -0.8706   -9.3448   -0.6392 N   0  0  0  0  0  0  0  0  0  0  0  0
    0.5226  -13.3817    2.7091 C   0  0  0  0  0  0  0  0  0  0  0  0
    1.5157  -14.3219    3.2215 C   0  0  0  0  0  0  0  0  0  0  0  0
    1.2416  -15.6708    2.9961 C   0  0  0  0  0  0  0  0  0  0  0  0
    0.3745  -16.1261    2.2253 C   0  0  0  0  0  0  0  0  0  0  0  0
   -0.4993  -15.2814    1.6284 C   0  0  0  0  0  0  0  0  0  0  0  0
   -0.3478  -13.9194    1.8540 C   0  0  0  0  0  0  0  0  0  0  0  0
   -1.3416   -9.6291   -1.9277 C   0  0  0  0  0  0  0  0  0  0  0  0
 10 11  1  0
 11 12  2  0
 11 13  1  0
  5 14  1  0
 13 20  1  0
  2  3  1  0
  3  4  2  0
  4  5  1  0
  5  6  2  0
  6  7  1  0
  1  2  2  0
  2  7  1  0
  7 10  2  0
  9 10  1  0
  8  9  2  0
  1  8  1  0
 14 15  2  0
 15 16  1  0
 16 17  2  0
 17 18  1  0
 18 19  2  0
 14 19  1  0
M  END

$$$$
No_1765-/export/home/yangzhenyu/potential_scad_32_flow//YTHDC2/2024-12-06-03-22-00/
     RDKit          3D

 20 21  0  0  1  0  0  0  0  0999 V2000
    1.1787   -8.0297    3.5154 C   0  0  0  0  0  0  0  0  0  0  0  0
    1.1048   -9.2215    3.2892 C   0  0  0  0  0  0  0  0  0  0  0  0
    1.2339   -9.7611    2.0189 C   0  0  0  0  0  0  0  0  0  0  0  0
    1.3583   -9.0036    0.9764 C   0  0  0  0  0  0  0  0  0  0  0  0
    1.7077   -9.6100   -0.3010 C   0  0  0  0  0  0  0  0  0  0  0  0
    1.3637   -7.1087    2.3226 C   0  0  0  0  0  0  0  0  0  0  0  0
    1.4257   -7.6645    1.0231 C   0  0  0  0  0  0  0  0  0  0  0  0
    1.9364   -8.8976   -1.3212 O   0  0  0  0  0  0  0  0  0  0  0  0
    1.5810  -10.8409   -0.4184 O   0  0  0  0  0  0  0  0  0  0  0  0
    1.3325   -5.6207    2.4687 C   0  0  0  0  0  0  0  0  0  0  0  0
    1.6659   -5.0763    3.5307 N   0  0  0  0  0  0  0  0  0  0  0  0
    0.7427   -4.9099    1.4750 O   0  0  0  0  0  0  0  0  0  0  0  0
    1.0520  -10.1616    4.3816 I   0  0  0  0  0  0  0  0  0  0  0  0
    1.5269   -3.6648    3.6521 C   0  0  2  0  0  0  0  0  0  0  0  0
    0.1828   -3.3124    4.2812 C   0  0  0  0  0  0  0  0  0  0  0  0
    0.2275   -1.9124    4.7721 C   0  0  0  0  0  0  0  0  0  0  0  0
    0.3608   -0.9370    3.6971 C   0  0  0  0  0  0  0  0  0  0  0  0
    0.7272   -1.4746    2.4938 C   0  0  2  0  0  0  0  0  0  0  0  0
    1.5742   -2.6381    2.5728 C   0  0  0  0  0  0  0  0  0  0  0  0
    1.2467   -0.3739    1.5585 C   0  0  0  0  0  0  0  0  0  0  0  0
  4  5  1  0
  5  8  1  0
  5  9  2  0
  6 10  1  0
 10 11  1  0
 10 12  2  0
  2 13  1  0
 14 11  1  6
 14 15  1  0
 15 16  1  0
 16 17  1  0
 17 18  1  0
 14 19  1  0
 18 19  1  0
 18 20  1  6
  1  2  2  0
  2  3  1  0
  3  4  2  0
  4  7  1  0
  6  7  2  0
  1  6  1  0
M  END

$$$$
No_1766-/export/home/yangzhenyu/potential_scad_32_flow//YTHDC2/2024-12-06-03-22-00/
     RDKit          3D

 18 19  0  0  0  0  0  0  0  0999 V2000
    1.1787   -8.0297    3.5154 C   0  0  0  0  0  0  0  0  0  0  0  0
    1.1048   -9.2215    3.2892 C   0  0  0  0  0  0  0  0  0  0  0  0
    1.3627  -10.1721    4.3044 C   0  0  0  0  0  0  0  0  0  0  0  0
    1.0682  -11.5187    4.0618 C   0  0  0  0  0  0  0  0  0  0  0  0
    0.6332  -11.9655    2.9682 C   0  0  0  0  0  0  0  0  0  0  0  0
    0.4776  -11.1308    1.9203 C   0  0  0  0  0  0  0  0  0  0  0  0
    0.7470   -9.8274    2.0368 C   0  0  0  0  0  0  0  0  0  0  0  0
    1.0387   -7.0301    2.5175 C   0  0  0  0  0  0  0  0  0  0  0  0
    0.9130   -7.5288    1.2013 C   0  0  0  0  0  0  0  0  0  0  0  0
    0.7893   -8.7979    0.9542 C   0  0  0  0  0  0  0  0  0  0  0  0
    0.3998  -13.3695    2.7114 C   0  0  0  0  0  0  0  0  0  0  0  0
   -0.8069  -13.8090    2.3159 N   0  0  0  0  0  0  0  0  0  0  0  0
    1.4017  -14.3211    2.9658 O   0  0  0  0  0  0  0  0  0  0  0  0
    0.4497   -9.2875   -0.3674 O   0  0  0  0  0  0  0  0  0  0  0  0
    1.2692   -5.6030    2.5913 C   0  0  0  0  0  0  0  0  0  0  0  0
   -1.0657  -15.1935    2.1285 C   0  0  0  0  0  0  0  0  0  0  0  0
    0.3835   -4.8054    2.4994 O   0  0  0  0  0  0  0  0  0  0  0  0
    2.2261   -5.1971    3.4100 O   0  0  0  0  0  0  0  0  0  0  0  0
  5 11  1  0
 11 12  1  0
 11 13  2  0
 10 14  1  0
  8 15  1  0
 12 16  1  0
 15 17  2  0
 15 18  1  0
  2  3  1  0
  3  4  2  0
  4  5  1  0
  5  6  2  0
  6  7  1  0
  1  2  2  0
  2  7  1  0
  7 10  2  0
  9 10  1  0
  8  9  2  0
  1  8  1  0
M  END

$$$$
No_1767-/export/home/yangzhenyu/potential_scad_32_flow//YTHDC2/2024-12-06-03-22-00/
     RDKit          3D

 18 18  0  0  1  0  0  0  0  0999 V2000
    1.1787   -8.0297    3.5154 C   0  0  0  0  0  0  0  0  0  0  0  0
    1.1048   -9.2215    3.2892 C   0  0  0  0  0  0  0  0  0  0  0  0
    1.2339   -9.7611    2.0189 C   0  0  0  0  0  0  0  0  0  0  0  0
    1.3583   -9.0036    0.9764 C   0  0  0  0  0  0  0  0  0  0  0  0
    1.5996   -7.6362    1.1311 C   0  0  0  0  0  0  0  0  0  0  0  0
    1.4830   -7.0928    2.3626 C   0  0  0  0  0  0  0  0  0  0  0  0
    1.1008  -11.2372    1.8542 C   0  0  1  0  0  0  0  0  0  0  0  0
    0.4812  -11.6084    0.6459 C   0  0  0  0  0  0  0  0  0  0  0  0
   -0.3691  -10.9312    0.0124 O   0  0  0  0  0  0  0  0  0  0  0  0
    0.3108  -12.9642    0.4726 O   0  0  0  0  0  0  0  0  0  0  0  0
    1.5664   -5.6576    2.6955 Cl  0  0  0  0  0  0  0  0  0  0  0  0
    1.8399  -12.0354    2.5483 C   0  0  0  0  0  0  0  0  0  0  0  0
    1.0678  -12.8075    3.5338 C   0  0  0  0  0  0  0  0  0  0  0  0
    0.4180  -13.8873    2.7889 O   0  0  0  0  0  0  0  0  0  0  0  0
    1.1698  -15.0573    2.6254 C   0  0  1  0  0  0  0  0  0  0  0  0
    2.4687  -14.9282    2.1651 C   0  0  0  0  0  0  0  0  0  0  0  0
    0.7491  -16.1212    3.0683 C   0  0  0  0  0  0  0  0  0  0  0  0
    1.6134  -17.3028    2.9326 C   0  0  0  0  0  0  0  0  0  0  0  0
  3  7  1  0
  7  8  1  0
  8  9  2  0
  8 10  1  0
  6 11  1  0
  7 12  1  6
 12 13  1  0
 13 14  1  0
 14 15  1  0
 15 16  1  1
 15 17  1  0
 17 18  2  0
  1  2  2  0
  2  3  1  0
  3  4  2  0
  4  5  1  0
  5  6  2  0
  1  6  1  0
M  END

$$$$
No_1768-/export/home/yangzhenyu/potential_scad_32_flow//YTHDC2/2024-12-06-03-22-00/
     RDKit          3D

 19 20  0  0  1  0  0  0  0  0999 V2000
    1.1787   -8.0297    3.5154 C   0  0  0  0  0  0  0  0  0  0  0  0
    1.0491   -6.8434    2.9820 C   0  0  0  0  0  0  0  0  0  0  0  0
    0.9905   -9.0774    2.6527 C   0  0  0  0  0  0  0  0  0  0  0  0
    0.7897   -8.9519    1.3691 C   0  0  0  0  0  0  0  0  0  0  0  0
    0.7018   -7.7198    0.7892 C   0  0  0  0  0  0  0  0  0  0  0  0
    0.8918   -6.5957    1.6117 C   0  0  0  0  0  0  0  0  0  0  0  0
    1.0998  -10.4710    3.2437 C   0  0  0  0  0  0  0  0  0  0  0  0
    2.1917  -10.8879    3.7399 N   0  0  0  0  0  0  0  0  0  0  0  0
    0.8583   -5.2458    1.2490 C   0  0  0  0  0  0  0  0  0  0  0  0
    0.0777  -11.2490    3.3180 N   0  0  0  0  0  0  0  0  0  0  0  0
   -0.2312   -4.7312    0.7855 O   0  0  0  0  0  0  0  0  0  0  0  0
    1.7498   -4.3340    1.6816 O   0  0  0  0  0  0  0  0  0  0  0  0
   -1.1391  -10.6401    3.2601 C   0  0  2  0  0  0  0  0  0  0  0  0
   -1.5500   -9.8197    4.4930 C   0  0  0  0  0  0  0  0  0  0  0  0
   -2.4936   -9.2860    4.6336 C   0  0  0  0  0  0  0  0  0  0  0  0
   -3.5138   -9.4114    3.6956 C   0  0  0  0  0  0  0  0  0  0  0  0
   -3.3358  -10.1990    2.6448 C   0  0  0  0  0  0  0  0  0  0  0  0
   -2.1409  -10.7851    2.4394 C   0  0  0  0  0  0  0  0  0  0  0  0
   -1.9092  -11.4970    1.2486 O   0  0  0  0  0  0  0  0  0  0  0  0
  3  7  1  0
  7  8  1  0
  6  9  1  0
  7 10  2  3
  9 11  2  0
  9 12  1  0
 10 13  1  0
 13 14  1  1
 15 16  1  0
 13 18  1  0
 17 18  1  0
 18 19  2  0
 14 15  1  0
 16 17  1  0
  1  2  2  0
  2  6  1  0
  5  6  2  0
  4  5  1  0
  3  4  2  0
  1  3  1  0
M  END

$$$$
No_1769-/export/home/yangzhenyu/potential_scad_32_flow//YTHDC2/2024-12-06-03-22-00/
     RDKit          3D

 18 19  0  0  0  0  0  0  0  0999 V2000
    1.1787   -8.0297    3.5154 C   0  0  0  0  0  0  0  0  0  0  0  0
    1.1048   -9.2215    3.2892 C   0  0  0  0  0  0  0  0  0  0  0  0
    1.2339   -9.7611    2.0189 C   0  0  0  0  0  0  0  0  0  0  0  0
    1.3583   -9.0036    0.9764 C   0  0  0  0  0  0  0  0  0  0  0  0
    1.5996   -7.6362    1.1311 C   0  0  0  0  0  0  0  0  0  0  0  0
    1.4830   -7.0928    2.3626 C   0  0  0  0  0  0  0  0  0  0  0  0
    1.4898   -5.7274    2.6199 C   0  0  0  0  0  0  0  0  0  0  0  0
    1.1882  -11.3736    1.8424 C   0  0  0  0  0  0  0  0  0  0  0  0
    0.2883  -11.9819    2.0702 C   0  0  0  0  0  0  0  0  0  0  0  0
    0.4271  -13.3696    2.3969 C   0  0  0  0  0  0  0  0  0  0  0  0
    1.6249  -14.0114    2.0746 C   0  0  0  0  0  0  0  0  0  0  0  0
    2.7425  -13.1695    1.6233 C   0  0  0  0  0  0  0  0  0  0  0  0
    2.5104  -11.8628    1.4306 N   0  0  0  0  0  0  0  0  0  0  0  0
    1.6911   -5.1724    3.8638 N   0  0  0  0  0  0  0  0  0  0  0  0
    1.0256   -4.8533    1.6572 O   0  0  0  0  0  0  0  0  0  0  0  0
    1.8865  -15.3762    2.1896 Cl  0  0  0  0  0  0  0  0  0  0  0  0
    1.5712   -9.4492   -0.3558 O   0  0  0  0  0  0  0  0  0  0  0  0
   -0.5706  -14.1761    2.8175 O   0  0  0  0  0  0  0  0  0  0  0  0
  6  7  1  0
  3  8  1  0
  7 14  1  0
  7 15  2  0
 11 16  1  0
  4 17  1  0
 10 18  1  0
  1  2  2  0
  2  3  1  0
  3  4  2  0
  4  5  1  0
  5  6  2  0
  1  6  1  0
  8  9  2  0
  9 10  1  0
 10 11  2  0
 11 12  1  0
 12 13  2  0
  8 13  1  0
M  END

$$$$
No_1770-/export/home/yangzhenyu/potential_scad_32_flow//YTHDC2/2024-12-06-03-22-00/
     RDKit          3D

 21 22  0  0  0  0  0  0  0  0999 V2000
    1.1787   -8.0297    3.5154 O   0  0  0  0  0  0  0  0  0  0  0  0
    0.9969   -8.9689    3.0048 C   0  0  0  0  0  0  0  0  0  0  0  0
    1.3055  -10.1056    3.6616 C   0  0  0  0  0  0  0  0  0  0  0  0
    1.1249  -11.3503    3.0941 C   0  0  0  0  0  0  0  0  0  0  0  0
    0.6932  -11.4484    1.8586 C   0  0  0  0  0  0  0  0  0  0  0  0
    0.5498  -10.3736    1.0579 C   0  0  0  0  0  0  0  0  0  0  0  0
    0.7643   -9.1185    1.6383 C   0  0  0  0  0  0  0  0  0  0  0  0
    0.5937   -7.8467    1.0482 C   0  0  0  0  0  0  0  0  0  0  0  0
   -0.4358   -7.6746    0.4159 C   0  0  0  0  0  0  0  0  0  0  0  0
    1.2531  -12.6631    3.7963 Cl  0  0  0  0  0  0  0  0  0  0  0  0
   -1.2899   -8.7763    0.1680 C   0  0  0  0  0  0  0  0  0  0  0  0
   -2.5385   -8.5261   -0.4617 C   0  0  0  0  0  0  0  0  0  0  0  0
   -2.7637   -7.2158   -1.1152 C   0  0  0  0  0  0  0  0  0  0  0  0
   -3.1319   -6.2018   -0.4144 C   0  0  0  0  0  0  0  0  0  0  0  0
   -3.2350   -4.9410   -0.9728 C   0  0  0  0  0  0  0  0  0  0  0  0
   -3.1848   -4.7634   -2.3014 C   0  0  0  0  0  0  0  0  0  0  0  0
   -2.8208   -5.8691   -3.1124 C   0  0  0  0  0  0  0  0  0  0  0  0
   -2.6010   -5.7441   -4.5884 C   0  0  0  0  0  0  0  0  0  0  0  0
   -2.5157   -7.0511   -2.5976 N   0  0  0  0  0  0  0  0  0  0  0  0
   -3.4524   -5.2635   -5.2028 C   0  0  0  0  0  0  0  0  0  0  0  0
   -1.2461   -6.0671   -5.0268 C   0  0  0  0  0  0  0  0  0  0  0  0
  1  2  1  0
  7  8  1  0
  8  9  2  3
  4 10  1  0
  9 11  1  0
 11 12  2  3
 12 13  1  0
 17 18  1  0
 18 20  2  0
 18 21  1  0
  2  3  2  0
  3  4  1  0
  4  5  2  0
  5  6  1  0
  6  7  2  0
  2  7  1  0
 13 14  2  0
 14 15  1  0
 15 16  2  0
 16 17  1  0
 17 19  2  0
 13 19  1  0
M  END

$$$$
No_1771-/export/home/yangzhenyu/potential_scad_32_flow//YTHDC2/2024-12-06-03-22-00/
     RDKit          3D

 19 21  0  0  0  0  0  0  0  0999 V2000
    1.1787   -8.0297    3.5154 C   0  0  0  0  0  0  0  0  0  0  0  0
    1.0491   -6.8434    2.9820 C   0  0  0  0  0  0  0  0  0  0  0  0
    2.0004   -8.9805    3.0498 C   0  0  0  0  0  0  0  0  0  0  0  0
    2.3555   -9.0813    1.8033 C   0  0  0  0  0  0  0  0  0  0  0  0
    1.5516   -6.8448    1.5633 C   0  0  0  0  0  0  0  0  0  0  0  0
    2.2171   -7.9366    1.0002 C   0  0  0  0  0  0  0  0  0  0  0  0
    2.0828  -10.3102    3.8067 C   0  0  0  0  0  0  0  0  0  0  0  0
    1.9219  -11.4411    3.2239 C   0  0  0  0  0  0  0  0  0  0  0  0
    2.1329  -12.6613    3.9538 C   0  0  0  0  0  0  0  0  0  0  0  0
    1.8043  -13.8456    3.1292 C   0  0  0  0  0  0  0  0  0  0  0  0
    1.3656  -13.8554    1.9738 C   0  0  0  0  0  0  0  0  0  0  0  0
    1.3896  -12.6240    1.2078 C   0  0  0  0  0  0  0  0  0  0  0  0
    1.6120  -11.4620    1.8431 C   0  0  0  0  0  0  0  0  0  0  0  0
    2.4066  -10.2951    0.9149 N   0  0  0  0  0  0  0  0  0  0  0  0
    0.7352   -5.6322    3.4635 O   0  0  0  0  0  0  0  0  0  0  0  0
    0.7792   -4.4541    2.9744 C   0  0  0  0  0  0  0  0  0  0  0  0
    1.1555  -15.0346    1.2324 C   0  0  0  0  0  0  0  0  0  0  0  0
    0.1827  -15.6894    1.5312 C   0  0  0  0  0  0  0  0  0  0  0  0
   -1.0567  -15.1158    1.5559 C   0  0  0  0  0  0  0  0  0  0  0  0
  2 15  1  0
 15 16  1  0
 11 17  1  0
 17 18  1  0
 18 19  1  0
  4 14  2  0
 13 14  1  0
  7  8  1  0
  3  7  2  0
  8  9  2  0
  9 10  1  0
 10 11  2  0
 11 12  1  0
 12 13  2  0
  8 13  1  0
  1  2  2  0
  2  5  1  0
  5  6  2  0
  4  6  1  0
  3  4  1  0
  1  3  1  0
M  END

$$$$
No_1772-/export/home/yangzhenyu/potential_scad_32_flow//YTHDC2/2024-12-06-03-22-00/
     RDKit          3D

 19 19  0  0  1  0  0  0  0  0999 V2000
    1.1787   -8.0297    3.5154 C   0  0  0  0  0  0  0  0  0  0  0  0
    1.1048   -9.2215    3.2892 C   0  0  0  0  0  0  0  0  0  0  0  0
    1.3627  -10.1721    4.3044 C   0  0  0  0  0  0  0  0  0  0  0  0
    1.0682  -11.5187    4.0618 C   0  0  0  0  0  0  0  0  0  0  0  0
    0.6332  -11.9655    2.9682 C   0  0  0  0  0  0  0  0  0  0  0  0
    0.6698  -11.3145    2.0035 C   0  0  0  0  0  0  0  0  0  0  0  0
    0.9069   -9.8966    2.0084 C   0  0  0  0  0  0  0  0  0  0  0  0
    1.0124   -7.0534    2.4581 C   0  0  0  0  0  0  0  0  0  0  0  0
    1.0513   -5.5584    2.6281 C   0  0  1  0  0  0  0  0  0  0  0  0
    0.5534  -13.4587    2.8381 C   0  0  1  0  0  0  0  0  0  0  0  0
    1.5133  -14.3676    3.4331 C   0  0  0  0  0  0  0  0  0  0  0  0
    1.6293  -15.6069    2.7787 O   0  0  0  0  0  0  0  0  0  0  0  0
    1.6657   -5.0921    3.7772 O   0  0  0  0  0  0  0  0  0  0  0  0
    1.1064   -4.8571    1.5332 C   0  0  0  0  0  0  0  0  0  0  0  0
    1.4781   -3.4862    1.7824 O   0  0  0  0  0  0  0  0  0  0  0  0
    0.3010   -4.9778    0.7011 O   0  0  0  0  0  0  0  0  0  0  0  0
   -0.5416  -13.8851    2.3115 C   0  0  0  0  0  0  0  0  0  0  0  0
   -1.7558  -13.8114    2.9271 C   0  0  0  0  0  0  0  0  0  0  0  0
   -2.4770  -12.7066    2.9262 C   0  0  0  0  0  0  0  0  0  0  0  0
  1  2  1  0
  1  8  2  3
  8  9  1  0
  5 10  1  0
 10 11  1  0
 11 12  2  0
  9 13  1  1
  9 14  1  0
 14 15  1  0
 14 16  2  0
 10 17  1  1
 17 18  1  0
 18 19  1  0
  2  3  2  0
  3  4  1  0
  4  5  2  0
  5  6  1  0
  6  7  2  0
  2  7  1  0
M  END

$$$$
No_1773-/export/home/yangzhenyu/potential_scad_32_flow//YTHDC2/2024-12-06-03-22-00/
     RDKit          3D

 19 19  0  0  0  0  0  0  0  0999 V2000
    1.1787   -8.0297    3.5154 C   0  0  0  0  0  0  0  0  0  0  0  0
    1.0491   -6.8434    2.9820 C   0  0  0  0  0  0  0  0  0  0  0  0
    1.9985   -8.9840    2.8958 C   0  0  0  0  0  0  0  0  0  0  0  0
    1.9135  -10.3404    3.6266 C   0  0  0  0  0  0  0  0  0  0  0  0
    1.3291  -11.3908    3.0222 C   0  0  0  0  0  0  0  0  0  0  0  0
    1.0344  -11.3281    1.7959 C   0  0  0  0  0  0  0  0  0  0  0  0
    0.5050   -6.6553    1.7492 O   0  0  0  0  0  0  0  0  0  0  0  0
    0.4927  -12.4296    1.1746 C   0  0  0  0  0  0  0  0  0  0  0  0
    0.4631  -13.6622    1.7080 C   0  0  0  0  0  0  0  0  0  0  0  0
    0.9086  -13.7650    3.0266 C   0  0  0  0  0  0  0  0  0  0  0  0
    1.3995  -12.6495    3.7155 C   0  0  0  0  0  0  0  0  0  0  0  0
    1.8484   -5.7220    3.3783 O   0  0  0  0  0  0  0  0  0  0  0  0
    2.5436  -10.3446    4.7981 N   0  0  0  0  0  0  0  0  0  0  0  0
    0.0706  -14.8063    1.0861 C   0  0  0  0  0  0  0  0  0  0  0  0
   -1.0151  -14.4752    0.1159 C   0  0  0  0  0  0  0  0  0  0  0  0
   -1.4664  -15.6512   -0.6151 C   0  0  0  0  0  0  0  0  0  0  0  0
   -1.1374  -16.9174   -0.3979 C   0  0  0  0  0  0  0  0  0  0  0  0
   -0.1959  -17.1561    0.6077 C   0  0  0  0  0  0  0  0  0  0  0  0
    2.5809  -11.1907    5.3484 H   0  0  0  0  0  0  0  0  0  0  0  0
  1  2  1  0
  1  3  1  0
  3  4  1  0
  4  5  1  0
  2  7  2  0
  2 12  1  0
  4 13  2  0
  9 14  1  0
 14 15  2  3
 15 16  1  0
 16 17  2  3
 17 18  1  0
  5  6  2  0
  6  8  1  0
  8  9  2  0
  9 10  1  0
 10 11  2  0
  5 11  1  0
 13 19  1  0
M  END

$$$$
No_1774-/export/home/yangzhenyu/potential_scad_32_flow//YTHDC2/2024-12-06-03-22-00/
     RDKit          3D

 19 19  0  0  1  0  0  0  0  0999 V2000
    1.1787   -8.0297    3.5154 C   0  0  0  0  0  0  0  0  0  0  0  0
    1.0491   -6.8434    2.9820 C   0  0  0  0  0  0  0  0  0  0  0  0
    1.9985   -8.9840    2.8958 C   0  0  0  0  0  0  0  0  0  0  0  0
    1.9135  -10.3404    3.6266 C   0  0  2  0  0  0  0  0  0  0  0  0
    2.2847  -10.5440    4.7936 C   0  0  0  0  0  0  0  0  0  0  0  0
    0.3304   -6.7696    1.8077 C   0  0  2  0  0  0  0  0  0  0  0  0
    0.3816   -7.5583    0.9388 C   0  0  0  0  0  0  0  0  0  0  0  0
    0.4592   -5.2950    1.3477 C   0  0  0  0  0  0  0  0  0  0  0  0
    1.6480  -11.4171    2.7598 C   0  0  0  0  0  0  0  0  0  0  0  0
    1.5554  -12.6293    3.2580 C   0  0  0  0  0  0  0  0  0  0  0  0
    0.9026  -13.6283    2.4004 C   0  0  2  0  0  0  0  0  0  0  0  0
   -0.2364  -13.2668    1.8690 C   0  0  0  0  0  0  0  0  0  0  0  0
   -0.8845  -14.1859    1.2922 C   0  0  0  0  0  0  0  0  0  0  0  0
   -0.4232  -15.4001    0.9275 C   0  0  0  0  0  0  0  0  0  0  0  0
    0.7127  -15.8221    1.4754 C   0  0  0  0  0  0  0  0  0  0  0  0
    1.4357  -14.9401    2.3319 C   0  0  0  0  0  0  0  0  0  0  0  0
    1.7093  -11.2051    1.4255 O   0  0  0  0  0  0  0  0  0  0  0  0
    2.5518  -15.3401    2.8943 O   0  0  0  0  0  0  0  0  0  0  0  0
   -0.7627   -8.1738    0.4073 C   0  0  0  0  0  0  0  0  0  0  0  0
  1  2  1  0
  1  3  1  0
  3  4  1  0
  4  5  1  6
  2  6  1  0
  6  7  1  0
  6  8  1  6
  4  9  1  0
  9 10  1  0
 11 10  1  1
 11 12  1  0
 13 14  1  0
 11 16  1  0
 15 16  1  0
  9 17  2  0
 16 18  2  0
  7 19  2  0
 12 13  1  0
 14 15  1  0
M  END

$$$$
No_1775-/export/home/yangzhenyu/potential_scad_32_flow//YTHDC2/2024-12-06-03-22-00/
     RDKit          3D

 19 20  0  0  0  0  0  0  0  0999 V2000
    1.1787   -8.0297    3.5154 C   0  0  0  0  0  0  0  0  0  0  0  0
    1.0491   -6.8434    2.9820 C   0  0  0  0  0  0  0  0  0  0  0  0
    0.0950   -8.8404    3.2292 C   0  0  0  0  0  0  0  0  0  0  0  0
   -0.9173   -8.4596    2.5152 C   0  0  0  0  0  0  0  0  0  0  0  0
   -1.0331   -7.2162    2.0653 C   0  0  0  0  0  0  0  0  0  0  0  0
   -0.0105   -6.3168    2.3081 C   0  0  0  0  0  0  0  0  0  0  0  0
    0.1935  -10.3737    3.7416 Cl  0  0  0  0  0  0  0  0  0  0  0  0
    0.0192   -4.9454    1.9087 C   0  0  0  0  0  0  0  0  0  0  0  0
   -0.7018   -4.1240    2.3528 C   0  0  0  0  0  0  0  0  0  0  0  0
   -0.2339   -2.8347    2.7130 C   0  0  0  0  0  0  0  0  0  0  0  0
    0.9021   -2.4010    1.9809 C   0  0  0  0  0  0  0  0  0  0  0  0
    1.6744   -3.1601    1.3597 C   0  0  0  0  0  0  0  0  0  0  0  0
    1.2939   -4.5167    1.2089 C   0  0  0  0  0  0  0  0  0  0  0  0
   -2.1897   -6.8287    1.3149 C   0  0  0  0  0  0  0  0  0  0  0  0
   -3.0069   -7.7104    0.9452 C   0  0  0  0  0  0  0  0  0  0  0  0
   -3.0024   -8.7793    0.8014 C   0  0  0  0  0  0  0  0  0  0  0  0
   -3.1145   -9.6939   -0.3416 C   0  0  0  0  0  0  0  0  0  0  0  0
   -3.0205  -11.0119   -0.2921 C   0  0  0  0  0  0  0  0  0  0  0  0
   -2.9949  -11.6320    0.9078 C   0  0  0  0  0  0  0  0  0  0  0  0
  3  7  1  0
  6  8  1  0
  5 14  1  0
 14 15  2  3
 15 16  1  0
 16 17  1  0
 17 18  2  3
 18 19  1  0
  1  2  2  0
  2  6  1  0
  5  6  2  0
  4  5  1  0
  3  4  2  0
  1  3  1  0
  8  9  2  0
  9 10  1  0
 10 11  2  0
 11 12  1  0
 12 13  2  0
  8 13  1  0
M  END

$$$$
No_1776-/export/home/yangzhenyu/potential_scad_32_flow//YTHDC2/2024-12-06-03-22-00/
     RDKit          3D

 18 19  0  0  0  0  0  0  0  0999 V2000
    1.1787   -8.0297    3.5154 C   0  0  0  0  0  0  0  0  0  0  0  0
    1.1048   -9.2215    3.2892 C   0  0  0  0  0  0  0  0  0  0  0  0
    1.3627  -10.1721    4.3044 C   0  0  0  0  0  0  0  0  0  0  0  0
    1.0682  -11.5187    4.0618 C   0  0  0  0  0  0  0  0  0  0  0  0
    0.6332  -11.9655    2.9682 C   0  0  0  0  0  0  0  0  0  0  0  0
    0.4776  -11.1308    1.9203 C   0  0  0  0  0  0  0  0  0  0  0  0
    0.7470   -9.8274    2.0368 C   0  0  0  0  0  0  0  0  0  0  0  0
    1.0387   -7.0301    2.5175 C   0  0  0  0  0  0  0  0  0  0  0  0
    0.9130   -7.5288    1.2013 C   0  0  0  0  0  0  0  0  0  0  0  0
    0.7893   -8.7980    0.9542 C   0  0  0  0  0  0  0  0  0  0  0  0
    0.3998  -13.3695    2.7114 O   0  0  0  0  0  0  0  0  0  0  0  0
    1.5276  -14.2654    2.8751 C   0  0  0  0  0  0  0  0  0  0  0  0
    0.4310   -9.2915   -0.3577 Cl  0  0  0  0  0  0  0  0  0  0  0  0
    1.2863   -5.5914    2.6507 C   0  0  0  0  0  0  0  0  0  0  0  0
    1.4424   -5.1621    3.9086 C   0  0  0  0  0  0  0  0  0  0  0  0
    1.3150   -4.8113    1.6017 C   0  0  0  0  0  0  0  0  0  0  0  0
    1.6696   -3.4378    1.7779 C   0  0  0  0  0  0  0  0  0  0  0  0
    1.8232   -3.7316    4.0370 C   0  0  0  0  0  0  0  0  0  0  0  0
  5 11  1  0
 11 12  1  0
 10 13  1  0
  8 14  1  0
 14 15  1  0
 14 16  1  0
 16 17  2  0
 15 18  2  0
  2  3  1  0
  3  4  2  0
  4  5  1  0
  5  6  2  0
  6  7  1  0
  1  2  2  0
  2  7  1  0
  7 10  2  0
  9 10  1  0
  8  9  2  0
  1  8  1  0
M  END

$$$$
No_1777-/export/home/yangzhenyu/potential_scad_32_flow//YTHDC2/2024-12-06-03-22-00/
     RDKit          3D

 20 21  0  0  0  0  0  0  0  0999 V2000
    1.1787   -8.0297    3.5154 C   0  0  0  0  0  0  0  0  0  0  0  0
    1.1048   -9.2215    3.2892 C   0  0  0  0  0  0  0  0  0  0  0  0
    1.2339   -9.7611    2.0189 C   0  0  0  0  0  0  0  0  0  0  0  0
    1.3583   -9.0036    0.9764 C   0  0  0  0  0  0  0  0  0  0  0  0
    1.5996   -7.6362    1.1311 C   0  0  0  0  0  0  0  0  0  0  0  0
    1.4830   -7.0928    2.3626 C   0  0  0  0  0  0  0  0  0  0  0  0
    1.1171  -11.3311    1.8661 C   0  0  0  0  0  0  0  0  0  0  0  0
    0.5042  -11.9974    2.3631 C   0  0  0  0  0  0  0  0  0  0  0  0
    0.4547  -13.3874    2.1599 C   0  0  0  0  0  0  0  0  0  0  0  0
    1.6053  -14.2337    2.6337 C   0  0  0  0  0  0  0  0  0  0  0  0
    1.6404  -15.5635    2.4227 C   0  0  0  0  0  0  0  0  0  0  0  0
    0.5329  -16.1828    1.9320 C   0  0  0  0  0  0  0  0  0  0  0  0
   -0.4545  -15.5158    1.3547 C   0  0  0  0  0  0  0  0  0  0  0  0
   -0.5125  -14.1019    1.5567 C   0  0  0  0  0  0  0  0  0  0  0  0
    1.5687   -5.6632    2.6483 C   0  0  0  0  0  0  0  0  0  0  0  0
    0.7326   -4.8275    2.6071 N   0  0  0  0  0  0  0  0  0  0  0  0
   -0.5942   -5.1854    2.2750 C   0  0  0  0  0  0  0  0  0  0  0  0
    1.0171   -3.3697    2.0802 C   0  0  0  0  0  0  0  0  0  0  0  0
   -1.5203   -4.1981    2.2085 O   0  0  0  0  0  0  0  0  0  0  0  0
   -1.2076   -6.3984    2.5766 C   0  0  0  0  0  0  0  0  0  0  0  0
  3  7  1  0
  7  8  2  3
  8  9  1  0
  6 15  1  0
 15 16  1  0
 16 17  1  0
 16 18  1  0
 17 19  2  0
 17 20  1  0
  1  2  2  0
  2  3  1  0
  3  4  2  0
  4  5  1  0
  5  6  2  0
  1  6  1  0
  9 10  2  0
 10 11  1  0
 11 12  2  0
 12 13  1  0
 13 14  2  0
  9 14  1  0
M  END

$$$$
No_1778-/export/home/yangzhenyu/potential_scad_32_flow//YTHDC2/2024-12-06-03-22-00/
     RDKit          3D

 17 18  0  0  1  0  0  0  0  0999 V2000
    1.1787   -8.0297    3.5154 C   0  0  0  0  0  0  0  0  0  0  0  0
    1.0491   -6.8434    2.9820 C   0  0  0  0  0  0  0  0  0  0  0  0
    0.9905   -9.0774    2.6527 C   0  0  0  0  0  0  0  0  0  0  0  0
    0.7897   -8.9519    1.3691 C   0  0  0  0  0  0  0  0  0  0  0  0
    0.7018   -7.7198    0.7892 C   0  0  0  0  0  0  0  0  0  0  0  0
    0.8918   -6.5957    1.6117 C   0  0  0  0  0  0  0  0  0  0  0  0
    1.0998  -10.4710    3.2437 C   0  0  2  0  0  0  0  0  0  0  0  0
    2.1917  -10.8879    3.7399 C   0  0  0  0  0  0  0  0  0  0  0  0
    0.8983   -5.2566    1.2088 O   0  0  0  0  0  0  0  0  0  0  0  0
    0.4942  -11.5082    2.3990 C   0  0  0  0  0  0  0  0  0  0  0  0
   -0.8624  -11.6477    2.6981 C   0  0  0  0  0  0  0  0  0  0  0  0
   -1.5415  -12.7700    2.4142 C   0  0  0  0  0  0  0  0  0  0  0  0
   -0.9095  -13.7667    1.7689 C   0  0  0  0  0  0  0  0  0  0  0  0
    0.4204  -13.6124    1.3053 C   0  0  0  0  0  0  0  0  0  0  0  0
    1.1121  -12.4883    1.6799 C   0  0  0  0  0  0  0  0  0  0  0  0
    2.5313  -10.2922    5.0224 O   0  0  0  0  0  0  0  0  0  0  0  0
    2.4075  -12.2810    1.2897 N   0  0  0  0  0  0  0  0  0  0  0  0
  1  2  1  0
  3  4  1  0
  2  6  1  0
  5  6  1  0
  3  7  1  0
  7  8  1  6
  6  9  2  0
  7 10  1  0
  8 16  1  0
 15 17  1  0
  1  3  1  0
  4  5  1  0
 10 11  2  0
 11 12  1  0
 12 13  2  0
 13 14  1  0
 14 15  2  0
 10 15  1  0
M  END

$$$$
No_1779-/export/home/yangzhenyu/potential_scad_32_flow//YTHDC2/2024-12-06-03-22-00/
     RDKit          3D

 20 21  0  0  1  0  0  0  0  0999 V2000
    1.1787   -8.0297    3.5154 N   0  0  0  0  0  0  0  0  0  0  0  0
    1.0818   -9.0751    3.2053 C   0  0  0  0  0  0  0  0  0  0  0  0
    0.7576   -9.3725    1.9159 C   0  0  0  0  0  0  0  0  0  0  0  0
    0.8823   -8.4917    1.0547 C   0  0  2  0  0  0  0  0  0  0  0  0
    0.9679   -8.9061   -0.3794 C   0  0  0  0  0  0  0  0  0  0  0  0
    1.2776   -7.1993    2.1927 C   0  0  0  0  0  0  0  0  0  0  0  0
   -0.1659   -8.9621   -0.8541 N   0  0  0  0  0  0  0  0  0  0  0  0
    1.8826   -8.3768   -1.1764 O   0  0  0  0  0  0  0  0  0  0  0  0
    0.9882  -10.0006    4.4084 C   0  0  0  0  0  0  0  0  0  0  0  0
   -0.2060  -10.7444    4.6925 C   0  0  0  0  0  0  0  0  0  0  0  0
    2.2196  -10.4383    4.9718 C   0  0  0  0  0  0  0  0  0  0  0  0
    2.9487  -11.3085    5.0879 C   0  0  0  0  0  0  0  0  0  0  0  0
    4.1961  -11.0496    5.7645 N   0  0  0  0  0  0  0  0  0  0  0  0
   -1.3612  -10.2830    4.0827 C   0  0  0  0  0  0  0  0  0  0  0  0
   -2.0966  -11.0619    3.2513 C   0  0  0  0  0  0  0  0  0  0  0  0
   -3.2915  -10.6270    2.6213 C   0  0  0  0  0  0  0  0  0  0  0  0
   -3.6727  -11.1876    1.5891 C   0  0  0  0  0  0  0  0  0  0  0  0
   -3.1609  -12.4107    1.1886 C   0  0  0  0  0  0  0  0  0  0  0  0
   -1.9428  -12.8719    1.6887 C   0  0  0  0  0  0  0  0  0  0  0  0
   -1.3518  -12.1328    2.7052 C   0  0  0  0  0  0  0  0  0  0  0  0
  1  2  1  0
  2  3  2  0
  3  4  1  0
  4  5  1  6
  1  6  1  0
  4  6  1  0
  5  7  1  0
  5  8  2  0
  2  9  1  0
  9 10  2  3
  9 11  1  0
 11 12  2  3
 12 13  1  0
 10 14  1  0
 14 15  1  0
 15 16  2  0
 16 17  1  0
 17 18  2  0
 18 19  1  0
 19 20  2  0
 15 20  1  0
M  END

$$$$
No_1780-/export/home/yangzhenyu/potential_scad_32_flow//YTHDC2/2024-12-06-03-22-00/
     RDKit          3D

 20 20  0  0  0  0  0  0  0  0999 V2000
    1.1787   -8.0297    3.5154 C   0  0  0  0  0  0  0  0  0  0  0  0
    1.1048   -9.2215    3.2892 C   0  0  0  0  0  0  0  0  0  0  0  0
    1.2339   -9.7611    2.0189 C   0  0  0  0  0  0  0  0  0  0  0  0
    1.3583   -9.0036    0.9764 C   0  0  0  0  0  0  0  0  0  0  0  0
    1.7077   -9.6100   -0.3010 C   0  0  0  0  0  0  0  0  0  0  0  0
    1.3637   -7.1087    2.3226 C   0  0  0  0  0  0  0  0  0  0  0  0
    1.4257   -7.6645    1.0231 C   0  0  0  0  0  0  0  0  0  0  0  0
    1.9364   -8.8976   -1.3212 O   0  0  0  0  0  0  0  0  0  0  0  0
    1.2853  -10.8201   -0.4625 O   0  0  0  0  0  0  0  0  0  0  0  0
    1.1242  -10.1671    4.3962 Cl  0  0  0  0  0  0  0  0  0  0  0  0
    1.3287   -5.5880    2.5295 C   0  0  0  0  0  0  0  0  0  0  0  0
    1.0152   -4.8109    1.5721 C   0  0  0  0  0  0  0  0  0  0  0  0
    0.2850   -3.6758    1.8707 C   0  0  0  0  0  0  0  0  0  0  0  0
    0.3702   -2.6631    1.7718 C   0  0  0  0  0  0  0  0  0  0  0  0
    1.0654   -1.9576    1.5835 C   0  0  0  0  0  0  0  0  0  0  0  0
    1.2587   -0.7222    0.7530 C   0  0  0  0  0  0  0  0  0  0  0  0
    1.0847    0.5127    1.4378 C   0  0  0  0  0  0  0  0  0  0  0  0
    0.5676    1.6038    0.6610 C   0  0  0  0  0  0  0  0  0  0  0  0
    0.5444    2.8964    1.5449 C   0  0  0  0  0  0  0  0  0  0  0  0
    2.4713   -2.0442    2.2501 O   0  0  0  0  0  0  0  0  0  0  0  0
  4  5  1  0
  5  8  2  0
  5  9  1  0
  2 10  1  0
  6 11  1  0
 11 12  1  0
 12 13  1  0
 13 14  2  3
 14 15  1  0
 15 16  1  0
 16 17  1  0
 17 18  1  0
 18 19  1  0
 15 20  2  0
  1  2  2  0
  2  3  1  0
  3  4  2  0
  4  7  1  0
  6  7  2  0
  1  6  1  0
M  END

$$$$
No_1781-/export/home/yangzhenyu/potential_scad_32_flow//YTHDC2/2024-12-06-03-22-00/
     RDKit          3D

 20 20  0  0  1  0  0  0  0  0999 V2000
    1.1787   -8.0297    3.5154 C   0  0  0  0  0  0  0  0  0  0  0  0
    1.0491   -6.8434    2.9820 C   0  0  0  0  0  0  0  0  0  0  0  0
    0.0950   -8.8404    3.2292 C   0  0  0  0  0  0  0  0  0  0  0  0
   -0.9173   -8.4596    2.5152 C   0  0  0  0  0  0  0  0  0  0  0  0
   -1.0331   -7.2162    2.0653 C   0  0  0  0  0  0  0  0  0  0  0  0
   -0.0105   -6.3168    2.3081 C   0  0  0  0  0  0  0  0  0  0  0  0
    0.1465  -10.2446    3.6981 C   0  0  0  0  0  0  0  0  0  0  0  0
    0.1907  -11.3369    2.8651 N   0  0  0  0  0  0  0  0  0  0  0  0
    1.0148  -11.9904    2.6557 C   0  0  0  0  0  0  0  0  0  0  0  0
    1.2731  -13.0440    1.8002 C   0  0  2  0  0  0  0  0  0  0  0  0
    0.9875  -12.7486    0.5710 N   0  0  0  0  0  0  0  0  0  0  0  0
    1.7006  -14.3362    2.1912 C   0  0  0  0  0  0  0  0  0  0  0  0
   -0.0065   -4.9719    1.8599 Cl  0  0  0  0  0  0  0  0  0  0  0  0
    1.1604  -15.1989    2.4825 C   0  0  0  0  0  0  0  0  0  0  0  0
    1.8568  -16.4887    2.8150 C   0  0  0  0  0  0  0  0  0  0  0  0
    1.2388  -17.5942    3.4307 C   0  0  0  0  0  0  0  0  0  0  0  0
    0.2937  -17.4140    4.4533 O   0  0  0  0  0  0  0  0  0  0  0  0
    1.2468  -18.7891    2.9518 O   0  0  0  0  0  0  0  0  0  0  0  0
    2.2261  -11.8072    3.5940 O   0  0  0  0  0  0  0  0  0  0  0  0
    0.1457  -13.5257   -0.1664 O   0  0  0  0  0  0  0  0  0  0  0  0
  3  7  1  0
  7  8  1  0
  8  9  1  0
  9 10  1  0
 10 11  1  1
 10 12  1  0
  6 13  1  0
 12 14  2  3
 14 15  1  0
 15 16  1  0
 16 17  1  0
 16 18  2  0
  9 19  2  0
 11 20  2  0
  1  2  2  0
  2  6  1  0
  5  6  2  0
  4  5  1  0
  3  4  2  0
  1  3  1  0
M  END

$$$$
No_1782-/export/home/yangzhenyu/potential_scad_32_flow//YTHDC2/2024-12-06-03-22-00/
     RDKit          3D

 17 18  0  0  1  0  0  0  0  0999 V2000
    1.1787   -8.0297    3.5154 C   0  0  0  0  0  0  0  0  0  0  0  0
    1.0491   -6.8434    2.9820 C   0  0  0  0  0  0  0  0  0  0  0  0
    0.0950   -8.8404    3.2292 C   0  0  0  0  0  0  0  0  0  0  0  0
   -0.9173   -8.4596    2.5152 C   0  0  0  0  0  0  0  0  0  0  0  0
   -1.0331   -7.2162    2.0653 C   0  0  0  0  0  0  0  0  0  0  0  0
   -0.0105   -6.3168    2.3081 C   0  0  0  0  0  0  0  0  0  0  0  0
    0.1150   -4.9910    1.8495 C   0  0  0  0  0  0  0  0  0  0  0  0
   -0.5774   -4.1593    2.0596 N   0  0  0  0  0  0  0  0  0  0  0  0
    0.1680  -10.2877    3.7012 C   0  0  2  0  0  0  0  0  0  0  0  0
    1.2049  -10.9428    4.1094 C   0  0  0  0  0  0  0  0  0  0  0  0
    1.6877  -11.8373    3.2242 C   0  0  0  0  0  0  0  0  0  0  0  0
    0.4982  -12.6338    2.7698 C   0  0  1  0  0  0  0  0  0  0  0  0
   -0.6098  -11.9086    2.5045 C   0  0  0  0  0  0  0  0  0  0  0  0
   -0.9401  -10.9398    3.2598 C   0  0  0  0  0  0  0  0  0  0  0  0
    0.9545  -13.8849    2.2495 C   0  0  0  0  0  0  0  0  0  0  0  0
    0.0425  -14.7719    1.8487 C   0  0  0  0  0  0  0  0  0  0  0  0
    2.3470  -14.2970    2.2078 C   0  0  0  0  0  0  0  0  0  0  0  0
  6  7  1  0
  7  8  1  0
  9  3  1  6
  9 10  1  0
 10 11  1  0
 11 12  1  0
 12 13  1  0
  9 14  1  0
 13 14  1  0
 12 15  1  6
 15 16  2  0
 15 17  1  0
  1  2  2  0
  2  6  1  0
  5  6  2  0
  4  5  1  0
  3  4  2  0
  1  3  1  0
M  END

$$$$
No_1783-/export/home/yangzhenyu/potential_scad_32_flow//YTHDC2/2024-12-06-03-22-00/
     RDKit          3D

 18 19  0  0  1  0  0  0  0  0999 V2000
    1.1787   -8.0297    3.5154 C   0  0  0  0  0  0  0  0  0  0  0  0
    1.1048   -9.2215    3.2892 C   0  0  0  0  0  0  0  0  0  0  0  0
    1.2339   -9.7611    2.0189 C   0  0  0  0  0  0  0  0  0  0  0  0
    1.3583   -9.0036    0.9764 C   0  0  0  0  0  0  0  0  0  0  0  0
    1.5996   -7.6362    1.1311 C   0  0  0  0  0  0  0  0  0  0  0  0
    1.4830   -7.0928    2.3626 C   0  0  0  0  0  0  0  0  0  0  0  0
    1.1171  -11.3311    1.8661 C   0  0  0  0  0  0  0  0  0  0  0  0
    0.5042  -11.9974    2.3631 C   0  0  0  0  0  0  0  0  0  0  0  0
    0.4547  -13.3874    2.1599 C   0  0  2  0  0  0  0  0  0  0  0  0
   -0.5486  -14.0819    1.9701 C   0  0  0  0  0  0  0  0  0  0  0  0
    1.7468  -14.0638    2.3298 C   0  0  0  0  0  0  0  0  0  0  0  0
    1.5725   -5.6550    2.6422 C   0  0  0  0  0  0  0  0  0  0  0  0
   -0.5376  -15.5829    1.9372 C   0  0  0  0  0  0  0  0  0  0  0  0
    0.7315  -16.1555    2.1693 C   0  0  0  0  0  0  0  0  0  0  0  0
    0.8605  -17.6109    2.2460 C   0  0  0  0  0  0  0  0  0  0  0  0
    1.9163  -15.3908    2.3109 C   0  0  0  0  0  0  0  0  0  0  0  0
    0.1797  -18.3993    1.8673 C   0  0  0  0  0  0  0  0  0  0  0  0
    3.0861  -15.8184    2.4917 O   0  0  0  0  0  0  0  0  0  0  0  0
  3  7  1  0
  7  8  2  3
  8  9  1  0
  9 10  1  1
  9 11  1  0
  6 12  1  0
 13 14  1  0
 14 15  1  0
 11 16  1  0
 14 16  1  0
 15 17  2  0
 16 18  2  0
 10 13  1  0
  1  2  2  0
  2  3  1  0
  3  4  2  0
  4  5  1  0
  5  6  2  0
  1  6  1  0
M  END

$$$$
No_1784-/export/home/yangzhenyu/potential_scad_32_flow//YTHDC2/2024-12-06-03-22-00/
     RDKit          3D

 18 19  0  0  0  0  0  0  0  0999 V2000
    1.1787   -8.0297    3.5154 C   0  0  0  0  0  0  0  0  0  0  0  0
    1.1048   -9.2215    3.2892 C   0  0  0  0  0  0  0  0  0  0  0  0
    1.2339   -9.7611    2.0189 C   0  0  0  0  0  0  0  0  0  0  0  0
    1.1954  -11.2312    1.8661 C   0  0  0  0  0  0  0  0  0  0  0  0
    1.5546  -12.1691    2.7931 C   0  0  0  0  0  0  0  0  0  0  0  0
    0.9527   -7.0669    2.3918 C   0  0  0  0  0  0  0  0  0  0  0  0
    1.0618   -7.6392    1.0692 C   0  0  0  0  0  0  0  0  0  0  0  0
    1.2060   -8.9530    0.8578 C   0  0  0  0  0  0  0  0  0  0  0  0
    1.5110  -13.5006    2.3856 C   0  0  0  0  0  0  0  0  0  0  0  0
    1.1461  -13.9087    1.2014 C   0  0  0  0  0  0  0  0  0  0  0  0
    0.9324  -13.0660    0.2177 C   0  0  0  0  0  0  0  0  0  0  0  0
    0.9275  -11.6786    0.5224 C   0  0  0  0  0  0  0  0  0  0  0  0
    1.0249   -5.4090    2.5055 C   0  0  0  0  0  0  0  0  0  0  0  0
    1.9100  -14.4144    3.4308 O   0  0  0  0  0  0  0  0  0  0  0  0
    0.4427   -4.8359    1.5994 P   0  0  0  0  0  0  0  0  0  0  0  0
   -0.5082   -4.0942    2.0581 O   0  0  0  0  0  0  0  0  0  0  0  0
    1.3340   -3.6396    0.9794 O   0  0  0  0  0  0  0  0  0  0  0  0
   -0.1624   -5.3231    0.3096 O   0  0  0  0  0  0  0  0  0  0  0  0
  3  4  1  0
  6 13  1  0
  9 14  1  0
 13 15  1  0
 15 16  1  0
 15 17  2  0
 15 18  1  0
  1  2  2  0
  2  3  1  0
  3  8  2  0
  7  8  1  0
  6  7  2  0
  1  6  1  0
  4  5  2  0
  5  9  1  0
  9 10  2  0
 10 11  1  0
 11 12  2  0
  4 12  1  0
M  END

$$$$
No_1785-/export/home/yangzhenyu/potential_scad_32_flow//YTHDC2/2024-12-06-03-22-00/
     RDKit          3D

 20 22  0  0  0  0  0  0  0  0999 V2000
    1.1787   -8.0297    3.5154 C   0  0  0  0  0  0  0  0  0  0  0  0
    1.1048   -9.2215    3.2892 C   0  0  0  0  0  0  0  0  0  0  0  0
    1.3627  -10.1721    4.3044 C   0  0  0  0  0  0  0  0  0  0  0  0
    1.0682  -11.5187    4.0618 C   0  0  0  0  0  0  0  0  0  0  0  0
    0.6332  -11.9655    2.9682 C   0  0  0  0  0  0  0  0  0  0  0  0
    0.4776  -11.1308    1.9203 C   0  0  0  0  0  0  0  0  0  0  0  0
    0.7470   -9.8274    2.0368 C   0  0  0  0  0  0  0  0  0  0  0  0
    0.5535   -7.1314    2.6862 C   0  0  0  0  0  0  0  0  0  0  0  0
    0.2950   -7.6000    1.3276 C   0  0  0  0  0  0  0  0  0  0  0  0
    0.2692   -8.8631    1.0973 C   0  0  0  0  0  0  0  0  0  0  0  0
   -0.0070   -6.7080    0.3888 I   0  0  0  0  0  0  0  0  0  0  0  0
    0.4927  -13.3965    2.7325 C   0  0  0  0  0  0  0  0  0  0  0  0
   -0.6549  -13.8524    2.4394 N   0  0  0  0  0  0  0  0  0  0  0  0
    1.5442  -14.2870    2.8517 C   0  0  0  0  0  0  0  0  0  0  0  0
    1.7994  -15.2641    2.1060 C   0  0  0  0  0  0  0  0  0  0  0  0
    1.3385  -15.2960    0.9227 C   0  0  0  0  0  0  0  0  0  0  0  0
    0.5988  -14.7605    0.3303 C   0  0  0  0  0  0  0  0  0  0  0  0
   -0.2578  -13.7103    0.5877 C   0  0  0  0  0  0  0  0  0  0  0  0
    2.7558  -16.2273    2.7300 O   0  0  0  0  0  0  0  0  0  0  0  0
    0.0620   -9.3796   -0.1557 C   0  0  0  0  0  0  0  0  0  0  0  0
  9 11  1  0
  5 12  1  0
 12 13  1  0
 12 14  1  0
 14 15  1  0
 15 16  1  0
 16 17  1  0
 13 18  1  0
 17 18  1  0
 15 19  2  0
 10 20  1  0
  2  3  1  0
  3  4  2  0
  4  5  1  0
  5  6  2  0
  6  7  1  0
  1  2  2  0
  2  7  1  0
  7 10  2  0
  9 10  1  0
  8  9  2  0
  1  8  1  0
M  END

$$$$
No_1786-/export/home/yangzhenyu/potential_scad_32_flow//YTHDC2/2024-12-06-03-22-00/
     RDKit          3D

 19 21  0  0  1  0  0  0  0  0999 V2000
    1.1787   -8.0297    3.5154 C   0  0  0  0  0  0  0  0  0  0  0  0
    1.0491   -6.8434    2.9820 C   0  0  0  0  0  0  0  0  0  0  0  0
    0.9905   -9.0774    2.6527 C   0  0  0  0  0  0  0  0  0  0  0  0
    0.9687   -8.6883    1.3634 C   0  0  0  0  0  0  0  0  0  0  0  0
    1.0948   -6.3768    1.7686 C   0  0  0  0  0  0  0  0  0  0  0  0
    0.9504   -7.3975    0.8471 C   0  0  0  0  0  0  0  0  0  0  0  0
    1.0365  -10.4250    2.9992 C   0  0  1  0  0  0  0  0  0  0  0  0
    2.1481  -10.9990    3.3342 C   0  0  0  0  0  0  0  0  0  0  0  0
    2.1532  -12.3227    3.7886 C   0  0  0  0  0  0  0  0  0  0  0  0
    1.0893  -13.0219    3.9142 C   0  0  0  0  0  0  0  0  0  0  0  0
   -0.1221  -12.4600    3.4898 C   0  0  0  0  0  0  0  0  0  0  0  0
   -0.0950  -11.0825    3.0583 C   0  0  0  0  0  0  0  0  0  0  0  0
    1.0731   -5.0526    1.2583 C   0  0  2  0  0  0  0  0  0  0  0  0
    1.7521   -4.1462    1.9839 C   0  0  0  0  0  0  0  0  0  0  0  0
   -1.2995  -10.4970    2.7990 O   0  0  0  0  0  0  0  0  0  0  0  0
    1.7245   -2.7685    1.5577 C   0  0  0  0  0  0  0  0  0  0  0  0
    0.6861   -2.7404    0.4469 C   0  0  0  0  0  0  0  0  0  0  0  0
    0.1311   -4.1094    0.3282 C   0  0  0  0  0  0  0  0  0  0  0  0
   -0.7147   -4.4802   -0.4088 O   0  0  0  0  0  0  0  0  0  0  0  0
  7  3  1  1
  7  8  1  0
  9 10  1  0
  7 12  1  0
 11 12  1  0
 13  5  1  1
 13 14  1  0
 12 15  2  0
 14 16  2  0
 16 17  1  0
 13 18  1  0
 17 18  1  0
 18 19  2  0
  8  9  1  0
 10 11  1  0
  1  2  2  0
  2  5  1  0
  5  6  2  0
  4  6  1  0
  3  4  2  0
  1  3  1  0
M  END

$$$$
No_1787-/export/home/yangzhenyu/potential_scad_32_flow//YTHDC2/2024-12-06-03-22-00/
     RDKit          3D

 17 18  0  0  1  0  0  0  0  0999 V2000
    1.1787   -8.0297    3.5154 C   0  0  0  0  0  0  0  0  0  0  0  0
    1.1048   -9.2215    3.2892 C   0  0  0  0  0  0  0  0  0  0  0  0
    1.2339   -9.7611    2.0189 C   0  0  0  0  0  0  0  0  0  0  0  0
    1.1954  -11.2312    1.8661 C   0  0  0  0  0  0  0  0  0  0  0  0
    1.2996  -11.5815    0.5387 C   0  0  0  0  0  0  0  0  0  0  0  0
    1.3263   -7.1208    2.3229 C   0  0  1  0  0  0  0  0  0  0  0  0
    1.3693   -7.6408    1.0625 C   0  0  0  0  0  0  0  0  0  0  0  0
    1.4358   -8.9950    0.8622 C   0  0  0  0  0  0  0  0  0  0  0  0
    1.1800  -13.0763    0.6448 C   0  0  0  0  0  0  0  0  0  0  0  0
    1.3113  -11.7825    2.9197 C   0  0  0  0  0  0  0  0  0  0  0  0
    1.1394  -13.2237    2.8778 C   0  0  0  0  0  0  0  0  0  0  0  0
    1.1003  -13.9068    1.7246 C   0  0  0  0  0  0  0  0  0  0  0  0
    1.3059   -5.6344    2.5259 Cl  0  0  0  0  0  0  0  0  0  0  0  0
    1.5174   -9.3849   -0.3855 O   0  0  0  0  0  0  0  0  0  0  0  0
    1.2079  -15.2438    1.7001 C   0  0  0  0  0  0  0  0  0  0  0  0
    0.8023  -15.9930    2.3982 N   0  0  0  0  0  0  0  0  0  0  0  0
    0.9213  -17.3376    2.3786 C   0  0  0  0  0  0  0  0  0  0  0  0
  1  2  1  0
  3  4  1  0
  6  7  1  0
  3  8  1  0
  7  8  1  0
  6 13  1  6
  8 14  2  0
 12 15  1  0
 15 16  2  3
 16 17  1  0
  2  3  1  0
  1  6  1  0
  4  5  2  0
  5  9  1  0
  9 12  2  0
 11 12  1  0
 10 11  2  0
  4 10  1  0
M  END

$$$$
No_1788-/export/home/yangzhenyu/potential_scad_32_flow//YTHDC2/2024-12-06-03-22-00/
     RDKit          3D

 18 20  0  0  0  0  0  0  0  0999 V2000
    1.1787   -8.0297    3.5154 C   0  0  0  0  0  0  0  0  0  0  0  0
    1.1048   -9.2215    3.2892 C   0  0  0  0  0  0  0  0  0  0  0  0
    1.3627  -10.1721    4.3044 C   0  0  0  0  0  0  0  0  0  0  0  0
    1.0682  -11.5187    4.0618 C   0  0  0  0  0  0  0  0  0  0  0  0
    0.6332  -11.9655    2.9682 C   0  0  0  0  0  0  0  0  0  0  0  0
    0.4776  -11.1308    1.9203 C   0  0  0  0  0  0  0  0  0  0  0  0
    0.7470   -9.8274    2.0368 C   0  0  0  0  0  0  0  0  0  0  0  0
    1.0387   -7.0301    2.5175 C   0  0  0  0  0  0  0  0  0  0  0  0
    0.9130   -7.5288    1.2013 C   0  0  0  0  0  0  0  0  0  0  0  0
    0.7893   -8.7979    0.9542 C   0  0  0  0  0  0  0  0  0  0  0  0
    0.3998  -13.3695    2.7114 C   0  0  0  0  0  0  0  0  0  0  0  0
    1.2819  -14.3216    3.1282 C   0  0  0  0  0  0  0  0  0  0  0  0
    1.4367  -15.5457    2.5224 C   0  0  0  0  0  0  0  0  0  0  0  0
    0.5740  -15.9057    1.6176 C   0  0  0  0  0  0  0  0  0  0  0  0
   -0.2969  -15.0257    1.0910 C   0  0  0  0  0  0  0  0  0  0  0  0
   -0.3601  -13.7368    1.6512 C   0  0  0  0  0  0  0  0  0  0  0  0
    0.4506   -9.2529   -0.3739 C   0  0  0  0  0  0  0  0  0  0  0  0
   -0.8579   -9.5418   -0.6212 O   0  0  0  0  0  0  0  0  0  0  0  0
  5 11  1  0
 10 17  1  0
 17 18  1  0
 11 12  2  0
 12 13  1  0
 13 14  2  0
 14 15  1  0
 15 16  2  0
 11 16  1  0
  2  3  1  0
  3  4  2  0
  4  5  1  0
  5  6  2  0
  6  7  1  0
  1  2  2  0
  2  7  1  0
  7 10  2  0
  9 10  1  0
  8  9  2  0
  1  8  1  0
M  END

$$$$
No_1789-/export/home/yangzhenyu/potential_scad_32_flow//YTHDC2/2024-12-06-03-22-00/
     RDKit          3D

 18 19  0  0  0  0  0  0  0  0999 V2000
    1.1787   -8.0297    3.5154 C   0  0  0  0  0  0  0  0  0  0  0  0
    1.0491   -6.8434    2.9820 C   0  0  0  0  0  0  0  0  0  0  0  0
    0.9905   -9.0774    2.6527 C   0  0  0  0  0  0  0  0  0  0  0  0
    0.7897   -8.9519    1.3691 C   0  0  0  0  0  0  0  0  0  0  0  0
    0.7018   -7.7198    0.7892 C   0  0  0  0  0  0  0  0  0  0  0  0
    0.8918   -6.5957    1.6117 C   0  0  0  0  0  0  0  0  0  0  0  0
    1.0600  -10.5680    3.3321 C   0  0  0  0  0  0  0  0  0  0  0  0
   -0.1041  -11.1772    3.5150 C   0  0  0  0  0  0  0  0  0  0  0  0
   -0.1608  -12.4876    3.3268 C   0  0  0  0  0  0  0  0  0  0  0  0
    0.9865  -13.2841    3.1741 C   0  0  0  0  0  0  0  0  0  0  0  0
    2.2316  -12.5817    3.0045 C   0  0  0  0  0  0  0  0  0  0  0  0
    2.2290  -11.2587    2.9229 C   0  0  0  0  0  0  0  0  0  0  0  0
    0.9652  -14.6598    3.2128 Br  0  0  0  0  0  0  0  0  0  0  0  0
    0.8426   -5.2601    1.1605 O   0  0  0  0  0  0  0  0  0  0  0  0
    0.5951   -9.9761    0.3583 Br  0  0  0  0  0  0  0  0  0  0  0  0
    1.2949   -5.6559    3.7992 O   0  0  0  0  0  0  0  0  0  0  0  0
   -1.2226  -10.4048    3.8193 C   0  0  0  0  0  0  0  0  0  0  0  0
   -1.3791   -9.9110    5.1944 C   0  0  0  0  0  0  0  0  0  0  0  0
  1  2  1  0
  3  4  1  0
  2  6  1  0
  5  6  1  0
  3  7  1  0
 10 13  1  0
  6 14  2  0
  4 15  1  0
  2 16  2  0
  8 17  1  0
 17 18  1  0
  1  3  1  0
  4  5  1  0
  7  8  2  0
  8  9  1  0
  9 10  2  0
 10 11  1  0
 11 12  2  0
  7 12  1  0
M  END

$$$$
No_1790-/export/home/yangzhenyu/potential_scad_32_flow//YTHDC2/2024-12-06-03-22-00/
     RDKit          3D

 19 20  0  0  1  0  0  0  0  0999 V2000
    1.1787   -8.0297    3.5154 C   0  0  0  0  0  0  0  0  0  0  0  0
    1.1048   -9.2215    3.2892 C   0  0  0  0  0  0  0  0  0  0  0  0
    1.2339   -9.7611    2.0189 C   0  0  0  0  0  0  0  0  0  0  0  0
    1.3583   -9.0036    0.9764 C   0  0  0  0  0  0  0  0  0  0  0  0
    1.5996   -7.6362    1.1311 C   0  0  0  0  0  0  0  0  0  0  0  0
    1.4830   -7.0928    2.3626 C   0  0  0  0  0  0  0  0  0  0  0  0
    1.2249  -11.3952    1.9460 C   0  0  0  0  0  0  0  0  0  0  0  0
    0.2582  -12.0282    2.2068 C   0  0  1  0  0  0  0  0  0  0  0  0
   -0.9418  -11.4910    2.0243 C   0  0  0  0  0  0  0  0  0  0  0  0
   -1.8034  -11.2899    2.8750 C   0  0  0  0  0  0  0  0  0  0  0  0
   -1.5247  -10.9255    4.0093 C   0  0  0  0  0  0  0  0  0  0  0  0
    1.5291   -5.4948    2.6718 Cl  0  0  0  0  0  0  0  0  0  0  0  0
   -2.4165  -10.1867    4.9320 C   0  0  0  0  0  0  0  0  0  0  0  0
   -3.7339  -10.3635    4.7112 C   0  0  0  0  0  0  0  0  0  0  0  0
   -4.1630  -11.0327    3.6167 C   0  0  0  0  0  0  0  0  0  0  0  0
   -3.2847  -11.5354    2.7447 C   0  0  0  0  0  0  0  0  0  0  0  0
    0.6261  -13.3225    2.4739 C   0  0  0  0  0  0  0  0  0  0  0  0
    0.9520  -14.2374    2.0142 C   0  0  0  0  0  0  0  0  0  0  0  0
    1.3791  -14.2892    0.7623 C   0  0  0  0  0  0  0  0  0  0  0  0
  3  7  1  0
  8  7  1  6
  8  9  1  0
  9 10  1  0
  6 12  1  0
  8 17  1  0
 17 18  1  0
 18 19  1  0
  1  2  2  0
  2  3  1  0
  3  4  2  0
  4  5  1  0
  5  6  2  0
  1  6  1  0
 10 11  2  0
 11 13  1  0
 13 14  2  0
 14 15  1  0
 15 16  2  0
 10 16  1  0
M  END

$$$$
No_1791-/export/home/yangzhenyu/potential_scad_32_flow//YTHDC2/2024-12-06-03-22-00/
     RDKit          3D

 17 17  0  0  1  0  0  0  0  0999 V2000
    1.1787   -8.0297    3.5154 C   0  0  0  0  0  0  0  0  0  0  0  0
    1.0491   -6.8434    2.9820 C   0  0  0  0  0  0  0  0  0  0  0  0
    1.9985   -8.9840    2.8958 C   0  0  0  0  0  0  0  0  0  0  0  0
    1.9135  -10.3404    3.6266 C   0  0  2  0  0  0  0  0  0  0  0  0
    2.2847  -10.5440    4.7936 C   0  0  0  0  0  0  0  0  0  0  0  0
    0.3304   -6.7696    1.8077 C   0  0  0  0  0  0  0  0  0  0  0  0
    0.3816   -7.5583    0.9388 O   0  0  0  0  0  0  0  0  0  0  0  0
    0.1178   -5.4264    1.4055 N   0  0  0  0  0  0  0  0  0  0  0  0
    1.6188  -11.3959    2.7433 C   0  0  0  0  0  0  0  0  0  0  0  0
    1.7367  -11.2244    1.3957 O   0  0  0  0  0  0  0  0  0  0  0  0
    1.7066  -12.6899    3.1493 N   0  0  0  0  0  0  0  0  0  0  0  0
    1.1573  -13.7672    2.4556 C   0  0  0  0  0  0  0  0  0  0  0  0
    0.8958  -14.7755    2.9019 C   0  0  0  0  0  0  0  0  0  0  0  0
    0.2975  -15.9723    2.3985 C   0  0  0  0  0  0  0  0  0  0  0  0
   -0.0458  -15.7987    1.1013 C   0  0  0  0  0  0  0  0  0  0  0  0
    0.1988  -14.6981    0.4196 C   0  0  0  0  0  0  0  0  0  0  0  0
    0.8082  -13.5948    1.0357 C   0  0  0  0  0  0  0  0  0  0  0  0
  1  2  1  0
  1  3  1  0
  3  4  1  0
  4  5  1  6
  2  6  1  0
  6  7  2  0
  6  8  1  0
  4  9  1  0
  9 10  2  0
  9 11  1  0
 11 12  1  0
 12 13  2  0
 13 14  1  0
 14 15  2  0
 15 16  1  0
 16 17  2  0
 12 17  1  0
M  END

$$$$
No_1792-/export/home/yangzhenyu/potential_scad_32_flow//YTHDC2/2024-12-06-03-22-00/
     RDKit          3D

 18 18  0  0  1  0  0  0  0  0999 V2000
    1.1787   -8.0297    3.5154 C   0  0  0  0  0  0  0  0  0  0  0  0
    1.0491   -6.8434    2.9820 C   0  0  0  0  0  0  0  0  0  0  0  0
    1.9985   -8.9840    2.8958 C   0  0  0  0  0  0  0  0  0  0  0  0
    1.1814  -10.1889    2.5497 C   0  0  1  0  0  0  0  0  0  0  0  0
    0.3496  -10.1352    1.6537 C   0  0  0  0  0  0  0  0  0  0  0  0
    0.7737   -9.6057    0.4354 C   0  0  0  0  0  0  0  0  0  0  0  0
   -0.1458   -9.3195   -0.5010 C   0  0  0  0  0  0  0  0  0  0  0  0
   -1.4176   -9.7490   -0.2770 C   0  0  0  0  0  0  0  0  0  0  0  0
   -1.7179  -10.2304    0.9413 C   0  0  0  0  0  0  0  0  0  0  0  0
   -0.8779  -10.4882    1.8640 C   0  0  0  0  0  0  0  0  0  0  0  0
    0.2302   -6.7177    1.8453 C   0  0  2  0  0  0  0  0  0  0  0  0
    0.5003   -5.9068    0.8143 C   0  0  0  0  0  0  0  0  0  0  0  0
    1.4571   -5.0134    1.0318 N   0  0  0  0  0  0  0  0  0  0  0  0
    1.6215  -11.3366    3.1931 C   0  0  0  0  0  0  0  0  0  0  0  0
    1.0860  -12.1117    3.6732 O   0  0  0  0  0  0  0  0  0  0  0  0
   -1.2668   -6.7698    2.0394 C   0  0  0  0  0  0  0  0  0  0  0  0
    2.8363  -11.9704    2.7902 N   0  0  0  0  0  0  0  0  0  0  0  0
    1.9239   -4.9811    1.9269 H   0  0  0  0  0  0  0  0  0  0  0  0
  1  2  1  0
  1  3  1  0
  4  3  1  6
  4  5  1  0
  2 11  1  0
 11 12  1  0
 12 13  2  0
  4 14  1  0
 14 15  2  0
 11 16  1  1
 14 17  1  0
  5  6  2  0
  6  7  1  0
  7  8  2  0
  8  9  1  0
  9 10  2  0
  5 10  1  0
 13 18  1  0
M  END

$$$$
No_1793-/export/home/yangzhenyu/potential_scad_32_flow//YTHDC2/2024-12-06-03-22-00/
     RDKit          3D

 16 17  0  0  0  0  0  0  0  0999 V2000
    1.1787   -8.0297    3.5154 C   0  0  0  0  0  0  0  0  0  0  0  0
    1.1048   -9.2215    3.2892 C   0  0  0  0  0  0  0  0  0  0  0  0
    1.3627  -10.1721    4.3044 C   0  0  0  0  0  0  0  0  0  0  0  0
    2.3720  -10.8948    4.2468 C   0  0  0  0  0  0  0  0  0  0  0  0
    2.9262  -11.1926    3.1170 C   0  0  0  0  0  0  0  0  0  0  0  0
    2.5807  -10.4593    1.9550 C   0  0  0  0  0  0  0  0  0  0  0  0
    1.7065   -9.4353    2.0233 C   0  0  0  0  0  0  0  0  0  0  0  0
    1.5452   -8.5715    1.0672 C   0  0  0  0  0  0  0  0  0  0  0  0
    1.2497   -7.2859    1.3487 C   0  0  0  0  0  0  0  0  0  0  0  0
    1.0350   -6.8907    2.5551 C   0  0  0  0  0  0  0  0  0  0  0  0
    1.7961   -8.9667   -0.4111 C   0  0  0  0  0  0  0  0  0  0  0  0
    2.8991   -8.8718   -0.9445 O   0  0  0  0  0  0  0  0  0  0  0  0
    0.7876   -9.1865   -1.1344 O   0  0  0  0  0  0  0  0  0  0  0  0
    0.6803   -5.5458    2.7885 C   0  0  0  0  0  0  0  0  0  0  0  0
   -0.4626   -5.0237    2.4484 C   0  0  0  0  0  0  0  0  0  0  0  0
   -0.5897   -3.6033    2.4534 C   0  0  0  0  0  0  0  0  0  0  0  0
  8 11  1  0
 11 12  2  0
 11 13  1  0
 10 14  1  0
 14 15  1  0
 15 16  2  0
  1  2  2  0
  7  8  2  0
  8  9  1  0
  9 10  2  0
  1 10  1  0
  2  3  1  0
  3  4  2  0
  4  5  1  0
  5  6  2  0
  6  7  1  0
  2  7  1  0
M  END

$$$$
No_1794-/export/home/yangzhenyu/potential_scad_32_flow//YTHDC2/2024-12-06-03-22-00/
     RDKit          3D

 19 19  0  0  0  0  0  0  0  0999 V2000
    1.1787   -8.0297    3.5154 C   0  0  0  0  0  0  0  0  0  0  0  0
    1.1048   -9.2215    3.2892 C   0  0  0  0  0  0  0  0  0  0  0  0
    1.3627  -10.1721    4.3044 C   0  0  0  0  0  0  0  0  0  0  0  0
    1.0682  -11.5187    4.0618 C   0  0  0  0  0  0  0  0  0  0  0  0
    0.6332  -11.9655    2.9682 C   0  0  0  0  0  0  0  0  0  0  0  0
    0.4776  -11.1308    1.9203 C   0  0  0  0  0  0  0  0  0  0  0  0
    0.7470   -9.8274    2.0368 C   0  0  0  0  0  0  0  0  0  0  0  0
    1.0387   -7.0301    2.5175 C   0  0  0  0  0  0  0  0  0  0  0  0
    1.1486   -5.5562    2.7652 C   0  0  0  0  0  0  0  0  0  0  0  0
    0.4389  -13.4263    2.7904 C   0  0  0  0  0  0  0  0  0  0  0  0
    0.8657  -14.0578    1.7002 C   0  0  0  0  0  0  0  0  0  0  0  0
    1.4898  -15.2658    1.8331 C   0  0  0  0  0  0  0  0  0  0  0  0
    1.3148  -16.0879    3.0007 C   0  0  0  0  0  0  0  0  0  0  0  0
    1.7604  -17.3747    3.2127 C   0  0  0  0  0  0  0  0  0  0  0  0
    2.9118  -17.8823    2.5661 C   0  0  0  0  0  0  0  0  0  0  0  0
    1.1921  -18.2545    4.0638 C   0  0  0  0  0  0  0  0  0  0  0  0
    0.8331   -4.6552    1.9242 C   0  0  0  0  0  0  0  0  0  0  0  0
    1.3528   -3.3071    2.2439 O   0  0  0  0  0  0  0  0  0  0  0  0
    0.1360   -4.8068    0.9735 O   0  0  0  0  0  0  0  0  0  0  0  0
  1  2  1  0
  1  8  2  3
  8  9  1  0
  5 10  1  0
 10 11  1  0
 11 12  2  3
 12 13  1  0
 13 14  1  0
 14 15  1  0
 14 16  1  0
  9 17  1  0
 17 18  1  0
 17 19  2  0
  2  3  2  0
  3  4  1  0
  4  5  2  0
  5  6  1  0
  6  7  2  0
  2  7  1  0
M  END

$$$$
No_1795-/export/home/yangzhenyu/potential_scad_32_flow//YTHDC2/2024-12-06-03-22-00/
     RDKit          3D

 18 20  0  0  0  0  0  0  0  0999 V2000
    1.1787   -8.0297    3.5154 C   0  0  0  0  0  0  0  0  0  0  0  0
    1.0491   -6.8434    2.9820 N   0  0  0  0  0  0  0  0  0  0  0  0
    0.1476   -8.8697    3.1493 C   0  0  0  0  0  0  0  0  0  0  0  0
   -0.7634   -8.3679    2.4311 C   0  0  0  0  0  0  0  0  0  0  0  0
   -0.1709   -6.9105    2.2426 C   0  0  0  0  0  0  0  0  0  0  0  0
    0.1600  -10.2773    3.5999 C   0  0  0  0  0  0  0  0  0  0  0  0
    0.5388  -11.2545    2.8758 C   0  0  0  0  0  0  0  0  0  0  0  0
    0.8864  -11.1155    1.6619 C   0  0  0  0  0  0  0  0  0  0  0  0
    1.4848  -12.1970    0.9840 C   0  0  0  0  0  0  0  0  0  0  0  0
    1.6546  -13.3961    1.5403 C   0  0  0  0  0  0  0  0  0  0  0  0
    1.4416  -13.5465    2.8576 C   0  0  0  0  0  0  0  0  0  0  0  0
    0.9030  -12.5327    3.5917 C   0  0  0  0  0  0  0  0  0  0  0  0
   -0.7638   -5.7586    1.6780 C   0  0  0  0  0  0  0  0  0  0  0  0
   -1.7869   -5.9562    0.8649 C   0  0  0  0  0  0  0  0  0  0  0  0
   -2.3329   -4.8746    0.1352 C   0  0  0  0  0  0  0  0  0  0  0  0
   -2.0264   -3.5536    0.6655 C   0  0  0  0  0  0  0  0  0  0  0  0
   -0.9036   -3.4125    1.4982 C   0  0  0  0  0  0  0  0  0  0  0  0
   -0.2506   -4.4891    2.0156 C   0  0  0  0  0  0  0  0  0  0  0  0
  1  2  1  0
  1  3  2  0
  3  4  1  0
  2  5  2  0
  4  5  1  0
  3  6  1  0
  6  7  1  0
  5 13  1  0
 13 14  2  0
 14 15  1  0
 15 16  2  0
 16 17  1  0
 17 18  2  0
 13 18  1  0
  7  8  2  0
  8  9  1  0
  9 10  2  0
 10 11  1  0
 11 12  2  0
  7 12  1  0
M  END

$$$$
No_1796-/export/home/yangzhenyu/potential_scad_32_flow//YTHDC2/2024-12-06-03-22-00/
     RDKit          3D

 20 21  0  0  1  0  0  0  0  0999 V2000
    1.1787   -8.0297    3.5154 C   0  0  0  0  0  0  0  0  0  0  0  0
    1.1048   -9.2215    3.2892 C   0  0  0  0  0  0  0  0  0  0  0  0
    1.2339   -9.7611    2.0189 C   0  0  0  0  0  0  0  0  0  0  0  0
    1.3583   -9.0036    0.9764 C   0  0  0  0  0  0  0  0  0  0  0  0
    1.5996   -7.6362    1.1311 C   0  0  0  0  0  0  0  0  0  0  0  0
    1.4830   -7.0928    2.3626 C   0  0  0  0  0  0  0  0  0  0  0  0
    1.1008  -11.2372    1.8542 C   0  0  0  0  0  0  0  0  0  0  0  0
    1.9749  -12.0938    2.2342 C   0  0  0  0  0  0  0  0  0  0  0  0
    1.5180  -13.3509    2.5910 C   0  0  0  0  0  0  0  0  0  0  0  0
    0.4120  -13.9272    2.2191 C   0  0  0  0  0  0  0  0  0  0  0  0
   -0.5860  -13.0563    1.8308 C   0  0  0  0  0  0  0  0  0  0  0  0
   -0.2264  -11.7453    1.4928 C   0  0  0  0  0  0  0  0  0  0  0  0
    1.6028   -5.4505    2.6854 Cl  0  0  0  0  0  0  0  0  0  0  0  0
    0.0975  -15.2159    2.5385 C   0  0  0  0  0  0  0  0  0  0  0  0
   -1.1268  -15.7334    2.5338 N   0  0  0  0  0  0  0  0  0  0  0  0
    1.2114  -16.2041    2.7544 C   0  0  1  0  0  0  0  0  0  0  0  0
    2.4768  -15.9806    2.5669 C   0  0  0  0  0  0  0  0  0  0  0  0
    0.8019  -17.4196    3.3311 C   0  0  0  0  0  0  0  0  0  0  0  0
    3.2802  -17.1920    2.5317 C   0  0  0  0  0  0  0  0  0  0  0  0
   -1.9238  -15.1433    2.3422 H   0  0  0  0  0  0  0  0  0  0  0  0
  3  7  1  0
  6 13  1  0
 10 14  1  0
 14 15  2  0
 14 16  1  0
 16 17  1  0
 16 18  1  1
 17 19  2  0
  1  2  2  0
  2  3  1  0
  3  4  2  0
  4  5  1  0
  5  6  2  0
  1  6  1  0
  7  8  2  0
  8  9  1  0
  9 10  2  0
 10 11  1  0
 11 12  2  0
  7 12  1  0
 15 20  1  0
M  END

$$$$
No_1797-/export/home/yangzhenyu/potential_scad_32_flow//YTHDC2/2024-12-06-03-22-00/
     RDKit          3D

 17 18  0  0  1  0  0  0  0  0999 V2000
    1.1787   -8.0297    3.5154 C   0  0  0  0  0  0  0  0  0  0  0  0
    1.1048   -9.2215    3.2892 C   0  0  0  0  0  0  0  0  0  0  0  0
    1.3627  -10.1721    4.3044 C   0  0  0  0  0  0  0  0  0  0  0  0
    1.0682  -11.5187    4.0618 C   0  0  0  0  0  0  0  0  0  0  0  0
    0.6332  -11.9655    2.9682 C   0  0  0  0  0  0  0  0  0  0  0  0
    0.4776  -11.1308    1.9203 C   0  0  0  0  0  0  0  0  0  0  0  0
    0.7470   -9.8274    2.0368 C   0  0  0  0  0  0  0  0  0  0  0  0
    0.5536   -7.1314    2.6860 C   0  0  0  0  0  0  0  0  0  0  0  0
    0.2951   -7.6000    1.3275 C   0  0  0  0  0  0  0  0  0  0  0  0
    0.2693   -8.8631    1.0973 C   0  0  2  0  0  0  0  0  0  0  0  0
   -0.0513   -6.7125    0.4242 O   0  0  0  0  0  0  0  0  0  0  0  0
    0.4918  -13.3974    2.7285 C   0  0  0  0  0  0  0  0  0  0  0  0
    0.8947  -13.9358    1.7061 C   0  0  0  0  0  0  0  0  0  0  0  0
    2.2465  -13.7794    1.2432 C   0  0  0  0  0  0  0  0  0  0  0  0
   -0.4565   -9.3562    0.0594 C   0  0  0  0  0  0  0  0  0  0  0  0
   -1.7472   -9.5763   -0.0373 C   0  0  0  0  0  0  0  0  0  0  0  0
   -2.3173   -9.8879   -1.2976 O   0  0  0  0  0  0  0  0  0  0  0  0
  1  2  1  0
  8  9  1  0
  7 10  1  0
  9 10  1  0
  9 11  2  0
  5 12  1  0
 12 13  1  0
 13 14  1  0
 10 15  1  1
 15 16  1  0
 16 17  2  0
  1  8  1  0
  2  3  2  0
  3  4  1  0
  4  5  2  0
  5  6  1  0
  6  7  2  0
  2  7  1  0
M  END

$$$$
No_1798-/export/home/yangzhenyu/potential_scad_32_flow//YTHDC2/2024-12-06-03-22-00/
     RDKit          3D

 18 20  0  0  0  0  0  0  0  0999 V2000
    1.1787   -8.0297    3.5154 C   0  0  0  0  0  0  0  0  0  0  0  0
    1.0491   -6.8434    2.9820 O   0  0  0  0  0  0  0  0  0  0  0  0
    0.9046   -9.0606    2.6037 C   0  0  0  0  0  0  0  0  0  0  0  0
    1.1437  -10.3181    3.1506 C   0  0  0  0  0  0  0  0  0  0  0  0
    1.1328  -11.4259    2.3867 C   0  0  0  0  0  0  0  0  0  0  0  0
    0.9334  -11.3264    1.1173 C   0  0  0  0  0  0  0  0  0  0  0  0
    0.7913  -10.0894    0.5001 C   0  0  0  0  0  0  0  0  0  0  0  0
    0.8065   -8.9482    1.2829 C   0  0  0  0  0  0  0  0  0  0  0  0
    0.6895   -7.7637    0.7322 C   0  0  0  0  0  0  0  0  0  0  0  0
    1.0107   -6.5526    1.6499 C   0  0  0  0  0  0  0  0  0  0  0  0
    1.1256   -5.3584    1.2534 O   0  0  0  0  0  0  0  0  0  0  0  0
    1.3912  -12.7839    2.9616 C   0  0  0  0  0  0  0  0  0  0  0  0
    0.2541  -13.7128    2.8542 C   0  0  0  0  0  0  0  0  0  0  0  0
   -0.8036  -13.5085    2.5559 C   0  0  0  0  0  0  0  0  0  0  0  0
    0.8103  -15.0939    3.2008 C   0  0  0  0  0  0  0  0  0  0  0  0
    0.6043  -16.0550    2.6567 C   0  0  0  0  0  0  0  0  0  0  0  0
   -0.6933  -15.9020    1.8973 C   0  0  0  0  0  0  0  0  0  0  0  0
   -1.2894  -14.7000    1.8369 C   0  0  0  0  0  0  0  0  0  0  0  0
  1  2  1  0
  1  3  1  0
  8  9  1  0
  2 10  1  0
  9 10  1  0
 10 11  2  0
  5 12  1  0
 12 13  1  0
  3  4  2  0
  4  5  1  0
  5  6  2  0
  6  7  1  0
  7  8  2  0
  3  8  1  0
 13 14  2  0
 14 18  1  0
 17 18  2  0
 16 17  1  0
 15 16  2  0
 13 15  1  0
M  END

$$$$
No_1799-/export/home/yangzhenyu/potential_scad_32_flow//YTHDC2/2024-12-06-03-22-00/
     RDKit          3D

 18 18  0  0  1  0  0  0  0  0999 V2000
    1.1787   -8.0297    3.5154 C   0  0  0  0  0  0  0  0  0  0  0  0
    1.0491   -6.8434    2.9820 C   0  0  0  0  0  0  0  0  0  0  0  0
    1.9985   -8.9840    2.8958 C   0  0  0  0  0  0  0  0  0  0  0  0
    1.7297   -9.2108    1.6335 C   0  0  2  0  0  0  0  0  0  0  0  0
    2.1788  -10.5482    1.1239 C   0  0  0  0  0  0  0  0  0  0  0  0
    0.8226   -6.9903    1.4377 C   0  0  0  0  0  0  0  0  0  0  0  0
    1.5914   -8.1153    0.8208 C   0  0  0  0  0  0  0  0  0  0  0  0
    2.0956  -11.5558    1.8651 O   0  0  0  0  0  0  0  0  0  0  0  0
    2.6870  -10.6369    0.1132 O   0  0  0  0  0  0  0  0  0  0  0  0
    1.6290   -8.0867   -0.4705 O   0  0  0  0  0  0  0  0  0  0  0  0
    1.0508   -5.6805    3.5058 C   0  0  0  0  0  0  0  0  0  0  0  0
    2.1863   -5.2434    4.1676 O   0  0  0  0  0  0  0  0  0  0  0  0
    0.2144   -4.6296    2.9964 N   0  0  0  0  0  0  0  0  0  0  0  0
    0.1972   -3.3380    3.4857 C   0  0  0  0  0  0  0  0  0  0  0  0
    1.2225   -2.4681    2.9756 C   0  0  0  0  0  0  0  0  0  0  0  0
    1.3486   -2.2527    1.8877 C   0  0  0  0  0  0  0  0  0  0  0  0
    2.2796   -3.1160    1.1526 C   0  0  0  0  0  0  0  0  0  0  0  0
    0.0036   -2.2102    1.0862 C   0  0  0  0  0  0  0  0  0  0  0  0
  1  2  1  0
  1  3  1  0
  3  4  1  0
  4  5  1  6
  2  6  1  0
  4  7  1  0
  6  7  1  0
  5  8  1  0
  5  9  2  0
  7 10  2  0
  2 11  1  0
 11 12  2  0
 11 13  1  0
 13 14  1  0
 14 15  1  0
 15 16  1  0
 16 17  1  0
 16 18  1  0
M  END

$$$$
No_1800-/export/home/yangzhenyu/potential_scad_32_flow//YTHDC2/2024-12-06-03-22-00/
     RDKit          3D

 17 17  0  0  0  0  0  0  0  0999 V2000
    1.1787   -8.0297    3.5154 N   0  0  0  0  0  0  0  0  0  0  0  0
    1.0818   -9.0751    3.2053 C   0  0  0  0  0  0  0  0  0  0  0  0
    0.7576   -9.3725    1.9159 C   0  0  0  0  0  0  0  0  0  0  0  0
    1.2780   -8.6457    1.1231 C   0  0  0  0  0  0  0  0  0  0  0  0
    1.8257   -7.4190    1.2668 C   0  0  0  0  0  0  0  0  0  0  0  0
    1.7766   -6.9690    2.5491 C   0  0  0  0  0  0  0  0  0  0  0  0
    1.2424   -8.9778   -0.3991 C   0  0  0  0  0  0  0  0  0  0  0  0
    2.1906   -8.8675   -1.1433 O   0  0  0  0  0  0  0  0  0  0  0  0
    0.1198   -9.2057   -0.9162 O   0  0  0  0  0  0  0  0  0  0  0  0
    0.5244  -10.0229    4.4136 C   0  0  0  0  0  0  0  0  0  0  0  0
    0.7600  -11.3165    4.2121 C   0  0  0  0  0  0  0  0  0  0  0  0
    1.5875  -11.8266    3.3407 C   0  0  0  0  0  0  0  0  0  0  0  0
    1.1412  -12.9668    2.7013 C   0  0  0  0  0  0  0  0  0  0  0  0
    1.9502  -13.8872    2.0036 C   0  0  0  0  0  0  0  0  0  0  0  0
    1.7682  -15.0746    1.8586 C   0  0  0  0  0  0  0  0  0  0  0  0
    0.8628  -15.7788    2.5839 C   0  0  0  0  0  0  0  0  0  0  0  0
   -0.0575  -15.0116    3.4078 C   0  0  0  0  0  0  0  0  0  0  0  0
  4  7  1  0
  7  8  1  0
  7  9  2  0
  2 10  1  0
 10 11  2  3
 11 12  1  0
 12 13  1  0
 13 14  1  0
 14 15  2  3
 15 16  1  0
 16 17  2  0
  1  2  2  0
  2  3  1  0
  3  4  2  0
  4  5  1  0
  5  6  2  0
  1  6  1  0
M  END

$$$$
No_1801-/export/home/yangzhenyu/potential_scad_32_flow//YTHDC2/2024-12-06-03-22-00/
     RDKit          3D

 19 20  0  0  0  0  0  0  0  0999 V2000
    1.1787   -8.0297    3.5154 C   0  0  0  0  0  0  0  0  0  0  0  0
    1.1048   -9.2215    3.2892 C   0  0  0  0  0  0  0  0  0  0  0  0
    1.3627  -10.1721    4.3044 C   0  0  0  0  0  0  0  0  0  0  0  0
    1.0682  -11.5187    4.0618 C   0  0  0  0  0  0  0  0  0  0  0  0
    0.6332  -11.9655    2.9682 C   0  0  0  0  0  0  0  0  0  0  0  0
    0.4776  -11.1308    1.9203 C   0  0  0  0  0  0  0  0  0  0  0  0
    0.7470   -9.8274    2.0368 C   0  0  0  0  0  0  0  0  0  0  0  0
    1.8805   -7.1616    3.5539 O   0  0  0  0  0  0  0  0  0  0  0  0
   -0.1329   -7.6320    3.9814 O   0  0  0  0  0  0  0  0  0  0  0  0
    0.3691  -13.3502    2.7235 C   0  0  0  0  0  0  0  0  0  0  0  0
   -0.7880  -13.8833    2.3404 C   0  0  0  0  0  0  0  0  0  0  0  0
   -0.8327  -15.3131    2.2802 C   0  0  0  0  0  0  0  0  0  0  0  0
    0.6685  -15.8235    2.5364 C   0  0  0  0  0  0  0  0  0  0  0  0
    1.7632  -15.2190    2.7923 C   0  0  0  0  0  0  0  0  0  0  0  0
    1.7110  -13.9169    2.9329 C   0  0  0  0  0  0  0  0  0  0  0  0
    0.6601  -17.3753    2.3677 C   0  0  0  0  0  0  0  0  0  0  0  0
    1.4160  -18.0756    3.1071 C   0  0  0  0  0  0  0  0  0  0  0  0
    1.7543  -19.3820    2.8772 I   0  0  0  0  0  0  0  0  0  0  0  0
    0.6776   -8.9266    0.9154 C   0  0  0  0  0  0  0  0  0  0  0  0
  1  2  1  0
  1  8  2  0
  1  9  1  0
  5 10  1  0
 13 16  1  0
 16 17  2  3
 17 18  1  0
  7 19  1  0
  2  3  2  0
  3  4  1  0
  4  5  2  0
  5  6  1  0
  6  7  2  0
  2  7  1  0
 10 11  2  0
 11 12  1  0
 12 13  2  0
 13 14  1  0
 14 15  2  0
 10 15  1  0
M  END

$$$$
No_1802-/export/home/yangzhenyu/potential_scad_32_flow//YTHDC2/2024-12-06-03-22-00/
     RDKit          3D

 18 19  0  0  1  0  0  0  0  0999 V2000
    1.1787   -8.0297    3.5154 C   0  0  0  0  0  0  0  0  0  0  0  0
    1.1048   -9.2215    3.2892 C   0  0  0  0  0  0  0  0  0  0  0  0
    1.2339   -9.7611    2.0189 C   0  0  0  0  0  0  0  0  0  0  0  0
    1.3583   -9.0036    0.9764 C   0  0  0  0  0  0  0  0  0  0  0  0
    1.5394   -7.6373    1.2201 C   0  0  0  0  0  0  0  0  0  0  0  0
    1.4604   -7.0971    2.3874 C   0  0  0  0  0  0  0  0  0  0  0  0
    1.1370  -11.2343    1.8498 C   0  0  1  0  0  0  0  0  0  0  0  0
    0.5574  -11.6045    0.6168 N   0  0  0  0  0  0  0  0  0  0  0  0
    1.6572  -12.0628    2.6203 C   0  0  0  0  0  0  0  0  0  0  0  0
    1.6109  -13.4526    2.1326 Cl  0  0  0  0  0  0  0  0  0  0  0  0
    2.2676  -11.7733    3.7911 C   0  0  0  0  0  0  0  0  0  0  0  0
    1.4498   -5.6405    2.6586 C   0  0  0  0  0  0  0  0  0  0  0  0
   -0.7558  -11.7067    0.3218 C   0  0  0  0  0  0  0  0  0  0  0  0
   -1.5371  -11.8941    1.3124 C   0  0  0  0  0  0  0  0  0  0  0  0
   -2.9090  -12.0734    1.1761 C   0  0  0  0  0  0  0  0  0  0  0  0
   -3.3826  -11.9448   -0.0416 C   0  0  0  0  0  0  0  0  0  0  0  0
   -2.5688  -11.7302   -1.1376 C   0  0  0  0  0  0  0  0  0  0  0  0
   -1.1900  -11.6040   -0.9129 C   0  0  0  0  0  0  0  0  0  0  0  0
  3  7  1  0
  7  8  1  6
  7  9  1  0
  9 10  1  0
  9 11  1  0
  6 12  1  0
  8 13  1  0
  1  2  2  0
  2  3  1  0
  3  4  2  0
  4  5  1  0
  5  6  2  0
  1  6  1  0
 13 14  2  0
 14 15  1  0
 15 16  2  0
 16 17  1  0
 17 18  2  0
 13 18  1  0
M  END

$$$$
No_1803-/export/home/yangzhenyu/potential_scad_32_flow//YTHDC2/2024-12-06-03-22-00/
     RDKit          3D

 18 19  0  0  1  0  0  0  0  0999 V2000
    1.1787   -8.0297    3.5154 N   0  0  0  0  0  0  0  0  0  0  0  0
    0.8669   -7.0905    2.8589 C   0  0  0  0  0  0  0  0  0  0  0  0
    0.8842   -5.8387    3.2677 C   0  0  0  0  0  0  0  0  0  0  0  0
    1.2819   -9.4050    3.1259 C   0  0  0  0  0  0  0  0  0  0  0  0
    0.9577   -9.7285    2.0210 C   0  0  0  0  0  0  0  0  0  0  0  0
    0.5397   -8.8365    1.1063 C   0  0  0  0  0  0  0  0  0  0  0  0
    0.5474   -7.4800    1.4498 C   0  0  0  0  0  0  0  0  0  0  0  0
    0.1668   -6.5474    0.6211 C   0  0  0  0  0  0  0  0  0  0  0  0
    1.7684  -10.3713    4.2030 Cl  0  0  0  0  0  0  0  0  0  0  0  0
    0.4354   -5.2967    0.7735 O   0  0  0  0  0  0  0  0  0  0  0  0
    0.7397   -4.8058    2.0958 C   0  0  0  0  0  0  0  0  0  0  0  0
   -0.1954   -6.7518   -0.5606 O   0  0  0  0  0  0  0  0  0  0  0  0
    1.0834  -11.0685    1.4789 C   0  0  2  0  0  0  0  0  0  0  0  0
    2.3065  -11.5557    1.1458 C   0  0  0  0  0  0  0  0  0  0  0  0
    0.2222  -11.4151    0.2925 C   0  0  0  0  0  0  0  0  0  0  0  0
   -0.9231  -12.1312    0.7081 C   0  0  0  0  0  0  0  0  0  0  0  0
   -1.2063  -13.0041    0.0596 O   0  0  0  0  0  0  0  0  0  0  0  0
   -1.8503  -11.4843    1.4444 O   0  0  0  0  0  0  0  0  0  0  0  0
  2  3  1  0
  7  8  1  0
  4  9  1  0
  8 10  1  0
  3 11  1  0
 10 11  1  0
  8 12  2  0
  5 13  1  0
 13 14  1  6
 13 15  1  0
 15 16  1  0
 16 17  2  0
 16 18  1  0
  1  2  2  0
  2  7  1  0
  6  7  2  0
  5  6  1  0
  4  5  2  0
  1  4  1  0
M  END

$$$$
No_1804-/export/home/yangzhenyu/potential_scad_32_flow//YTHDC2/2024-12-06-03-22-00/
     RDKit          3D

 19 21  0  0  1  0  0  0  0  0999 V2000
    1.1787   -8.0297    3.5154 C   0  0  0  0  0  0  0  0  0  0  0  0
    1.0491   -6.8434    2.9820 C   0  0  0  0  0  0  0  0  0  0  0  0
    1.0690   -9.1150    2.7206 C   0  0  0  0  0  0  0  0  0  0  0  0
    0.9689   -6.6391    1.6260 C   0  0  0  0  0  0  0  0  0  0  0  0
    0.9670   -9.0334    1.3824 C   0  0  0  0  0  0  0  0  0  0  0  0
    0.8189   -7.7113    0.8022 C   0  0  0  0  0  0  0  0  0  0  0  0
    1.2122  -10.5176    3.2445 N   0  0  0  0  0  0  0  0  0  0  0  0
    1.4568  -11.4931    2.8556 C   0  0  0  0  0  0  0  0  0  0  0  0
    1.7937  -11.5194    1.3604 C   0  0  0  0  0  0  0  0  0  0  0  0
    1.4459  -10.2436    0.6524 C   0  0  0  0  0  0  0  0  0  0  0  0
    1.7670  -12.6654    3.4304 C   0  0  0  0  0  0  0  0  0  0  0  0
    0.7825   -5.3999    1.0474 O   0  0  0  0  0  0  0  0  0  0  0  0
    1.3179  -13.9431    2.7157 C   0  0  1  0  0  0  0  0  0  0  0  0
    2.2234  -14.8365    2.2776 C   0  0  0  0  0  0  0  0  0  0  0  0
    1.9677  -16.0874    1.9687 C   0  0  0  0  0  0  0  0  0  0  0  0
    0.6486  -16.4083    2.4776 C   0  0  0  0  0  0  0  0  0  0  0  0
    0.2308  -14.9604    3.0781 C   0  0  0  0  0  0  0  0  0  0  0  0
   -0.1745  -17.2922    2.6430 C   0  0  0  0  0  0  0  0  0  0  0  0
    0.1109  -18.4451    2.0718 C   0  0  0  0  0  0  0  0  0  0  0  0
  1  3  1  0
  2  4  1  0
  4  6  1  0
  5  6  1  0
  8 11  1  0
  4 12  2  0
 13 11  1  1
 13 14  1  0
 14 15  2  0
 15 16  1  0
 13 17  1  0
 16 17  1  0
 16 18  1  0
 18 19  2  0
  1  2  1  0
  3  7  2  0
  7  8  1  0
  8  9  2  0
  9 10  1  0
  5 10  2  0
  3  5  1  0
M  END

$$$$
No_1805-/export/home/yangzhenyu/potential_scad_32_flow//YTHDC2/2024-12-06-03-22-00/
     RDKit          3D

 19 20  0  0  0  0  0  0  0  0999 V2000
    1.1787   -8.0297    3.5154 C   0  0  0  0  0  0  0  0  0  0  0  0
    1.1048   -9.2215    3.2892 C   0  0  0  0  0  0  0  0  0  0  0  0
    1.2339   -9.7611    2.0189 C   0  0  0  0  0  0  0  0  0  0  0  0
    1.3583   -9.0036    0.9764 C   0  0  0  0  0  0  0  0  0  0  0  0
    1.5996   -7.6362    1.1311 C   0  0  0  0  0  0  0  0  0  0  0  0
    1.4830   -7.0928    2.3626 C   0  0  0  0  0  0  0  0  0  0  0  0
    1.1171  -11.3311    1.8661 C   0  0  0  0  0  0  0  0  0  0  0  0
    0.5042  -11.9974    2.3631 C   0  0  0  0  0  0  0  0  0  0  0  0
    0.4547  -13.3874    2.1599 C   0  0  0  0  0  0  0  0  0  0  0  0
    1.6053  -14.2337    2.6337 C   0  0  0  0  0  0  0  0  0  0  0  0
    1.6404  -15.5635    2.4227 N   0  0  0  0  0  0  0  0  0  0  0  0
    0.8782  -16.1265    2.0815 C   0  0  0  0  0  0  0  0  0  0  0  0
   -0.3009  -15.6453    1.5543 C   0  0  0  0  0  0  0  0  0  0  0  0
   -0.4942  -14.2734    1.7691 C   0  0  0  0  0  0  0  0  0  0  0  0
    1.5681   -5.6656    2.6549 N   0  0  0  0  0  0  0  0  0  0  0  0
    1.0669  -17.5902    1.9695 C   0  0  0  0  0  0  0  0  0  0  0  0
    2.3363  -17.9932    1.9553 C   0  0  0  0  0  0  0  0  0  0  0  0
    1.5360   -9.3839   -0.3979 C   0  0  0  0  0  0  0  0  0  0  0  0
    0.4075   -9.8311   -0.9294 O   0  0  0  0  0  0  0  0  0  0  0  0
  3  7  1  0
  7  8  2  3
  8  9  1  0
  6 15  1  0
 12 16  1  0
 16 17  1  0
  4 18  1  0
 18 19  2  0
  1  2  2  0
  2  3  1  0
  3  4  2  0
  4  5  1  0
  5  6  2  0
  1  6  1  0
  9 10  2  0
 10 11  1  0
 11 12  2  0
 12 13  1  0
 13 14  2  0
  9 14  1  0
M  END

$$$$
No_1806-/export/home/yangzhenyu/potential_scad_32_flow//YTHDC2/2024-12-06-03-22-00/
     RDKit          3D

 19 21  0  0  1  0  0  0  0  0999 V2000
    1.1787   -8.0297    3.5154 C   0  0  0  0  0  0  0  0  0  0  0  0
    1.1048   -9.2215    3.2892 C   0  0  0  0  0  0  0  0  0  0  0  0
    1.2339   -9.7611    2.0189 C   0  0  1  0  0  0  0  0  0  0  0  0
    1.1954  -11.2312    1.8661 C   0  0  0  0  0  0  0  0  0  0  0  0
    1.5546  -12.1691    2.7931 C   0  0  0  0  0  0  0  0  0  0  0  0
    0.5849   -7.0929    2.5729 C   0  0  2  0  0  0  0  0  0  0  0  0
    0.5567   -7.6699    1.1955 C   0  0  0  0  0  0  0  0  0  0  0  0
    0.7903   -8.9699    0.9209 C   0  0  0  0  0  0  0  0  0  0  0  0
    1.5521  -13.4960    2.3485 C   0  0  0  0  0  0  0  0  0  0  0  0
    1.2403  -13.8919    1.1557 C   0  0  0  0  0  0  0  0  0  0  0  0
    1.0311  -12.9707    0.1488 C   0  0  0  0  0  0  0  0  0  0  0  0
    0.9678  -11.6394    0.4949 C   0  0  0  0  0  0  0  0  0  0  0  0
    0.6075   -5.5221    2.6486 C   0  0  0  0  0  0  0  0  0  0  0  0
    0.3323   -6.8583    0.1749 O   0  0  0  0  0  0  0  0  0  0  0  0
   -0.6082   -4.9840    2.5593 C   0  0  0  0  0  0  0  0  0  0  0  0
    1.8176   -4.7940    2.7018 C   0  0  0  0  0  0  0  0  0  0  0  0
   -0.6507   -3.6132    2.5426 C   0  0  0  0  0  0  0  0  0  0  0  0
    0.4576   -2.8328    2.5161 C   0  0  0  0  0  0  0  0  0  0  0  0
    1.6639   -3.4607    2.6328 C   0  0  0  0  0  0  0  0  0  0  0  0
  1  2  1  0
  3  4  1  1
  6  7  1  0
  3  8  1  0
  7  8  1  0
  6 13  1  6
  7 14  2  0
  1  6  1  0
  2  3  1  0
 13 15  2  0
 15 17  1  0
 17 18  2  0
 18 19  1  0
 16 19  2  0
 13 16  1  0
  4  5  2  0
  5  9  1  0
  9 10  2  0
 10 11  1  0
 11 12  2  0
  4 12  1  0
M  END

$$$$
No_1807-/export/home/yangzhenyu/potential_scad_32_flow//YTHDC2/2024-12-06-03-22-00/
     RDKit          3D

 19 21  0  0  0  0  0  0  0  0999 V2000
    1.1787   -8.0297    3.5154 N   0  0  0  0  0  0  0  0  0  0  0  0
    1.0818   -9.0751    3.2053 C   0  0  0  0  0  0  0  0  0  0  0  0
    1.5216  -10.1164    3.9747 C   0  0  0  0  0  0  0  0  0  0  0  0
    1.4420  -11.4363    3.6461 C   0  0  0  0  0  0  0  0  0  0  0  0
    0.5969  -11.7648    2.6785 C   0  0  0  0  0  0  0  0  0  0  0  0
    0.0096  -10.8332    1.9506 C   0  0  0  0  0  0  0  0  0  0  0  0
    0.3359   -9.5186    2.1388 C   0  0  0  0  0  0  0  0  0  0  0  0
    1.1574   -6.9183    2.6875 C   0  0  0  0  0  0  0  0  0  0  0  0
    0.6585   -7.2272    1.4255 C   0  0  0  0  0  0  0  0  0  0  0  0
    0.2266   -8.4755    1.1116 C   0  0  0  0  0  0  0  0  0  0  0  0
   -0.4196   -8.6475   -0.0393 C   0  0  0  0  0  0  0  0  0  0  0  0
   -1.7694   -8.7995   -0.1958 C   0  0  0  0  0  0  0  0  0  0  0  0
   -2.3462   -9.0071   -1.5551 N   0  0  0  0  0  0  0  0  0  0  0  0
   -1.5643   -9.1350   -2.5426 C   0  0  0  0  0  0  0  0  0  0  0  0
   -0.1793   -9.0187   -2.4736 C   0  0  0  0  0  0  0  0  0  0  0  0
    0.4454   -8.9077   -1.2461 C   0  0  0  0  0  0  0  0  0  0  0  0
   -2.2088   -9.3220   -3.7651 C   0  0  0  0  0  0  0  0  0  0  0  0
    0.3613  -13.1775    2.3759 C   0  0  0  0  0  0  0  0  0  0  0  0
    1.2301  -14.1228    2.8229 C   0  0  0  0  0  0  0  0  0  0  0  0
 10 11  1  0
 14 17  1  0
  5 18  1  0
 18 19  1  0
 11 12  2  0
 12 13  1  0
 13 14  2  0
 14 15  1  0
 15 16  2  0
 11 16  1  0
  2  3  1  0
  3  4  2  0
  4  5  1  0
  5  6  2  0
  6  7  1  0
  1  2  2  0
  2  7  1  0
  7 10  2  0
  9 10  1  0
  8  9  2  0
  1  8  1  0
M  END

$$$$
No_1808-/export/home/yangzhenyu/potential_scad_32_flow//YTHDC2/2024-12-06-03-22-00/
     RDKit          3D

 12 13  0  0  0  0  0  0  0  0999 V2000
    1.1787   -8.0297    3.5154 C   0  0  0  0  0  0  0  0  0  0  0  0
    1.1048   -9.2215    3.2892 C   0  0  0  0  0  0  0  0  0  0  0  0
    1.3627  -10.1721    4.3044 C   0  0  0  0  0  0  0  0  0  0  0  0
    1.7354  -11.4730    3.9023 C   0  0  0  0  0  0  0  0  0  0  0  0
    1.6166  -11.5515    2.5159 C   0  0  0  0  0  0  0  0  0  0  0  0
    1.4172  -10.6242    1.6178 C   0  0  0  0  0  0  0  0  0  0  0  0
    1.2598   -9.4423    1.9811 C   0  0  0  0  0  0  0  0  0  0  0  0
    1.0996   -7.0633    2.5049 N   0  0  0  0  0  0  0  0  0  0  0  0
    1.2953   -8.1087    1.4141 C   0  0  0  0  0  0  0  0  0  0  0  0
    1.3371   -7.7832    0.1781 O   0  0  0  0  0  0  0  0  0  0  0  0
    1.8791  -13.2359    1.9166 Cl  0  0  0  0  0  0  0  0  0  0  0  0
    1.5896  -10.9759    0.2536 O   0  0  0  0  0  0  0  0  0  0  0  0
  1  2  1  0
  1  8  2  0
  7  9  1  0
  8  9  1  0
  9 10  2  0
  5 11  1  0
  6 12  1  0
  2  3  2  0
  3  4  1  0
  4  5  2  0
  5  6  1  0
  6  7  2  0
  2  7  1  0
M  END

$$$$
No_1809-/export/home/yangzhenyu/potential_scad_32_flow//YTHDC2/2024-12-06-03-22-00/
     RDKit          3D

 15 16  0  0  0  0  0  0  0  0999 V2000
    1.1787   -8.0297    3.5154 C   0  0  0  0  0  0  0  0  0  0  0  0
    1.1048   -9.2215    3.2892 C   0  0  0  0  0  0  0  0  0  0  0  0
    1.0239   -9.7790    2.0239 C   0  0  0  0  0  0  0  0  0  0  0  0
    1.1393   -9.0211    0.9686 C   0  0  0  0  0  0  0  0  0  0  0  0
    1.4051   -7.6500    1.1251 C   0  0  0  0  0  0  0  0  0  0  0  0
    1.4868   -7.1041    2.3534 C   0  0  0  0  0  0  0  0  0  0  0  0
    0.9659  -10.1420    4.4543 Cl  0  0  0  0  0  0  0  0  0  0  0  0
    0.8016  -11.1600    1.8522 O   0  0  0  0  0  0  0  0  0  0  0  0
    1.0239  -11.7371    0.8820 C   0  0  0  0  0  0  0  0  0  0  0  0
    1.1528  -13.1252    1.0751 C   0  0  0  0  0  0  0  0  0  0  0  0
    2.0166  -13.6453    1.8583 C   0  0  0  0  0  0  0  0  0  0  0  0
    2.2580  -15.0511    1.7279 C   0  0  0  0  0  0  0  0  0  0  0  0
    1.5519  -15.9158    1.1908 C   0  0  0  0  0  0  0  0  0  0  0  0
    0.5434  -15.5238    0.4327 C   0  0  0  0  0  0  0  0  0  0  0  0
    0.3451  -14.1549    0.2680 C   0  0  0  0  0  0  0  0  0  0  0  0
  2  7  1  0
  3  8  1  0
  8  9  1  0
  9 10  1  0
  1  2  2  0
  2  3  1  0
  3  4  2  0
  4  5  1  0
  5  6  2  0
  1  6  1  0
 10 11  2  0
 11 12  1  0
 12 13  2  0
 13 14  1  0
 14 15  2  0
 10 15  1  0
M  END

$$$$
No_1810-/export/home/yangzhenyu/potential_scad_32_flow//YTHDC2/2024-12-06-03-22-00/
     RDKit          3D

 19 19  0  0  1  0  0  0  0  0999 V2000
    1.1787   -8.0297    3.5154 C   0  0  0  0  0  0  0  0  0  0  0  0
    1.1048   -9.2215    3.2892 C   0  0  0  0  0  0  0  0  0  0  0  0
    1.2339   -9.7611    2.0189 C   0  0  0  0  0  0  0  0  0  0  0  0
    1.3583   -9.0036    0.9764 C   0  0  0  0  0  0  0  0  0  0  0  0
    1.5996   -7.6362    1.1311 C   0  0  0  0  0  0  0  0  0  0  0  0
    1.4830   -7.0928    2.3626 C   0  0  0  0  0  0  0  0  0  0  0  0
    1.4898   -5.7274    2.6199 C   0  0  0  0  0  0  0  0  0  0  0  0
    1.1882  -11.3736    1.8424 C   0  0  0  0  0  0  0  0  0  0  0  0
    1.0670  -11.6643    0.5390 N   0  0  0  0  0  0  0  0  0  0  0  0
    1.3150  -12.0787    2.7580 O   0  0  0  0  0  0  0  0  0  0  0  0
    1.2432   -4.8623    1.6199 O   0  0  0  0  0  0  0  0  0  0  0  0
    2.0592   -5.0739    3.6938 N   0  0  0  0  0  0  0  0  0  0  0  0
    1.0463  -13.1059    0.4116 C   0  0  0  0  0  0  0  0  0  0  0  0
    1.7174  -13.9172    0.9877 C   0  0  2  0  0  0  0  0  0  0  0  0
    3.1414  -13.7900    1.2701 O   0  0  0  0  0  0  0  0  0  0  0  0
    1.3917  -15.1571    1.3411 C   0  0  0  0  0  0  0  0  0  0  0  0
    0.2917  -15.6512    0.7750 O   0  0  0  0  0  0  0  0  0  0  0  0
    2.0484  -15.9370    2.2182 C   0  0  0  0  0  0  0  0  0  0  0  0
    1.4770  -16.8098    3.0999 C   0  0  0  0  0  0  0  0  0  0  0  0
  6  7  1  0
  3  8  1  0
  8  9  1  0
  8 10  2  0
  7 11  2  0
  7 12  1  0
  9 13  2  3
 13 14  1  0
 14 15  1  6
 14 16  1  0
 16 17  2  0
 16 18  1  0
 18 19  1  0
  1  2  2  0
  2  3  1  0
  3  4  2  0
  4  5  1  0
  5  6  2  0
  1  6  1  0
M  END

$$$$
No_1811-/export/home/yangzhenyu/potential_scad_32_flow//YTHDC2/2024-12-06-03-22-00/
     RDKit          3D

 17 18  0  0  1  0  0  0  0  0999 V2000
    1.1787   -8.0297    3.5154 C   0  0  0  0  0  0  0  0  0  0  0  0
    1.1048   -9.2215    3.2892 C   0  0  0  0  0  0  0  0  0  0  0  0
    1.2339   -9.7611    2.0189 C   0  0  0  0  0  0  0  0  0  0  0  0
    1.3583   -9.0036    0.9764 C   0  0  0  0  0  0  0  0  0  0  0  0
    1.5996   -7.6362    1.1311 C   0  0  0  0  0  0  0  0  0  0  0  0
    1.4830   -7.0928    2.3626 C   0  0  0  0  0  0  0  0  0  0  0  0
    1.1008  -11.2372    1.8542 C   0  0  1  0  0  0  0  0  0  0  0  0
    0.4812  -11.6084    0.6459 C   0  0  0  0  0  0  0  0  0  0  0  0
   -0.3691  -10.9312    0.0124 C   0  0  0  0  0  0  0  0  0  0  0  0
   -1.0102  -11.3797   -1.1447 C   0  0  0  0  0  0  0  0  0  0  0  0
   -1.1621  -12.7045   -1.3353 C   0  0  0  0  0  0  0  0  0  0  0  0
   -0.3609  -13.5714   -0.5528 C   0  0  0  0  0  0  0  0  0  0  0  0
    0.4530  -13.1021    0.4945 C   0  0  0  0  0  0  0  0  0  0  0  0
    1.8425  -11.9618    2.6482 C   0  0  0  0  0  0  0  0  0  0  0  0
    1.5366   -5.6604    2.6882 C   0  0  0  0  0  0  0  0  0  0  0  0
    1.2295   -4.7832    1.7091 F   0  0  0  0  0  0  0  0  0  0  0  0
    1.6384   -5.1604    3.7260 F   0  0  0  0  0  0  0  0  0  0  0  0
  3  7  1  0
  7  8  1  0
  7 14  1  6
  6 15  1  0
 15 16  1  0
 15 17  1  0
  1  2  2  0
  2  3  1  0
  3  4  2  0
  4  5  1  0
  5  6  2  0
  1  6  1  0
  8  9  2  0
  9 10  1  0
 10 11  2  0
 11 12  1  0
 12 13  2  0
  8 13  1  0
M  END

$$$$
No_1812-/export/home/yangzhenyu/potential_scad_32_flow//YTHDC2/2024-12-06-03-22-00/
     RDKit          3D

 17 18  0  0  0  0  0  0  0  0999 V2000
    1.1787   -8.0297    3.5154 C   0  0  0  0  0  0  0  0  0  0  0  0
    1.1048   -9.2215    3.2892 C   0  0  0  0  0  0  0  0  0  0  0  0
    1.3627  -10.1721    4.3044 C   0  0  0  0  0  0  0  0  0  0  0  0
    1.7354  -11.4730    3.9023 C   0  0  0  0  0  0  0  0  0  0  0  0
    1.8080  -11.8127    2.7216 C   0  0  0  0  0  0  0  0  0  0  0  0
    1.5854  -11.0021    1.7249 C   0  0  0  0  0  0  0  0  0  0  0  0
    1.3573   -9.7389    1.9287 C   0  0  0  0  0  0  0  0  0  0  0  0
    1.2865   -8.8078    0.9161 C   0  0  0  0  0  0  0  0  0  0  0  0
    1.6845   -9.1638   -0.2896 O   0  0  0  0  0  0  0  0  0  0  0  0
    0.9531   -7.5121    1.0883 N   0  0  0  0  0  0  0  0  0  0  0  0
    0.9204   -7.0389    2.3661 C   0  0  0  0  0  0  0  0  0  0  0  0
    0.8333   -5.6541    2.5434 O   0  0  0  0  0  0  0  0  0  0  0  0
    2.0452  -13.2187    2.3525 C   0  0  0  0  0  0  0  0  0  0  0  0
    1.1653  -14.0365    1.7240 C   0  0  0  0  0  0  0  0  0  0  0  0
    1.5302  -15.3368    1.3909 C   0  0  0  0  0  0  0  0  0  0  0  0
    0.7872  -16.1587    0.8443 C   0  0  0  0  0  0  0  0  0  0  0  0
   -0.2176  -15.5625   -0.0195 C   0  0  0  0  0  0  0  0  0  0  0  0
  1  2  1  0
  7  8  1  0
  8  9  2  0
  8 10  1  0
  1 11  1  0
 10 11  1  0
 11 12  2  0
  5 13  1  0
 13 14  2  3
 14 15  1  0
 15 16  2  3
 16 17  1  0
  2  3  2  0
  3  4  1  0
  4  5  2  0
  5  6  1  0
  6  7  2  0
  2  7  1  0
M  END

$$$$
No_1813-/export/home/yangzhenyu/potential_scad_32_flow//YTHDC2/2024-12-06-03-22-00/
     RDKit          3D

 14 15  0  0  0  0  0  0  0  0999 V2000
    1.1787   -8.0297    3.5154 C   0  0  0  0  0  0  0  0  0  0  0  0
    1.1048   -9.2215    3.2892 C   0  0  0  0  0  0  0  0  0  0  0  0
    1.2339   -9.7611    2.0189 C   0  0  0  0  0  0  0  0  0  0  0  0
    1.1954  -11.2312    1.8661 C   0  0  0  0  0  0  0  0  0  0  0  0
    1.5546  -12.1691    2.7931 C   0  0  0  0  0  0  0  0  0  0  0  0
    0.5849   -7.0929    2.5729 C   0  0  0  0  0  0  0  0  0  0  0  0
    0.5567   -7.6699    1.1955 C   0  0  0  0  0  0  0  0  0  0  0  0
    0.7903   -8.9699    0.9209 C   0  0  0  0  0  0  0  0  0  0  0  0
    0.7806  -13.2965    2.8850 C   0  0  0  0  0  0  0  0  0  0  0  0
    0.6857  -14.0722    1.7345 C   0  0  0  0  0  0  0  0  0  0  0  0
    0.2673  -13.0990    0.6492 C   0  0  0  0  0  0  0  0  0  0  0  0
    0.9913  -11.8106    0.6013 C   0  0  0  0  0  0  0  0  0  0  0  0
    0.6113   -5.6462    2.6418 C   0  0  0  0  0  0  0  0  0  0  0  0
    1.6928   -4.9954    3.1525 N   0  0  0  0  0  0  0  0  0  0  0  0
  3  4  1  0
  4  5  1  0
  5  9  1  0
  9 10  1  0
 10 11  1  0
  4 12  1  0
 11 12  1  0
  6 13  1  0
 13 14  1  0
  1  2  2  0
  2  3  1  0
  3  8  2  0
  7  8  1  0
  6  7  2  0
  1  6  1  0
M  END

$$$$
No_1814-/export/home/yangzhenyu/potential_scad_32_flow//YTHDC2/2024-12-06-03-22-00/
     RDKit          3D

 17 18  0  0  0  0  0  0  0  0999 V2000
    1.1787   -8.0297    3.5154 C   0  0  0  0  0  0  0  0  0  0  0  0
    1.0491   -6.8434    2.9820 C   0  0  0  0  0  0  0  0  0  0  0  0
    0.0950   -8.8404    3.2292 C   0  0  0  0  0  0  0  0  0  0  0  0
   -0.9173   -8.4596    2.5152 C   0  0  0  0  0  0  0  0  0  0  0  0
   -1.0331   -7.2162    2.0653 C   0  0  0  0  0  0  0  0  0  0  0  0
   -0.0105   -6.3168    2.3081 C   0  0  0  0  0  0  0  0  0  0  0  0
    0.1935  -10.3737    3.7416 C   0  0  0  0  0  0  0  0  0  0  0  0
   -0.9968  -11.0614    3.6410 C   0  0  0  0  0  0  0  0  0  0  0  0
   -2.0651  -10.5736    2.9123 C   0  0  0  0  0  0  0  0  0  0  0  0
   -2.0392   -9.2902    2.3541 C   0  0  0  0  0  0  0  0  0  0  0  0
   -3.1781  -11.3582    2.7993 C   0  0  0  0  0  0  0  0  0  0  0  0
   -0.0593   -4.9635    1.8581 C   0  0  0  0  0  0  0  0  0  0  0  0
   -0.6489   -4.1003    2.3201 C   0  0  0  0  0  0  0  0  0  0  0  0
   -0.6634   -2.7266    1.8599 Cl  0  0  0  0  0  0  0  0  0  0  0  0
   -3.0263  -12.6218    2.2728 N   0  0  0  0  0  0  0  0  0  0  0  0
   -3.8315  -13.5598    2.7621 C   0  0  0  0  0  0  0  0  0  0  0  0
   -4.7696  -13.2252    3.6539 C   0  0  0  0  0  0  0  0  0  0  0  0
  9 11  1  0
  6 12  1  0
 12 13  2  3
 13 14  1  0
 11 15  1  0
 15 16  2  3
 16 17  1  0
  4 10  2  0
  9 10  1  0
  8  9  2  0
  7  8  1  0
  3  7  2  0
  1  2  2  0
  2  6  1  0
  5  6  2  0
  4  5  1  0
  3  4  1  0
  1  3  1  0
M  END

$$$$
No_1815-/export/home/yangzhenyu/potential_scad_32_flow//YTHDC2/2024-12-06-03-22-00/
     RDKit          3D

 18 19  0  0  0  0  0  0  0  0999 V2000
    1.1787   -8.0297    3.5154 C   0  0  0  0  0  0  0  0  0  0  0  0
    1.1048   -9.2215    3.2892 C   0  0  0  0  0  0  0  0  0  0  0  0
    1.3627  -10.1721    4.3044 C   0  0  0  0  0  0  0  0  0  0  0  0
    1.7354  -11.4730    3.9023 C   0  0  0  0  0  0  0  0  0  0  0  0
    1.8080  -11.8127    2.7216 C   0  0  0  0  0  0  0  0  0  0  0  0
    1.5854  -11.0021    1.7249 C   0  0  0  0  0  0  0  0  0  0  0  0
    1.3573   -9.7389    1.9287 C   0  0  0  0  0  0  0  0  0  0  0  0
    1.2865   -8.8078    0.9161 C   0  0  0  0  0  0  0  0  0  0  0  0
    0.9210   -7.5140    1.1674 C   0  0  0  0  0  0  0  0  0  0  0  0
    1.0097   -7.0192    2.4369 C   0  0  0  0  0  0  0  0  0  0  0  0
    2.0228  -13.2586    2.4222 O   0  0  0  0  0  0  0  0  0  0  0  0
    0.8526   -5.6034    2.6886 C   0  0  0  0  0  0  0  0  0  0  0  0
   -0.3558   -5.0363    2.2388 C   0  0  0  0  0  0  0  0  0  0  0  0
   -0.4333   -3.5612    2.4510 C   0  0  0  0  0  0  0  0  0  0  0  0
    1.3077  -14.0281    1.6793 C   0  0  0  0  0  0  0  0  0  0  0  0
   -1.4782   -3.1994    2.8230 C   0  0  0  0  0  0  0  0  0  0  0  0
   -2.6703   -4.0512    2.8316 C   0  0  0  0  0  0  0  0  0  0  0  0
   -2.5996   -5.3832    2.8067 C   0  0  0  0  0  0  0  0  0  0  0  0
  5 11  1  0
 10 12  1  0
 12 13  2  3
 13 14  1  0
 11 15  1  0
 14 16  2  3
 16 17  1  0
 17 18  2  0
  1  2  2  0
  7  8  2  0
  8  9  1  0
  9 10  2  0
  1 10  1  0
  2  3  1  0
  3  4  2  0
  4  5  1  0
  5  6  2  0
  6  7  1  0
  2  7  1  0
M  END

$$$$
No_1816-/export/home/yangzhenyu/potential_scad_32_flow//YTHDC2/2024-12-06-03-22-00/
     RDKit          3D

 18 20  0  0  0  0  0  0  0  0999 V2000
    1.1787   -8.0297    3.5154 C   0  0  0  0  0  0  0  0  0  0  0  0
    1.0491   -6.8434    2.9820 C   0  0  0  0  0  0  0  0  0  0  0  0
    0.9905   -9.0774    2.6527 C   0  0  0  0  0  0  0  0  0  0  0  0
    0.7897   -8.9519    1.3691 C   0  0  0  0  0  0  0  0  0  0  0  0
    0.7018   -7.7198    0.7892 C   0  0  0  0  0  0  0  0  0  0  0  0
    0.8918   -6.5957    1.6117 C   0  0  0  0  0  0  0  0  0  0  0  0
    1.0711  -10.4814    3.2282 C   0  0  0  0  0  0  0  0  0  0  0  0
   -0.1055  -11.1328    3.5223 C   0  0  0  0  0  0  0  0  0  0  0  0
   -0.1824  -12.4513    3.3816 N   0  0  0  0  0  0  0  0  0  0  0  0
    0.9364  -13.1235    3.1787 C   0  0  0  0  0  0  0  0  0  0  0  0
    2.1736  -12.5827    2.9471 C   0  0  0  0  0  0  0  0  0  0  0  0
    2.1936  -11.2231    2.8429 C   0  0  0  0  0  0  0  0  0  0  0  0
    0.8680  -14.5888    3.2836 C   0  0  0  0  0  0  0  0  0  0  0  0
    2.0473  -15.3727    2.8823 N   0  0  0  0  0  0  0  0  0  0  0  0
   -0.1938  -15.3672    3.5445 N   0  0  0  0  0  0  0  0  0  0  0  0
    1.7218  -16.6678    2.9595 N   0  0  0  0  0  0  0  0  0  0  0  0
    0.3112  -16.6721    3.4485 C   0  0  0  0  0  0  0  0  0  0  0  0
    0.8577   -5.2756    1.1234 O   0  0  0  0  0  0  0  0  0  0  0  0
  3  7  1  0
 10 13  1  0
 13 14  2  0
 13 15  1  0
 14 16  1  0
 15 17  1  0
 16 17  2  0
  6 18  1  0
  1  2  2  0
  2  6  1  0
  5  6  2  0
  4  5  1  0
  3  4  2  0
  1  3  1  0
  7  8  2  0
  8  9  1  0
  9 10  2  0
 10 11  1  0
 11 12  2  0
  7 12  1  0
M  END

$$$$
No_1817-/export/home/yangzhenyu/potential_scad_32_flow//YTHDC2/2024-12-06-03-22-00/
     RDKit          3D

 20 21  0  0  1  0  0  0  0  0999 V2000
    1.1787   -8.0297    3.5154 C   0  0  0  0  0  0  0  0  0  0  0  0
    1.0491   -6.8434    2.9820 C   0  0  0  0  0  0  0  0  0  0  0  0
    0.9905   -9.0774    2.6527 C   0  0  0  0  0  0  0  0  0  0  0  0
    0.7897   -8.9519    1.3691 C   0  0  0  0  0  0  0  0  0  0  0  0
    0.7018   -7.7198    0.7892 C   0  0  0  0  0  0  0  0  0  0  0  0
    0.8918   -6.5957    1.6117 C   0  0  0  0  0  0  0  0  0  0  0  0
    1.0600  -10.5680    3.3321 C   0  0  0  0  0  0  0  0  0  0  0  0
    1.1634  -11.6086    2.5010 C   0  0  0  0  0  0  0  0  0  0  0  0
    1.3344  -12.8974    3.1596 C   0  0  0  0  0  0  0  0  0  0  0  0
    1.1355  -14.0095    2.4199 C   0  0  0  0  0  0  0  0  0  0  0  0
    0.2298  -14.2909    1.6470 C   0  0  0  0  0  0  0  0  0  0  0  0
    0.1730  -15.5424    0.9403 C   0  0  0  0  0  0  0  0  0  0  0  0
    1.0787  -16.5469    1.4129 C   0  0  0  0  0  0  0  0  0  0  0  0
    1.9526  -16.3682    2.4771 C   0  0  0  0  0  0  0  0  0  0  0  0
    2.1041  -15.0665    2.9685 C   0  0  0  0  0  0  0  0  0  0  0  0
    0.8554   -5.2627    1.1620 C   0  0  0  0  0  0  0  0  0  0  0  0
    0.1650   -4.2402    1.8821 C   0  0  2  0  0  0  0  0  0  0  0  0
   -1.1988   -4.3459    1.7893 Cl  0  0  0  0  0  0  0  0  0  0  0  0
    0.9310   -3.2589    2.4950 C   0  0  0  0  0  0  0  0  0  0  0  0
    2.1674   -3.2990    2.6217 C   0  0  0  0  0  0  0  0  0  0  0  0
  3  7  1  0
  7  8  2  3
  8  9  1  0
  9 10  1  0
  6 16  1  0
 16 17  1  0
 17 18  1  6
 17 19  1  0
 19 20  1  0
  1  2  2  0
  2  6  1  0
  5  6  2  0
  4  5  1  0
  3  4  2  0
  1  3  1  0
 10 11  2  0
 11 12  1  0
 12 13  2  0
 13 14  1  0
 14 15  2  0
 10 15  1  0
M  END

$$$$
No_1818-/export/home/yangzhenyu/potential_scad_32_flow//YTHDC2/2024-12-06-03-22-00/
     RDKit          3D

 19 20  0  0  0  0  0  0  0  0999 V2000
    1.1787   -8.0297    3.5154 C   0  0  0  0  0  0  0  0  0  0  0  0
    1.0491   -6.8434    2.9820 C   0  0  0  0  0  0  0  0  0  0  0  0
    0.9905   -9.0774    2.6527 C   0  0  0  0  0  0  0  0  0  0  0  0
    0.7897   -8.9519    1.3691 C   0  0  0  0  0  0  0  0  0  0  0  0
    0.7018   -7.7198    0.7892 C   0  0  0  0  0  0  0  0  0  0  0  0
    0.8918   -6.5957    1.6117 C   0  0  0  0  0  0  0  0  0  0  0  0
    1.0774  -10.6059    3.3145 C   0  0  0  0  0  0  0  0  0  0  0  0
   -0.1032  -11.1934    3.4585 C   0  0  0  0  0  0  0  0  0  0  0  0
   -0.1482  -12.5102    3.2815 C   0  0  0  0  0  0  0  0  0  0  0  0
    0.9780  -13.3047    3.1595 C   0  0  0  0  0  0  0  0  0  0  0  0
    2.2344  -12.6017    3.0053 C   0  0  0  0  0  0  0  0  0  0  0  0
    2.2469  -11.2898    2.9555 N   0  0  0  0  0  0  0  0  0  0  0  0
    1.0071  -14.6956    3.1922 P   0  0  0  0  0  0  0  0  0  0  0  0
    0.2176  -15.3023    4.3130 O   0  0  0  0  0  0  0  0  0  0  0  0
    0.2946  -15.3058    1.8985 O   0  0  0  0  0  0  0  0  0  0  0  0
    2.3638  -15.4601    3.2097 O   0  0  0  0  0  0  0  0  0  0  0  0
    0.8150   -5.2881    1.0727 Cl  0  0  0  0  0  0  0  0  0  0  0  0
    0.6055  -10.0638    0.3931 C   0  0  0  0  0  0  0  0  0  0  0  0
    1.7390  -10.7265   -0.0147 O   0  0  0  0  0  0  0  0  0  0  0  0
  3  7  1  0
 10 13  1  0
 13 14  1  0
 13 15  2  0
 13 16  1  0
  6 17  1  0
  4 18  1  0
 18 19  2  0
  1  2  2  0
  2  6  1  0
  5  6  2  0
  4  5  1  0
  3  4  2  0
  1  3  1  0
  7  8  2  0
  8  9  1  0
  9 10  2  0
 10 11  1  0
 11 12  2  0
  7 12  1  0
M  END

$$$$
No_1819-/export/home/yangzhenyu/potential_scad_32_flow//YTHDC2/2024-12-06-03-22-00/
     RDKit          3D

 19 19  0  0  0  0  0  0  0  0999 V2000
    1.1787   -8.0297    3.5154 C   0  0  0  0  0  0  0  0  0  0  0  0
    1.0491   -6.8434    2.9820 C   0  0  0  0  0  0  0  0  0  0  0  0
    1.9985   -8.9840    2.8958 C   0  0  0  0  0  0  0  0  0  0  0  0
    1.9135  -10.3404    3.6266 C   0  0  0  0  0  0  0  0  0  0  0  0
    1.3291  -11.3908    3.0222 C   0  0  0  0  0  0  0  0  0  0  0  0
    1.2749  -12.5326    3.7562 C   0  0  0  0  0  0  0  0  0  0  0  0
    0.4248   -6.6481    1.7861 C   0  0  0  0  0  0  0  0  0  0  0  0
    0.3130   -5.3457    1.3131 O   0  0  0  0  0  0  0  0  0  0  0  0
   -0.0905   -7.5086    1.1758 O   0  0  0  0  0  0  0  0  0  0  0  0
    0.7629  -13.6835    3.1399 C   0  0  0  0  0  0  0  0  0  0  0  0
    0.4318  -13.6831    1.8715 C   0  0  0  0  0  0  0  0  0  0  0  0
    0.5570  -12.6245    1.0935 C   0  0  0  0  0  0  0  0  0  0  0  0
    1.0794  -11.4583    1.5995 C   0  0  0  0  0  0  0  0  0  0  0  0
    1.1209  -10.3880    0.7572 C   0  0  0  0  0  0  0  0  0  0  0  0
    2.3449   -9.7961    0.4649 O   0  0  0  0  0  0  0  0  0  0  0  0
    0.1936  -10.3320   -0.3112 N   0  0  0  0  0  0  0  0  0  0  0  0
    0.6232  -14.8624    3.9233 O   0  0  0  0  0  0  0  0  0  0  0  0
   -1.0150  -10.6728   -0.2619 C   0  0  0  0  0  0  0  0  0  0  0  0
   -1.6358  -11.0548   -1.3423 C   0  0  0  0  0  0  0  0  0  0  0  0
  1  2  1  0
  1  3  1  0
  3  4  1  0
  4  5  1  0
  2  7  1  0
  7  8  2  0
  7  9  1  0
 13 14  1  0
 14 15  2  0
 14 16  1  0
 10 17  1  0
 16 18  1  0
 18 19  1  0
  5  6  2  0
  6 10  1  0
 10 11  2  0
 11 12  1  0
 12 13  2  0
  5 13  1  0
M  END

$$$$
No_1820-/export/home/yangzhenyu/potential_scad_32_flow//YTHDC2/2024-12-06-03-22-00/
     RDKit          3D

 17 18  0  0  0  0  0  0  0  0999 V2000
    1.1787   -8.0297    3.5154 C   0  0  0  0  0  0  0  0  0  0  0  0
    1.0491   -6.8434    2.9820 C   0  0  0  0  0  0  0  0  0  0  0  0
    0.0950   -8.8404    3.2292 C   0  0  0  0  0  0  0  0  0  0  0  0
   -0.9173   -8.4596    2.5152 C   0  0  0  0  0  0  0  0  0  0  0  0
   -1.0331   -7.2162    2.0653 C   0  0  0  0  0  0  0  0  0  0  0  0
   -0.0105   -6.3168    2.3081 C   0  0  0  0  0  0  0  0  0  0  0  0
    0.0485   -4.9783    1.8782 C   0  0  0  0  0  0  0  0  0  0  0  0
    0.9625   -4.1072    2.3252 C   0  0  0  0  0  0  0  0  0  0  0  0
    0.1334  -10.2884    3.6719 C   0  0  0  0  0  0  0  0  0  0  0  0
    1.1796  -10.9472    4.0916 C   0  0  0  0  0  0  0  0  0  0  0  0
    1.0701  -12.3267    4.3460 C   0  0  0  0  0  0  0  0  0  0  0  0
    0.2676  -13.0499    3.5361 C   0  0  0  0  0  0  0  0  0  0  0  0
   -0.7446  -12.4171    2.9966 C   0  0  0  0  0  0  0  0  0  0  0  0
   -0.8733  -11.0644    3.0183 C   0  0  0  0  0  0  0  0  0  0  0  0
   -1.8163  -13.2553    2.6539 C   0  0  0  0  0  0  0  0  0  0  0  0
   -0.2982   -4.6858    0.4946 C   0  0  0  0  0  0  0  0  0  0  0  0
   -0.6286   -3.4519    0.3498 C   0  0  0  0  0  0  0  0  0  0  0  0
  6  7  1  0
  7  8  2  0
  3  9  1  0
 13 15  1  0
  7 16  1  0
 16 17  2  0
  1  2  2  0
  2  6  1  0
  5  6  2  0
  4  5  1  0
  3  4  2  0
  1  3  1  0
  9 10  2  0
 10 11  1  0
 11 12  2  0
 12 13  1  0
 13 14  2  0
  9 14  1  0
M  END

$$$$
No_1821-/export/home/yangzhenyu/potential_scad_32_flow//YTHDC2/2024-12-06-03-22-00/
     RDKit          3D

 19 20  0  0  1  0  0  0  0  0999 V2000
    1.1787   -8.0297    3.5154 C   0  0  0  0  0  0  0  0  0  0  0  0
    1.1048   -9.2215    3.2892 C   0  0  0  0  0  0  0  0  0  0  0  0
    1.2339   -9.7611    2.0189 C   0  0  0  0  0  0  0  0  0  0  0  0
    1.3583   -9.0036    0.9764 C   0  0  0  0  0  0  0  0  0  0  0  0
    1.5996   -7.6362    1.1311 C   0  0  0  0  0  0  0  0  0  0  0  0
    1.4830   -7.0928    2.3626 C   0  0  0  0  0  0  0  0  0  0  0  0
    1.5395   -5.7300    2.6182 C   0  0  0  0  0  0  0  0  0  0  0  0
    1.1775  -11.2233    1.8407 C   0  0  0  0  0  0  0  0  0  0  0  0
    1.9057  -12.1147    2.3397 C   0  0  0  0  0  0  0  0  0  0  0  0
    1.6867  -13.4551    2.0621 C   0  0  0  0  0  0  0  0  0  0  0  0
    0.4766  -13.4790    1.2227 C   0  0  0  0  0  0  0  0  0  0  0  0
    0.3033  -11.9902    1.0862 C   0  0  1  0  0  0  0  0  0  0  0  0
    2.2591  -14.6656    2.4190 C   0  0  0  0  0  0  0  0  0  0  0  0
    1.8926  -15.8613    2.0461 O   0  0  0  0  0  0  0  0  0  0  0  0
    3.2743  -14.6536    3.2689 O   0  0  0  0  0  0  0  0  0  0  0  0
    0.6297   -4.8897    2.7703 O   0  0  0  0  0  0  0  0  0  0  0  0
   -0.7218  -11.4872    0.2888 C   0  0  0  0  0  0  0  0  0  0  0  0
   -1.7442  -10.8548    0.6029 C   0  0  0  0  0  0  0  0  0  0  0  0
   -2.6992  -10.1021   -0.1743 C   0  0  0  0  0  0  0  0  0  0  0  0
  6  7  1  0
  3  8  1  0
  8  9  1  0
  9 10  2  0
 10 11  1  0
  8 12  1  0
 12 11  1  1
 10 13  1  0
 13 14  2  0
 13 15  1  0
  7 16  2  0
 12 17  1  0
 17 18  2  3
 18 19  1  0
  1  2  2  0
  2  3  1  0
  3  4  2  0
  4  5  1  0
  5  6  2  0
  1  6  1  0
M  END

$$$$
No_1822-/export/home/yangzhenyu/potential_scad_32_flow//YTHDC2/2024-12-06-03-22-00/
     RDKit          3D

 17 17  0  0  1  0  0  0  0  0999 V2000
    1.1787   -8.0297    3.5154 C   0  0  0  0  0  0  0  0  0  0  0  0
    1.0491   -6.8434    2.9820 C   0  0  0  0  0  0  0  0  0  0  0  0
    0.0950   -8.8404    3.2292 C   0  0  0  0  0  0  0  0  0  0  0  0
   -0.9173   -8.4596    2.5152 C   0  0  0  0  0  0  0  0  0  0  0  0
   -1.0331   -7.2162    2.0653 C   0  0  0  0  0  0  0  0  0  0  0  0
   -0.0105   -6.3168    2.3081 C   0  0  0  0  0  0  0  0  0  0  0  0
    0.1150   -4.9910    1.8495 C   0  0  0  0  0  0  0  0  0  0  0  0
   -0.5774   -4.1593    2.0596 O   0  0  0  0  0  0  0  0  0  0  0  0
    0.8278   -4.8161    0.6721 O   0  0  0  0  0  0  0  0  0  0  0  0
    0.1883  -10.2848    3.6502 C   0  0  0  0  0  0  0  0  0  0  0  0
    1.2335  -10.8813    4.1109 N   0  0  0  0  0  0  0  0  0  0  0  0
   -1.0003  -10.9151    3.8844 O   0  0  0  0  0  0  0  0  0  0  0  0
    1.3246  -12.2182    4.4591 N   0  0  0  0  0  0  0  0  0  0  0  0
    1.5883  -12.9618    3.1969 C   0  0  2  0  0  0  0  0  0  0  0  0
    1.7186  -12.4663    1.9963 C   0  0  0  0  0  0  0  0  0  0  0  0
    1.4985  -14.3881    3.3776 C   0  0  0  0  0  0  0  0  0  0  0  0
    2.1342  -11.2038    1.7844 C   0  0  0  0  0  0  0  0  0  0  0  0
  6  7  1  0
  7  8  2  0
  7  9  1  0
  3 10  1  0
 10 11  1  0
 10 12  2  0
 11 13  1  0
 13 14  1  0
 14 15  1  0
 14 16  1  6
 15 17  1  0
  1  2  2  0
  2  6  1  0
  5  6  2  0
  4  5  1  0
  3  4  2  0
  1  3  1  0
M  END

$$$$
No_1823-/export/home/yangzhenyu/potential_scad_32_flow//YTHDC2/2024-12-06-03-22-00/
     RDKit          3D

 18 18  0  0  1  0  0  0  0  0999 V2000
    1.1787   -8.0297    3.5154 C   0  0  0  0  0  0  0  0  0  0  0  0
    1.1048   -9.2215    3.2892 C   0  0  0  0  0  0  0  0  0  0  0  0
    1.2339   -9.7611    2.0189 C   0  0  0  0  0  0  0  0  0  0  0  0
    1.1954  -11.2312    1.8661 C   0  0  0  0  0  0  0  0  0  0  0  0
    1.5546  -12.1691    2.7931 C   0  0  0  0  0  0  0  0  0  0  0  0
    0.5849   -7.0929    2.5729 C   0  0  0  0  0  0  0  0  0  0  0  0
    0.5567   -7.6699    1.1955 C   0  0  0  0  0  0  0  0  0  0  0  0
    0.7903   -8.9699    0.9209 C   0  0  0  0  0  0  0  0  0  0  0  0
    1.3158  -12.1333    3.7992 C   0  0  0  0  0  0  0  0  0  0  0  0
    1.8112  -13.5360    2.0884 C   0  0  1  0  0  0  0  0  0  0  0  0
    0.3760   -5.5212    2.6169 C   0  0  0  0  0  0  0  0  0  0  0  0
    1.8786  -13.7475    0.8191 C   0  0  0  0  0  0  0  0  0  0  0  0
    0.6989   -9.4100   -0.3024 C   0  0  0  0  0  0  0  0  0  0  0  0
   -0.3880  -10.1133   -0.7086 O   0  0  0  0  0  0  0  0  0  0  0  0
    1.4318   -8.9369   -1.2715 O   0  0  0  0  0  0  0  0  0  0  0  0
    2.1437  -14.5716    2.8808 C   0  0  0  0  0  0  0  0  0  0  0  0
   -0.8487   -5.1554    2.4433 C   0  0  0  0  0  0  0  0  0  0  0  0
    1.7408  -15.8479    2.3869 C   0  0  0  0  0  0  0  0  0  0  0  0
  3  4  1  0
  4  5  1  0
  5  9  2  0
  5 10  1  0
  6 11  1  0
 10 12  1  6
  8 13  1  0
 13 14  2  0
 13 15  1  0
 10 16  1  0
 11 17  1  0
 16 18  1  0
  1  2  2  0
  2  3  1  0
  3  8  2  0
  7  8  1  0
  6  7  2  0
  1  6  1  0
M  END

$$$$
No_1824-/export/home/yangzhenyu/potential_scad_32_flow//YTHDC2/2024-12-06-03-22-00/
     RDKit          3D

 19 21  0  0  1  0  0  0  0  0999 V2000
    1.1787   -8.0297    3.5154 C   0  0  0  0  0  0  0  0  0  0  0  0
    1.0491   -6.8434    2.9820 C   0  0  0  0  0  0  0  0  0  0  0  0
    0.0950   -8.8404    3.2292 C   0  0  0  0  0  0  0  0  0  0  0  0
   -0.9173   -8.4596    2.5152 C   0  0  0  0  0  0  0  0  0  0  0  0
   -1.0331   -7.2162    2.0653 C   0  0  0  0  0  0  0  0  0  0  0  0
   -0.0105   -6.3168    2.3081 C   0  0  0  0  0  0  0  0  0  0  0  0
    0.1465  -10.2446    3.6981 C   0  0  0  0  0  0  0  0  0  0  0  0
   -1.0337  -10.8619    3.9439 C   0  0  0  0  0  0  0  0  0  0  0  0
   -2.1702  -10.4673    3.2991 C   0  0  0  0  0  0  0  0  0  0  0  0
   -3.3899  -11.1272    3.4065 C   0  0  2  0  0  0  0  0  0  0  0  0
   -2.2169   -9.1945    2.7139 C   0  0  0  0  0  0  0  0  0  0  0  0
   -0.0234   -4.7829    1.7181 C   0  0  0  0  0  0  0  0  0  0  0  0
   -0.9122   -4.0784    2.2380 C   0  0  0  0  0  0  0  0  0  0  0  0
   -4.3263  -10.7217    4.2261 C   0  0  0  0  0  0  0  0  0  0  0  0
   -5.4414  -11.5991    4.5200 C   0  0  0  0  0  0  0  0  0  0  0  0
   -5.4231  -12.7253    4.4949 C   0  0  0  0  0  0  0  0  0  0  0  0
   -4.3913  -13.3981    3.6574 C   0  0  0  0  0  0  0  0  0  0  0  0
   -3.3215  -12.6306    3.2058 C   0  0  0  0  0  0  0  0  0  0  0  0
   -4.3147  -14.7886    3.3746 O   0  0  0  0  0  0  0  0  0  0  0  0
 10  9  1  1
  6 12  1  0
 12 13  1  0
 14 15  1  0
 16 17  1  0
 10 18  1  0
 17 18  1  0
 17 19  2  0
 15 16  1  0
 10 14  1  0
  1  2  2  0
  2  6  1  0
  5  6  2  0
  4  5  1  0
  1  3  1  0
  3  4  2  0
  4 11  1  0
  9 11  2  0
  8  9  1  0
  7  8  2  0
  3  7  1  0
M  END

$$$$
No_1825-/export/home/yangzhenyu/potential_scad_32_flow//YTHDC2/2024-12-06-03-22-00/
     RDKit          3D

 18 18  0  0  1  0  0  0  0  0999 V2000
    1.1787   -8.0297    3.5154 O   0  0  0  0  0  0  0  0  0  0  0  0
    0.9969   -8.9689    3.0048 C   0  0  1  0  0  0  0  0  0  0  0  0
    1.3055  -10.1056    3.6616 C   0  0  0  0  0  0  0  0  0  0  0  0
    2.1315  -10.4529    4.2438 C   0  0  0  0  0  0  0  0  0  0  0  0
   -0.0205   -8.7946    1.9507 C   0  0  0  0  0  0  0  0  0  0  0  0
    0.0572   -9.7213    0.9974 C   0  0  0  0  0  0  0  0  0  0  0  0
   -0.9403  -10.4133    0.7541 C   0  0  0  0  0  0  0  0  0  0  0  0
   -2.2002   -9.9020    1.0810 C   0  0  0  0  0  0  0  0  0  0  0  0
   -2.2136   -8.7313    1.9338 C   0  0  0  0  0  0  0  0  0  0  0  0
   -1.0987   -8.1798    2.3268 C   0  0  0  0  0  0  0  0  0  0  0  0
    1.4328   -9.8985    0.2469 C   0  0  0  0  0  0  0  0  0  0  0  0
    1.7862   -9.0690   -0.6459 O   0  0  0  0  0  0  0  0  0  0  0  0
    2.0925  -10.9160    0.5307 O   0  0  0  0  0  0  0  0  0  0  0  0
    0.1685  -11.2613    3.6828 C   0  0  0  0  0  0  0  0  0  0  0  0
    0.3534  -12.5388    3.7462 C   0  0  0  0  0  0  0  0  0  0  0  0
    1.3451  -13.0857    3.3273 C   0  0  0  0  0  0  0  0  0  0  0  0
    1.2227  -14.6115    3.2305 C   0  0  0  0  0  0  0  0  0  0  0  0
    2.3061  -15.3250    2.6984 C   0  0  0  0  0  0  0  0  0  0  0  0
  2  1  1  1
  2  3  1  0
  3  4  2  0
  2  5  1  0
  6 11  1  0
 11 12  1  0
 11 13  2  0
  3 14  1  0
 14 15  2  3
 15 16  1  0
 16 17  2  3
 17 18  1  0
  5  6  2  0
  6  7  1  0
  7  8  2  0
  8  9  1  0
  9 10  2  0
  5 10  1  0
M  END

$$$$
No_1826-/export/home/yangzhenyu/potential_scad_32_flow//YTHDC2/2024-12-06-03-22-00/
     RDKit          3D

 12 12  0  0  0  0  0  0  0  0999 V2000
    1.1787   -8.0297    3.5154 C   0  0  0  0  0  0  0  0  0  0  0  0
    1.0491   -6.8434    2.9820 C   0  0  0  0  0  0  0  0  0  0  0  0
    0.0950   -8.8404    3.2292 C   0  0  0  0  0  0  0  0  0  0  0  0
   -0.9173   -8.4596    2.5152 C   0  0  0  0  0  0  0  0  0  0  0  0
   -1.0331   -7.2162    2.0653 C   0  0  0  0  0  0  0  0  0  0  0  0
   -0.0105   -6.3168    2.3081 C   0  0  0  0  0  0  0  0  0  0  0  0
    0.1465  -10.2446    3.6981 C   0  0  0  0  0  0  0  0  0  0  0  0
   -1.0337  -10.8619    3.9439 O   0  0  0  0  0  0  0  0  0  0  0  0
    1.1753  -10.7254    4.5024 N   0  0  0  0  0  0  0  0  0  0  0  0
    1.3526  -12.0618    4.6515 O   0  0  0  0  0  0  0  0  0  0  0  0
   -0.0525   -5.0150    1.7803 Cl  0  0  0  0  0  0  0  0  0  0  0  0
   -2.2473   -6.8140    1.5315 Cl  0  0  0  0  0  0  0  0  0  0  0  0
  3  7  1  0
  7  8  2  0
  7  9  1  0
  9 10  2  0
  6 11  1  0
  5 12  1  0
  1  2  2  0
  2  6  1  0
  5  6  2  0
  4  5  1  0
  3  4  2  0
  1  3  1  0
M  END

$$$$
No_1827-/export/home/yangzhenyu/potential_scad_32_flow//YTHDC2/2024-12-06-03-22-00/
     RDKit          3D

 20 21  0  0  0  0  0  0  0  0999 V2000
    1.1787   -8.0297    3.5154 C   0  0  0  0  0  0  0  0  0  0  0  0
    1.1048   -9.2215    3.2892 C   0  0  0  0  0  0  0  0  0  0  0  0
    1.2339   -9.7611    2.0189 C   0  0  0  0  0  0  0  0  0  0  0  0
    1.1954  -11.2312    1.8661 C   0  0  0  0  0  0  0  0  0  0  0  0
    1.5546  -12.1691    2.7931 C   0  0  0  0  0  0  0  0  0  0  0  0
    0.9527   -7.0669    2.3918 C   0  0  0  0  0  0  0  0  0  0  0  0
    1.0618   -7.6392    1.0692 C   0  0  0  0  0  0  0  0  0  0  0  0
    1.2060   -8.9530    0.8578 C   0  0  0  0  0  0  0  0  0  0  0  0
    1.5110  -13.5006    2.3856 C   0  0  0  0  0  0  0  0  0  0  0  0
    1.1461  -13.9087    1.2014 C   0  0  0  0  0  0  0  0  0  0  0  0
    0.9324  -13.0660    0.2177 C   0  0  0  0  0  0  0  0  0  0  0  0
    0.9275  -11.6786    0.5224 C   0  0  0  0  0  0  0  0  0  0  0  0
    1.0094   -5.6129    2.4729 C   0  0  0  0  0  0  0  0  0  0  0  0
    1.7702   -5.1447    3.4223 C   0  0  0  0  0  0  0  0  0  0  0  0
    1.5123   -3.6833    3.5001 N   0  0  0  0  0  0  0  0  0  0  0  0
    0.8609   -4.8616    1.2860 O   0  0  0  0  0  0  0  0  0  0  0  0
    1.9050  -14.4081    3.4365 O   0  0  0  0  0  0  0  0  0  0  0  0
    1.2603  -15.3758    0.8435 Cl  0  0  0  0  0  0  0  0  0  0  0  0
    1.1638   -9.4446   -0.3911 C   0  0  0  0  0  0  0  0  0  0  0  0
    0.9874   -8.5551   -1.4160 N   0  0  0  0  0  0  0  0  0  0  0  0
  3  4  1  0
  6 13  1  0
 13 14  1  0
 14 15  1  0
 13 16  2  0
  9 17  1  0
 10 18  1  0
  8 19  1  0
 19 20  1  0
  1  2  2  0
  2  3  1  0
  3  8  2  0
  7  8  1  0
  6  7  2  0
  1  6  1  0
  4  5  2  0
  5  9  1  0
  9 10  2  0
 10 11  1  0
 11 12  2  0
  4 12  1  0
M  END

$$$$
No_1828-/export/home/yangzhenyu/potential_scad_32_flow//YTHDC2/2024-12-06-03-22-00/
     RDKit          3D

 18 19  0  0  0  0  0  0  0  0999 V2000
    1.1787   -8.0297    3.5154 O   0  0  0  0  0  0  0  0  0  0  0  0
    0.6747   -7.4019    2.7838 C   0  0  0  0  0  0  0  0  0  0  0  0
    0.5570   -6.0797    2.8560 C   0  0  0  0  0  0  0  0  0  0  0  0
   -0.2158   -5.3007    2.0284 C   0  0  0  0  0  0  0  0  0  0  0  0
   -0.8260   -5.9169    1.0290 C   0  0  0  0  0  0  0  0  0  0  0  0
   -0.6925   -7.2407    0.8216 C   0  0  0  0  0  0  0  0  0  0  0  0
    0.1645   -8.0156    1.6621 C   0  0  0  0  0  0  0  0  0  0  0  0
    0.1608   -9.3811    1.6398 C   0  0  0  0  0  0  0  0  0  0  0  0
   -0.5608  -10.1654    2.1843 C   0  0  0  0  0  0  0  0  0  0  0  0
   -0.4047  -11.5887    2.0546 C   0  0  0  0  0  0  0  0  0  0  0  0
    0.6758  -12.0619    1.1824 C   0  0  0  0  0  0  0  0  0  0  0  0
    1.5252  -11.1535    0.5407 C   0  0  0  0  0  0  0  0  0  0  0  0
    1.4432   -9.8460    0.7777 C   0  0  0  0  0  0  0  0  0  0  0  0
    2.1844   -8.9934   -0.0508 C   0  0  0  0  0  0  0  0  0  0  0  0
    0.8206  -13.4815    1.0938 C   0  0  0  0  0  0  0  0  0  0  0  0
    0.2866  -14.0956    0.2255 O   0  0  0  0  0  0  0  0  0  0  0  0
    1.8034  -14.1559    1.8473 C   0  0  0  0  0  0  0  0  0  0  0  0
    2.0747   -8.2835   -0.8155 O   0  0  0  0  0  0  0  0  0  0  0  0
  1  2  1  0
  7  8  1  0
 13 14  1  0
 11 15  1  0
 15 16  2  0
 15 17  1  0
 14 18  2  0
  2  3  2  0
  3  4  1  0
  4  5  2  0
  5  6  1  0
  6  7  2  0
  2  7  1  0
  8  9  2  0
  9 10  1  0
 10 11  2  0
 11 12  1  0
 12 13  2  0
  8 13  1  0
M  END

$$$$
No_1829-/export/home/yangzhenyu/potential_scad_32_flow//YTHDC2/2024-12-06-03-22-00/
     RDKit          3D

 19 20  0  0  0  0  0  0  0  0999 V2000
    1.1787   -8.0297    3.5154 C   0  0  0  0  0  0  0  0  0  0  0  0
    1.0491   -6.8434    2.9820 C   0  0  0  0  0  0  0  0  0  0  0  0
    0.9905   -9.0774    2.6527 C   0  0  0  0  0  0  0  0  0  0  0  0
    0.7897   -8.9519    1.3691 C   0  0  0  0  0  0  0  0  0  0  0  0
    0.7018   -7.7198    0.7892 I   0  0  0  0  0  0  0  0  0  0  0  0
    1.1550  -10.4463    3.4140 C   0  0  0  0  0  0  0  0  0  0  0  0
    0.8242  -11.5798    2.8937 C   0  0  0  0  0  0  0  0  0  0  0  0
    1.0038  -12.8357    3.5579 C   0  0  0  0  0  0  0  0  0  0  0  0
    1.3670  -13.9049    2.7519 C   0  0  0  0  0  0  0  0  0  0  0  0
    1.3973  -13.9310    1.4488 C   0  0  0  0  0  0  0  0  0  0  0  0
    1.3688  -12.7115    0.7899 C   0  0  0  0  0  0  0  0  0  0  0  0
    1.0508  -11.5716    1.4933 C   0  0  0  0  0  0  0  0  0  0  0  0
    0.8580  -10.4242    0.6855 C   0  0  0  0  0  0  0  0  0  0  0  0
    0.1667   -6.0100    3.0508 N   0  0  0  0  0  0  0  0  0  0  0  0
    0.1720   -4.6848    2.7470 C   0  0  0  0  0  0  0  0  0  0  0  0
    1.4864   -4.1145    2.5058 O   0  0  0  0  0  0  0  0  0  0  0  0
   -0.8242   -3.8280    2.5931 N   0  0  0  0  0  0  0  0  0  0  0  0
    1.4277  -15.2526    3.4741 O   0  0  0  0  0  0  0  0  0  0  0  0
    0.9986  -16.3114    2.9709 C   0  0  0  0  0  0  0  0  0  0  0  0
  1  2  1  0
  4  5  1  0
  2 14  2  3
 14 15  1  0
 15 16  2  0
 15 17  1  0
  9 18  1  0
 18 19  1  0
  1  3  1  0
  3  4  2  0
  4 13  1  0
 12 13  2  0
  6  7  2  0
  3  6  1  0
  7  8  1  0
  8  9  2  0
  9 10  1  0
 10 11  2  0
 11 12  1  0
  7 12  1  0
M  END

$$$$
No_1830-/export/home/yangzhenyu/potential_scad_32_flow//YTHDC2/2024-12-06-03-22-00/
     RDKit          3D

 17 18  0  0  0  0  0  0  0  0999 V2000
    1.1787   -8.0297    3.5154 C   0  0  0  0  0  0  0  0  0  0  0  0
    1.1048   -9.2215    3.2892 C   0  0  0  0  0  0  0  0  0  0  0  0
    1.3627  -10.1721    4.3044 C   0  0  0  0  0  0  0  0  0  0  0  0
    1.0682  -11.5187    4.0618 C   0  0  0  0  0  0  0  0  0  0  0  0
    0.6332  -11.9655    2.9682 C   0  0  0  0  0  0  0  0  0  0  0  0
    0.4776  -11.1308    1.9203 C   0  0  0  0  0  0  0  0  0  0  0  0
    0.7470   -9.8274    2.0368 C   0  0  0  0  0  0  0  0  0  0  0  0
    0.5535   -7.1314    2.6861 C   0  0  0  0  0  0  0  0  0  0  0  0
    0.2950   -7.6000    1.3275 C   0  0  0  0  0  0  0  0  0  0  0  0
    0.2693   -8.8631    1.0973 C   0  0  0  0  0  0  0  0  0  0  0  0
   -0.0513   -6.7125    0.4242 O   0  0  0  0  0  0  0  0  0  0  0  0
    0.4918  -13.3974    2.7285 N   0  0  0  0  0  0  0  0  0  0  0  0
    1.4291  -14.2937    2.9841 C   0  0  0  0  0  0  0  0  0  0  0  0
    1.5667  -15.4039    2.1028 C   0  0  0  0  0  0  0  0  0  0  0  0
    1.1503  -15.2116    0.9557 C   0  0  0  0  0  0  0  0  0  0  0  0
    1.1285  -16.2999    0.1292 C   0  0  0  0  0  0  0  0  0  0  0  0
    1.7134  -17.4664    0.9599 C   0  0  0  0  0  0  0  0  0  0  0  0
  1  2  1  0
  8  9  1  0
  7 10  1  0
  9 10  1  0
  9 11  2  0
  5 12  1  0
 12 13  1  0
 13 14  1  0
 14 15  1  0
 15 16  2  3
 16 17  1  0
  1  8  1  0
  2  3  2  0
  3  4  1  0
  4  5  2  0
  5  6  1  0
  6  7  2  0
  2  7  1  0
M  END

$$$$
No_1831-/export/home/yangzhenyu/potential_scad_32_flow//YTHDC2/2024-12-06-03-22-00/
     RDKit          3D

 18 20  0  0  0  0  0  0  0  0999 V2000
    1.1787   -8.0297    3.5154 C   0  0  0  0  0  0  0  0  0  0  0  0
    1.1048   -9.2215    3.2892 C   0  0  0  0  0  0  0  0  0  0  0  0
    1.3627  -10.1721    4.3044 C   0  0  0  0  0  0  0  0  0  0  0  0
    1.0682  -11.5187    4.0618 C   0  0  0  0  0  0  0  0  0  0  0  0
    0.6332  -11.9655    2.9682 C   0  0  0  0  0  0  0  0  0  0  0  0
    0.4776  -11.1308    1.9203 C   0  0  0  0  0  0  0  0  0  0  0  0
    0.7470   -9.8274    2.0368 C   0  0  0  0  0  0  0  0  0  0  0  0
    1.0387   -7.0301    2.5175 C   0  0  0  0  0  0  0  0  0  0  0  0
    0.9130   -7.5288    1.2013 C   0  0  0  0  0  0  0  0  0  0  0  0
    0.7893   -8.7980    0.9542 C   0  0  0  0  0  0  0  0  0  0  0  0
    0.0580   -9.1928   -0.1607 C   0  0  0  0  0  0  0  0  0  0  0  0
    0.5404   -9.2875   -1.3724 C   0  0  0  0  0  0  0  0  0  0  0  0
    1.8941   -9.2772   -1.4768 C   0  0  0  0  0  0  0  0  0  0  0  0
    2.7493   -8.9724   -0.4136 C   0  0  0  0  0  0  0  0  0  0  0  0
    2.2194   -8.7192    0.7231 C   0  0  0  0  0  0  0  0  0  0  0  0
    0.4757  -13.3644    2.6935 C   0  0  0  0  0  0  0  0  0  0  0  0
   -0.6384  -13.8220    2.4151 C   0  0  0  0  0  0  0  0  0  0  0  0
   -1.7639  -13.2305    2.3134 C   0  0  0  0  0  0  0  0  0  0  0  0
  1  2  1  0
  8  9  1  0
  7 10  1  0
  9 10  1  0
 10 11  1  0
 11 12  1  0
 13 14  1  0
 10 15  1  0
 14 15  1  0
  5 16  1  0
 16 17  1  0
 17 18  2  0
 12 13  1  0
  1  8  1  0
  2  3  2  0
  3  4  1  0
  4  5  2  0
  5  6  1  0
  6  7  2  0
  2  7  1  0
M  END

$$$$
No_1832-/export/home/yangzhenyu/potential_scad_32_flow//YTHDC2/2024-12-06-03-22-00/
     RDKit          3D

 19 19  0  0  0  0  0  0  0  0999 V2000
    1.1787   -8.0297    3.5154 C   0  0  0  0  0  0  0  0  0  0  0  0
    1.0491   -6.8434    2.9820 C   0  0  0  0  0  0  0  0  0  0  0  0
    0.9905   -9.0774    2.6527 C   0  0  0  0  0  0  0  0  0  0  0  0
    0.7897   -8.9519    1.3691 C   0  0  0  0  0  0  0  0  0  0  0  0
    0.7018   -7.7198    0.7892 C   0  0  0  0  0  0  0  0  0  0  0  0
    0.8918   -6.5957    1.6117 C   0  0  0  0  0  0  0  0  0  0  0  0
    1.0998  -10.4710    3.2437 C   0  0  0  0  0  0  0  0  0  0  0  0
    1.3102  -11.5554    2.5214 C   0  0  0  0  0  0  0  0  0  0  0  0
    1.4257  -12.8124    3.1919 C   0  0  0  0  0  0  0  0  0  0  0  0
    1.4301  -14.0627    2.4374 C   0  0  0  0  0  0  0  0  0  0  0  0
    0.8799   -5.2656    1.2046 C   0  0  0  0  0  0  0  0  0  0  0  0
    2.4117  -14.2020    1.4705 N   0  0  0  0  0  0  0  0  0  0  0  0
    1.5724  -15.2813    3.3348 O   0  0  0  0  0  0  0  0  0  0  0  0
   -0.1974   -4.7734    0.7106 O   0  0  0  0  0  0  0  0  0  0  0  0
    1.7494   -4.3367    1.6687 O   0  0  0  0  0  0  0  0  0  0  0  0
    0.5887   -9.9886    0.3940 C   0  0  0  0  0  0  0  0  0  0  0  0
    0.2278   -9.9457   -0.7446 C   0  0  0  0  0  0  0  0  0  0  0  0
   -1.0115  -10.4933   -1.0373 C   0  0  0  0  0  0  0  0  0  0  0  0
   -1.7061  -10.3032   -2.1639 C   0  0  0  0  0  0  0  0  0  0  0  0
  3  7  1  0
  7  8  2  3
  8  9  1  0
  9 10  1  0
  6 11  1  0
 10 12  1  0
 10 13  2  0
 11 14  2  0
 11 15  1  0
  4 16  1  0
 16 17  1  0
 17 18  1  0
 18 19  2  0
  1  2  2  0
  2  6  1  0
  5  6  2  0
  4  5  1  0
  3  4  2  0
  1  3  1  0
M  END

$$$$
No_1833-/export/home/yangzhenyu/potential_scad_32_flow//YTHDC2/2024-12-06-03-22-00/
     RDKit          3D

 18 19  0  0  1  0  0  0  0  0999 V2000
    1.1787   -8.0297    3.5154 C   0  0  0  0  0  0  0  0  0  0  0  0
    1.1048   -9.2215    3.2892 C   0  0  0  0  0  0  0  0  0  0  0  0
    1.2339   -9.7611    2.0189 C   0  0  0  0  0  0  0  0  0  0  0  0
    1.3583   -9.0036    0.9764 C   0  0  0  0  0  0  0  0  0  0  0  0
    1.5996   -7.6362    1.1311 C   0  0  0  0  0  0  0  0  0  0  0  0
    1.4830   -7.0928    2.3626 C   0  0  0  0  0  0  0  0  0  0  0  0
    1.5395   -5.7300    2.6182 C   0  0  0  0  0  0  0  0  0  0  0  0
    1.1775  -11.2233    1.8407 C   0  0  1  0  0  0  0  0  0  0  0  0
    0.7252  -11.5870    0.5412 C   0  0  0  0  0  0  0  0  0  0  0  0
    0.5994  -13.0100    0.4511 N   0  0  0  0  0  0  0  0  0  0  0  0
    1.6691  -11.9784    2.7614 C   0  0  0  0  0  0  0  0  0  0  0  0
    1.5208  -13.4053    2.5673 C   0  0  0  0  0  0  0  0  0  0  0  0
    1.0480  -13.9001    1.3804 C   0  0  0  0  0  0  0  0  0  0  0  0
    2.1817  -11.5937    3.9258 O   0  0  0  0  0  0  0  0  0  0  0  0
    1.3172   -4.7940    1.6548 I   0  0  0  0  0  0  0  0  0  0  0  0
    1.0008  -15.1947    1.1162 C   0  0  0  0  0  0  0  0  0  0  0  0
    0.1994  -15.9510    1.7035 C   0  0  0  0  0  0  0  0  0  0  0  0
   -1.0348  -15.6332    1.7853 N   0  0  0  0  0  0  0  0  0  0  0  0
  6  7  1  0
  8  3  1  6
  8  9  1  0
  8 11  1  0
 11 12  1  0
 10 13  1  0
 11 14  2  0
  7 15  1  0
 13 16  1  0
 16 17  1  0
 17 18  1  0
  9 10  1  0
 12 13  1  0
  1  2  2  0
  2  3  1  0
  3  4  2  0
  4  5  1  0
  5  6  2  0
  1  6  1  0
M  END

$$$$
No_1834-/export/home/yangzhenyu/potential_scad_32_flow//YTHDC2/2024-12-06-03-22-00/
     RDKit          3D

 17 19  0  0  0  0  0  0  0  0999 V2000
    1.1787   -8.0297    3.5154 C   0  0  0  0  0  0  0  0  0  0  0  0
    1.1048   -9.2215    3.2892 C   0  0  0  0  0  0  0  0  0  0  0  0
    1.3627  -10.1721    4.3044 C   0  0  0  0  0  0  0  0  0  0  0  0
    1.0682  -11.5187    4.0618 C   0  0  0  0  0  0  0  0  0  0  0  0
    0.6332  -11.9655    2.9682 C   0  0  0  0  0  0  0  0  0  0  0  0
    0.4776  -11.1308    1.9203 C   0  0  0  0  0  0  0  0  0  0  0  0
    0.7470   -9.8274    2.0368 C   0  0  0  0  0  0  0  0  0  0  0  0
    0.5535   -7.1314    2.6861 C   0  0  0  0  0  0  0  0  0  0  0  0
    0.2950   -7.6000    1.3275 C   0  0  0  0  0  0  0  0  0  0  0  0
    0.2693   -8.8631    1.0973 C   0  0  0  0  0  0  0  0  0  0  0  0
   -0.0513   -6.7125    0.4242 O   0  0  0  0  0  0  0  0  0  0  0  0
    0.4771  -13.6210    2.7225 C   0  0  0  0  0  0  0  0  0  0  0  0
    1.5326  -14.3823    3.1596 C   0  0  0  0  0  0  0  0  0  0  0  0
    1.2517  -15.7394    3.0021 C   0  0  0  0  0  0  0  0  0  0  0  0
    0.2305  -16.2129    2.5139 C   0  0  0  0  0  0  0  0  0  0  0  0
   -0.7094  -15.3840    1.9307 C   0  0  0  0  0  0  0  0  0  0  0  0
   -0.5253  -14.0406    2.1088 C   0  0  0  0  0  0  0  0  0  0  0  0
  1  2  1  0
  8  9  1  0
  7 10  1  0
  9 10  1  0
  9 11  2  0
  5 12  1  0
  1  8  1  0
 12 13  2  0
 13 14  1  0
 14 15  2  0
 15 16  1  0
 16 17  2  0
 12 17  1  0
  2  3  2  0
  3  4  1  0
  4  5  2  0
  5  6  1  0
  6  7  2  0
  2  7  1  0
M  END

$$$$
No_1835-/export/home/yangzhenyu/potential_scad_32_flow//YTHDC2/2024-12-06-03-22-00/
     RDKit          3D

 19 21  0  0  0  0  0  0  0  0999 V2000
    1.1787   -8.0297    3.5154 C   0  0  0  0  0  0  0  0  0  0  0  0
    1.0491   -6.8434    2.9820 C   0  0  0  0  0  0  0  0  0  0  0  0
    0.9905   -9.0774    2.6527 C   0  0  0  0  0  0  0  0  0  0  0  0
    0.7897   -8.9519    1.3691 C   0  0  0  0  0  0  0  0  0  0  0  0
    0.7018   -7.7198    0.7892 C   0  0  0  0  0  0  0  0  0  0  0  0
    0.8918   -6.5957    1.6117 C   0  0  0  0  0  0  0  0  0  0  0  0
    1.0711  -10.4814    3.2282 C   0  0  0  0  0  0  0  0  0  0  0  0
   -0.1055  -11.1328    3.5223 C   0  0  0  0  0  0  0  0  0  0  0  0
   -0.1824  -12.4513    3.3816 N   0  0  0  0  0  0  0  0  0  0  0  0
    0.9364  -13.1235    3.1787 C   0  0  0  0  0  0  0  0  0  0  0  0
    2.1736  -12.5827    2.9471 C   0  0  0  0  0  0  0  0  0  0  0  0
    2.1936  -11.2231    2.8429 C   0  0  0  0  0  0  0  0  0  0  0  0
    0.8680  -14.5888    3.2836 C   0  0  0  0  0  0  0  0  0  0  0  0
    2.0473  -15.3727    2.8823 C   0  0  0  0  0  0  0  0  0  0  0  0
    1.9770  -16.7436    2.9048 C   0  0  0  0  0  0  0  0  0  0  0  0
    1.1641  -17.5323    3.6091 C   0  0  0  0  0  0  0  0  0  0  0  0
    0.0833  -16.9115    4.0516 C   0  0  0  0  0  0  0  0  0  0  0  0
   -0.1036  -15.5103    3.8938 C   0  0  0  0  0  0  0  0  0  0  0  0
    0.8581   -5.2754    1.1232 C   0  0  0  0  0  0  0  0  0  0  0  0
  3  7  1  0
 10 13  1  0
  6 19  1  0
 13 14  2  0
 14 15  1  0
 15 16  2  0
 16 17  1  0
 17 18  2  0
 13 18  1  0
  1  2  2  0
  2  6  1  0
  5  6  2  0
  4  5  1  0
  3  4  2  0
  1  3  1  0
  7  8  2  0
  8  9  1  0
  9 10  2  0
 10 11  1  0
 11 12  2  0
  7 12  1  0
M  END

$$$$
No_1836-/export/home/yangzhenyu/potential_scad_32_flow//YTHDC2/2024-12-06-03-22-00/
     RDKit          3D

 20 21  0  0  1  0  0  0  0  0999 V2000
    1.1787   -8.0297    3.5154 C   0  0  0  0  0  0  0  0  0  0  0  0
    1.0491   -6.8434    2.9820 C   0  0  0  0  0  0  0  0  0  0  0  0
    1.9985   -8.9840    2.8958 C   0  0  1  0  0  0  0  0  0  0  0  0
    1.9135  -10.3404    3.6266 C   0  0  0  0  0  0  0  0  0  0  0  0
    1.3291  -11.3908    3.0222 C   0  0  0  0  0  0  0  0  0  0  0  0
    1.2749  -12.5326    3.7562 C   0  0  0  0  0  0  0  0  0  0  0  0
    0.4248   -6.6481    1.7861 C   0  0  0  0  0  0  0  0  0  0  0  0
    0.4186   -7.4786    1.0077 C   0  0  0  0  0  0  0  0  0  0  0  0
    0.7923  -13.6634    3.1270 C   0  0  0  0  0  0  0  0  0  0  0  0
    0.4633  -13.6746    1.8523 C   0  0  0  0  0  0  0  0  0  0  0  0
    0.1766  -14.8907    1.1721 C   0  0  0  0  0  0  0  0  0  0  0  0
    0.7854  -16.0346    1.5607 C   0  0  0  0  0  0  0  0  0  0  0  0
    0.5211  -17.1510    0.7583 C   0  0  0  0  0  0  0  0  0  0  0  0
   -0.3643  -17.1644   -0.1608 C   0  0  0  0  0  0  0  0  0  0  0  0
   -0.9846  -16.0049   -0.5248 C   0  0  0  0  0  0  0  0  0  0  0  0
   -0.7407  -14.8290    0.1088 C   0  0  0  0  0  0  0  0  0  0  0  0
    1.0718   -8.8701    1.4422 C   0  0  0  0  0  0  0  0  0  0  0  0
    0.0314   -7.7175   -0.2051 C   0  0  0  0  0  0  0  0  0  0  0  0
   -1.1433   -7.1253   -0.5379 N   0  0  0  0  0  0  0  0  0  0  0  0
    0.5248   -8.4058   -1.2179 O   0  0  0  0  0  0  0  0  0  0  0  0
  1  2  1  0
  1  3  1  0
  3  4  1  1
  4  5  1  0
  5  6  1  0
  2  7  1  0
  7  8  1  0
  6  9  2  3
  9 10  1  0
 10 11  1  0
  3 17  1  0
  8 17  1  0
  8 18  1  0
 18 19  1  0
 18 20  2  0
 11 12  2  0
 12 13  1  0
 13 14  2  0
 14 15  1  0
 15 16  2  0
 11 16  1  0
M  END

$$$$
No_1837-/export/home/yangzhenyu/potential_scad_32_flow//YTHDC2/2024-12-06-03-22-00/
     RDKit          3D

 18 18  0  0  1  0  0  0  0  0999 V2000
    1.1787   -8.0297    3.5154 O   0  0  0  0  0  0  0  0  0  0  0  0
    0.6747   -7.4019    2.7838 C   0  0  0  0  0  0  0  0  0  0  0  0
    0.7594   -8.0032    1.4295 C   0  0  0  0  0  0  0  0  0  0  0  0
    1.4743   -7.4398    0.6034 O   0  0  0  0  0  0  0  0  0  0  0  0
   -0.0209   -9.0047    1.2338 C   0  0  1  0  0  0  0  0  0  0  0  0
   -0.8201   -9.5103    1.8988 N   0  0  0  0  0  0  0  0  0  0  0  0
   -0.7478  -10.5860    2.5640 C   0  0  0  0  0  0  0  0  0  0  0  0
    0.3862  -11.1903    2.7192 C   0  0  0  0  0  0  0  0  0  0  0  0
    0.5602  -12.5391    2.7314 C   0  0  0  0  0  0  0  0  0  0  0  0
   -0.6706  -13.2690    3.0998 C   0  0  0  0  0  0  0  0  0  0  0  0
   -1.8515  -12.6716    3.1124 C   0  0  0  0  0  0  0  0  0  0  0  0
   -1.9262  -11.2258    2.9869 C   0  0  0  0  0  0  0  0  0  0  0  0
   -0.0606   -9.4715   -0.1507 C   0  0  0  0  0  0  0  0  0  0  0  0
    0.7766   -9.4806   -0.9903 C   0  0  0  0  0  0  0  0  0  0  0  0
    2.0677   -9.7198   -0.6859 O   0  0  0  0  0  0  0  0  0  0  0  0
    0.6650   -9.0964   -2.2544 O   0  0  0  0  0  0  0  0  0  0  0  0
    1.9688  -13.3234    2.7627 C   0  0  0  0  0  0  0  0  0  0  0  0
    1.8080  -14.6936    2.0727 C   0  0  0  0  0  0  0  0  0  0  0  0
  1  2  1  0
  2  3  1  0
  3  4  2  0
  3  5  1  0
  5  6  1  0
  6  7  1  0
  5 13  1  6
 13 14  1  0
 14 15  1  0
 14 16  2  0
  9 17  1  0
 17 18  1  0
  7  8  2  0
  8  9  1  0
  9 10  2  0
 10 11  1  0
 11 12  2  0
  7 12  1  0
M  END

$$$$
No_1838-/export/home/yangzhenyu/potential_scad_32_flow//YTHDC2/2024-12-06-03-22-00/
     RDKit          3D

 17 17  0  0  1  0  0  0  0  0999 V2000
    1.1787   -8.0297    3.5154 C   0  0  0  0  0  0  0  0  0  0  0  0
    1.0491   -6.8434    2.9820 C   0  0  0  0  0  0  0  0  0  0  0  0
    1.9985   -8.9840    2.8958 C   0  0  0  0  0  0  0  0  0  0  0  0
    1.1814  -10.1889    2.5497 C   0  0  0  0  0  0  0  0  0  0  0  0
    0.9817  -11.1388    2.8133 C   0  0  1  0  0  0  0  0  0  0  0  0
    1.6854  -11.5768    4.1035 C   0  0  0  0  0  0  0  0  0  0  0  0
    1.8112   -5.8026    3.2097 O   0  0  0  0  0  0  0  0  0  0  0  0
    0.3163   -6.6991    1.8469 O   0  0  0  0  0  0  0  0  0  0  0  0
   -0.4261  -11.4237    3.2496 C   0  0  0  0  0  0  0  0  0  0  0  0
   -1.0178  -12.4902    2.6753 C   0  0  0  0  0  0  0  0  0  0  0  0
   -2.3796  -12.6573    2.7112 O   0  0  0  0  0  0  0  0  0  0  0  0
   -0.3385  -13.6333    2.3225 N   0  0  0  0  0  0  0  0  0  0  0  0
    1.0535  -13.7287    2.3544 C   0  0  2  0  0  0  0  0  0  0  0  0
    1.7614  -12.5371    2.2052 C   0  0  0  0  0  0  0  0  0  0  0  0
    1.5901  -14.8467    1.5606 C   0  0  0  0  0  0  0  0  0  0  0  0
    0.7944  -15.5419    0.8696 C   0  0  0  0  0  0  0  0  0  0  0  0
    2.8524  -15.5299    2.0551 C   0  0  0  0  0  0  0  0  0  0  0  0
  1  2  1  0
  1  3  1  0
  3  4  1  0
  4  5  1  0
  5  6  1  1
  2  7  1  0
  2  8  2  0
  5  9  1  0
  9 10  1  0
 10 11  2  0
 10 12  1  0
 12 13  1  0
  5 14  1  0
 13 14  1  0
 13 15  1  6
 15 16  2  0
 15 17  1  0
M  END

$$$$
No_1839-/export/home/yangzhenyu/potential_scad_32_flow//YTHDC2/2024-12-06-03-22-00/
     RDKit          3D

 17 18  0  0  0  0  0  0  0  0999 V2000
    1.1787   -8.0297    3.5154 C   0  0  0  0  0  0  0  0  0  0  0  0
    1.1048   -9.2215    3.2892 C   0  0  0  0  0  0  0  0  0  0  0  0
    1.2339   -9.7611    2.0189 C   0  0  0  0  0  0  0  0  0  0  0  0
    1.3583   -9.0036    0.9764 C   0  0  0  0  0  0  0  0  0  0  0  0
    1.5996   -7.6362    1.1311 C   0  0  0  0  0  0  0  0  0  0  0  0
    1.4830   -7.0928    2.3626 C   0  0  0  0  0  0  0  0  0  0  0  0
    1.5395   -5.7300    2.6182 C   0  0  0  0  0  0  0  0  0  0  0  0
    1.1969  -11.3760    1.8433 C   0  0  0  0  0  0  0  0  0  0  0  0
    1.0771  -11.6644    0.5388 N   0  0  0  0  0  0  0  0  0  0  0  0
    1.0709  -12.1502    2.7666 C   0  0  0  0  0  0  0  0  0  0  0  0
    1.2605  -11.9977    4.0228 C   0  0  0  0  0  0  0  0  0  0  0  0
    1.1009  -13.4867    2.2760 C   0  0  0  0  0  0  0  0  0  0  0  0
    1.0094  -13.8694    1.0839 N   0  0  0  0  0  0  0  0  0  0  0  0
    0.9549  -12.8292    0.1271 C   0  0  0  0  0  0  0  0  0  0  0  0
    1.1055  -14.4956    3.3305 C   0  0  0  0  0  0  0  0  0  0  0  0
    1.0144  -15.9343    2.8432 C   0  0  0  0  0  0  0  0  0  0  0  0
    2.1499  -16.4934    2.5321 C   0  0  0  0  0  0  0  0  0  0  0  0
  6  7  1  0
  3  8  1  0
 12 15  1  0
 15 16  1  0
 16 17  1  0
 10 11  1  0
  1  2  2  0
  2  3  1  0
  3  4  2  0
  4  5  1  0
  5  6  2  0
  1  6  1  0
  8  9  2  0
  9 14  1  0
 13 14  2  0
 12 13  1  0
 10 12  2  0
  8 10  1  0
M  END

$$$$
No_1840-/export/home/yangzhenyu/potential_scad_32_flow//YTHDC2/2024-12-06-03-22-00/
     RDKit          3D

 19 20  0  0  1  0  0  0  0  0999 V2000
    1.1787   -8.0297    3.5154 C   0  0  0  0  0  0  0  0  0  0  0  0
    1.1048   -9.2215    3.2892 C   0  0  0  0  0  0  0  0  0  0  0  0
    1.3627  -10.1721    4.3044 C   0  0  0  0  0  0  0  0  0  0  0  0
    1.7354  -11.4730    3.9023 C   0  0  0  0  0  0  0  0  0  0  0  0
    1.8080  -11.8127    2.7216 C   0  0  0  0  0  0  0  0  0  0  0  0
    1.5854  -11.0021    1.7249 C   0  0  0  0  0  0  0  0  0  0  0  0
    1.3573   -9.7389    1.9287 C   0  0  0  0  0  0  0  0  0  0  0  0
    1.2865   -8.8078    0.9161 C   0  0  2  0  0  0  0  0  0  0  0  0
    0.9210   -7.5140    1.1674 C   0  0  0  0  0  0  0  0  0  0  0  0
    1.0097   -7.0192    2.4369 C   0  0  0  0  0  0  0  0  0  0  0  0
    0.8553   -5.6437    2.6966 O   0  0  0  0  0  0  0  0  0  0  0  0
    2.0820  -13.4698    2.3847 O   0  0  0  0  0  0  0  0  0  0  0  0
    1.3808   -9.2024   -0.3955 N   0  0  0  0  0  0  0  0  0  0  0  0
    1.3946  -13.9168    1.3611 C   0  0  0  0  0  0  0  0  0  0  0  0
    0.6771  -14.9950    1.8366 C   0  0  0  0  0  0  0  0  0  0  0  0
    1.4288  -15.9351    2.4865 C   0  0  0  0  0  0  0  0  0  0  0  0
    1.2872  -17.0485    2.4905 C   0  0  0  0  0  0  0  0  0  0  0  0
    0.3821  -17.6995    1.6051 C   0  0  0  0  0  0  0  0  0  0  0  0
   -0.3623  -16.9604    0.8359 C   0  0  0  0  0  0  0  0  0  0  0  0
  1  2  1  0
  7  8  1  0
  1 10  1  0
  9 10  1  0
 10 11  2  0
  5 12  1  0
  8 13  1  6
 12 14  1  0
 14 15  1  0
 15 16  1  0
 16 17  2  3
 17 18  1  0
 18 19  2  0
  8  9  1  0
  2  3  2  0
  3  4  1  0
  4  5  2  0
  5  6  1  0
  6  7  2  0
  2  7  1  0
M  END

$$$$
No_1841-/export/home/yangzhenyu/potential_scad_32_flow//YTHDC2/2024-12-06-03-22-00/
     RDKit          3D

 18 18  0  0  1  0  0  0  0  0999 V2000
    1.1787   -8.0297    3.5154 C   0  0  0  0  0  0  0  0  0  0  0  0
    1.1048   -9.2215    3.2892 C   0  0  0  0  0  0  0  0  0  0  0  0
    1.2339   -9.7611    2.0189 C   0  0  0  0  0  0  0  0  0  0  0  0
    1.3583   -9.0036    0.9764 C   0  0  0  0  0  0  0  0  0  0  0  0
    1.5996   -7.6362    1.1311 C   0  0  0  0  0  0  0  0  0  0  0  0
    1.4830   -7.0928    2.3626 C   0  0  0  0  0  0  0  0  0  0  0  0
    1.4898   -5.7274    2.6199 C   0  0  0  0  0  0  0  0  0  0  0  0
    1.1882  -11.3736    1.8424 C   0  0  0  0  0  0  0  0  0  0  0  0
    0.2883  -11.9819    2.0702 C   0  0  2  0  0  0  0  0  0  0  0  0
    0.4271  -13.3696    2.3969 C   0  0  0  0  0  0  0  0  0  0  0  0
    0.8267  -14.1177    1.6788 C   0  0  0  0  0  0  0  0  0  0  0  0
    1.0164  -13.7462    0.2915 C   0  0  0  0  0  0  0  0  0  0  0  0
   -1.1198  -11.5972    2.0182 C   0  0  0  0  0  0  0  0  0  0  0  0
   -2.1084  -12.0175    2.7154 O   0  0  0  0  0  0  0  0  0  0  0  0
   -1.4558  -10.8431    0.8785 O   0  0  0  0  0  0  0  0  0  0  0  0
    1.2372   -4.8741    1.6116 O   0  0  0  0  0  0  0  0  0  0  0  0
    1.7628   -5.1480    3.7912 N   0  0  0  0  0  0  0  0  0  0  0  0
    1.0664  -15.6148    1.8938 C   0  0  0  0  0  0  0  0  0  0  0  0
  6  7  1  0
  3  8  1  0
  9  8  1  6
  9 10  1  0
 10 11  2  3
 11 12  1  0
  9 13  1  0
 13 14  2  0
 13 15  1  0
  7 16  2  0
  7 17  1  0
 11 18  1  0
  1  2  2  0
  2  3  1  0
  3  4  2  0
  4  5  1  0
  5  6  2  0
  1  6  1  0
M  END

$$$$
No_1842-/export/home/yangzhenyu/potential_scad_32_flow//YTHDC2/2024-12-06-03-22-00/
     RDKit          3D

 17 17  0  0  0  0  0  0  0  0999 V2000
    1.1787   -8.0297    3.5154 C   0  0  0  0  0  0  0  0  0  0  0  0
    1.1048   -9.2215    3.2892 C   0  0  0  0  0  0  0  0  0  0  0  0
    1.2339   -9.7611    2.0189 C   0  0  0  0  0  0  0  0  0  0  0  0
    1.3583   -9.0036    0.9764 C   0  0  0  0  0  0  0  0  0  0  0  0
    1.5996   -7.6362    1.1311 C   0  0  0  0  0  0  0  0  0  0  0  0
    1.4830   -7.0928    2.3626 C   0  0  0  0  0  0  0  0  0  0  0  0
    1.1008  -11.2372    1.8542 C   0  0  0  0  0  0  0  0  0  0  0  0
    0.4812  -11.6084    0.6459 O   0  0  0  0  0  0  0  0  0  0  0  0
    1.6571  -12.0577    2.5947 O   0  0  0  0  0  0  0  0  0  0  0  0
    1.5438   -5.6505    2.6487 Cl  0  0  0  0  0  0  0  0  0  0  0  0
    1.5501   -9.4490   -0.3569 C   0  0  0  0  0  0  0  0  0  0  0  0
    2.6342   -9.8923   -0.7626 O   0  0  0  0  0  0  0  0  0  0  0  0
    0.5450   -9.2215   -1.1510 O   0  0  0  0  0  0  0  0  0  0  0  0
    0.8758  -10.1383    4.4419 Cl  0  0  0  0  0  0  0  0  0  0  0  0
   -0.1378  -12.8891    0.7725 C   0  0  0  0  0  0  0  0  0  0  0  0
    0.1555  -13.9222    0.1262 C   0  0  0  0  0  0  0  0  0  0  0  0
   -0.4402  -15.1319    0.3270 C   0  0  0  0  0  0  0  0  0  0  0  0
  3  7  1  0
  7  8  1  0
  7  9  2  0
  6 10  1  0
  4 11  1  0
 11 12  2  0
 11 13  1  0
  2 14  1  0
  8 15  1  0
 15 16  1  0
 16 17  2  0
  1  2  2  0
  2  3  1  0
  3  4  2  0
  4  5  1  0
  5  6  2  0
  1  6  1  0
M  END

$$$$
No_1843-/export/home/yangzhenyu/potential_scad_32_flow//YTHDC2/2024-12-06-03-22-00/
     RDKit          3D

 19 20  0  0  0  0  0  0  0  0999 V2000
    1.1787   -8.0297    3.5154 C   0  0  0  0  0  0  0  0  0  0  0  0
    1.0491   -6.8434    2.9820 C   0  0  0  0  0  0  0  0  0  0  0  0
    0.9905   -9.0774    2.6527 C   0  0  0  0  0  0  0  0  0  0  0  0
    0.7897   -8.9519    1.3691 C   0  0  0  0  0  0  0  0  0  0  0  0
    0.7018   -7.7198    0.7892 C   0  0  0  0  0  0  0  0  0  0  0  0
    0.8918   -6.5957    1.6117 C   0  0  0  0  0  0  0  0  0  0  0  0
    1.0998  -10.4710    3.2437 C   0  0  0  0  0  0  0  0  0  0  0  0
    0.0472  -11.2546    3.3963 C   0  0  0  0  0  0  0  0  0  0  0  0
   -0.3712  -11.7969    2.5371 C   0  0  0  0  0  0  0  0  0  0  0  0
   -1.6982  -12.5008    2.6364 C   0  0  0  0  0  0  0  0  0  0  0  0
    0.8677   -5.2786    1.2169 C   0  0  0  0  0  0  0  0  0  0  0  0
   -2.0253  -13.7275    2.2810 C   0  0  0  0  0  0  0  0  0  0  0  0
   -3.2987  -14.2021    2.5040 C   0  0  0  0  0  0  0  0  0  0  0  0
   -3.4957  -15.4550    2.3708 C   0  0  0  0  0  0  0  0  0  0  0  0
    2.4264  -10.8674    3.6736 C   0  0  0  0  0  0  0  0  0  0  0  0
    0.2083   -4.2882    2.0127 O   0  0  0  0  0  0  0  0  0  0  0  0
   -2.6002  -16.2809    1.8643 C   0  0  0  0  0  0  0  0  0  0  0  0
   -1.3562  -15.8765    1.5212 C   0  0  0  0  0  0  0  0  0  0  0  0
   -0.9751  -14.5715    1.7329 C   0  0  0  0  0  0  0  0  0  0  0  0
  3  7  1  0
  7  8  1  0
  8  9  2  3
  9 10  1  0
  6 11  1  0
  7 15  1  0
 11 16  1  0
 10 12  1  0
  1  2  2  0
  2  6  1  0
  5  6  2  0
  4  5  1  0
  3  4  2  0
  1  3  1  0
 12 13  2  0
 13 14  1  0
 14 17  2  0
 17 18  1  0
 18 19  2  0
 12 19  1  0
M  END

$$$$
No_1844-/export/home/yangzhenyu/potential_scad_32_flow//YTHDC2/2024-12-06-03-22-00/
     RDKit          3D

 19 21  0  0  0  0  0  0  0  0999 V2000
    1.1787   -8.0297    3.5154 C   0  0  0  0  0  0  0  0  0  0  0  0
    1.0491   -6.8434    2.9820 C   0  0  0  0  0  0  0  0  0  0  0  0
    0.9905   -9.0774    2.6527 C   0  0  0  0  0  0  0  0  0  0  0  0
    0.7897   -8.9519    1.3691 C   0  0  0  0  0  0  0  0  0  0  0  0
    0.7018   -7.7198    0.7892 C   0  0  0  0  0  0  0  0  0  0  0  0
    0.8918   -6.5957    1.6117 C   0  0  0  0  0  0  0  0  0  0  0  0
    1.0711  -10.4814    3.2282 C   0  0  0  0  0  0  0  0  0  0  0  0
   -0.1055  -11.1328    3.5223 C   0  0  0  0  0  0  0  0  0  0  0  0
   -0.1824  -12.4513    3.3816 C   0  0  0  0  0  0  0  0  0  0  0  0
    0.9472  -13.2655    3.1726 C   0  0  0  0  0  0  0  0  0  0  0  0
    0.8434  -14.7235    3.0065 C   0  0  0  0  0  0  0  0  0  0  0  0
   -0.1086  -15.4285    3.2243 C   0  0  0  0  0  0  0  0  0  0  0  0
   -0.1402  -16.7820    3.0174 C   0  0  0  0  0  0  0  0  0  0  0  0
    1.2145  -17.3024    2.4671 C   0  0  0  0  0  0  0  0  0  0  0  0
    2.2737  -16.4973    2.2454 C   0  0  0  0  0  0  0  0  0  0  0  0
    2.2011  -15.1162    2.4869 C   0  0  0  0  0  0  0  0  0  0  0  0
    2.0535  -11.4691    2.8024 C   0  0  0  0  0  0  0  0  0  0  0  0
    2.1308  -12.6712    2.7941 N   0  0  0  0  0  0  0  0  0  0  0  0
    0.8331   -5.2753    1.1196 C   0  0  0  0  0  0  0  0  0  0  0  0
  3  7  1  0
 10 11  1  0
  6 19  1  0
 11 12  2  0
 12 13  1  0
 13 14  2  0
 14 15  1  0
 15 16  2  0
 11 16  1  0
  1  2  2  0
  2  6  1  0
  5  6  2  0
  4  5  1  0
  3  4  2  0
  1  3  1  0
  7  8  2  0
  8  9  1  0
  9 10  2  0
 10 18  1  0
 17 18  2  0
  7 17  1  0
M  END

$$$$
No_1845-/export/home/yangzhenyu/potential_scad_32_flow//YTHDC2/2024-12-06-03-22-00/
     RDKit          3D

 15 16  0  0  1  0  0  0  0  0999 V2000
    1.1787   -8.0297    3.5154 C   0  0  0  0  0  0  0  0  0  0  0  0
    1.1048   -9.2215    3.2892 C   0  0  0  0  0  0  0  0  0  0  0  0
    1.3627  -10.1721    4.3044 C   0  0  0  0  0  0  0  0  0  0  0  0
    1.7354  -11.4730    3.9023 C   0  0  0  0  0  0  0  0  0  0  0  0
    1.8080  -11.8127    2.7216 C   0  0  0  0  0  0  0  0  0  0  0  0
    1.5854  -11.0021    1.7249 C   0  0  0  0  0  0  0  0  0  0  0  0
    1.3573   -9.7389    1.9287 C   0  0  0  0  0  0  0  0  0  0  0  0
    1.1102   -8.8712    0.9017 C   0  0  2  0  0  0  0  0  0  0  0  0
    0.5299   -7.6926    1.0325 C   0  0  0  0  0  0  0  0  0  0  0  0
    0.7526   -7.0802    2.3301 C   0  0  0  0  0  0  0  0  0  0  0  0
    2.1001  -13.4582    2.3997 Cl  0  0  0  0  0  0  0  0  0  0  0  0
    0.3614   -5.7438    2.5454 O   0  0  0  0  0  0  0  0  0  0  0  0
    1.1491   -9.3358   -0.4140 C   0  0  0  0  0  0  0  0  0  0  0  0
    0.8467   -8.6870   -1.3824 Br  0  0  0  0  0  0  0  0  0  0  0  0
    1.8621  -10.4434   -0.6456 O   0  0  0  0  0  0  0  0  0  0  0  0
  1  2  1  0
  7  8  1  0
  1 10  1  0
  9 10  1  0
  5 11  1  0
 10 12  2  0
  8 13  1  6
 13 14  1  0
 13 15  2  0
  8  9  1  0
  2  3  2  0
  3  4  1  0
  4  5  2  0
  5  6  1  0
  6  7  2  0
  2  7  1  0
M  END

$$$$
No_1846-/export/home/yangzhenyu/potential_scad_32_flow//YTHDC2/2024-12-06-03-22-00/
     RDKit          3D

 18 19  0  0  0  0  0  0  0  0999 V2000
    1.1787   -8.0297    3.5154 C   0  0  0  0  0  0  0  0  0  0  0  0
    1.1048   -9.2215    3.2892 C   0  0  0  0  0  0  0  0  0  0  0  0
    1.2339   -9.7611    2.0189 C   0  0  0  0  0  0  0  0  0  0  0  0
    1.3583   -9.0036    0.9764 C   0  0  0  0  0  0  0  0  0  0  0  0
    1.5996   -7.6362    1.1311 C   0  0  0  0  0  0  0  0  0  0  0  0
    1.4830   -7.0928    2.3626 C   0  0  0  0  0  0  0  0  0  0  0  0
    1.4898   -5.7274    2.6199 C   0  0  0  0  0  0  0  0  0  0  0  0
    1.1681  -11.2222    1.8390 C   0  0  0  0  0  0  0  0  0  0  0  0
    0.5014  -11.9760    2.2068 N   0  0  0  0  0  0  0  0  0  0  0  0
    0.4634  -13.2573    1.9992 C   0  0  0  0  0  0  0  0  0  0  0  0
   -0.5952  -13.9708    1.9717 C   0  0  0  0  0  0  0  0  0  0  0  0
   -0.5374  -15.4739    1.9022 C   0  0  0  0  0  0  0  0  0  0  0  0
    0.7539  -16.0565    1.8776 C   0  0  0  0  0  0  0  0  0  0  0  0
    1.8877  -15.3244    1.8792 C   0  0  0  0  0  0  0  0  0  0  0  0
    1.7865  -13.9271    2.0557 C   0  0  0  0  0  0  0  0  0  0  0  0
    1.6955   -5.1776    3.8631 O   0  0  0  0  0  0  0  0  0  0  0  0
    1.3303   -4.8311    1.6653 O   0  0  0  0  0  0  0  0  0  0  0  0
   -1.8747  -13.5356    2.1196 N   0  0  0  0  0  0  0  0  0  0  0  0
  6  7  1  0
  3  8  1  0
  8  9  2  3
  9 10  1  0
  7 16  1  0
  7 17  2  0
 11 18  1  0
  1  2  2  0
  2  3  1  0
  3  4  2  0
  4  5  1  0
  5  6  2  0
  1  6  1  0
 10 11  2  0
 11 12  1  0
 12 13  2  0
 13 14  1  0
 14 15  2  0
 10 15  1  0
M  END

$$$$
No_1847-/export/home/yangzhenyu/potential_scad_32_flow//YTHDC2/2024-12-06-03-22-00/
     RDKit          3D

 18 18  0  0  1  0  0  0  0  0999 V2000
    1.1787   -8.0297    3.5154 C   0  0  0  0  0  0  0  0  0  0  0  0
    1.1048   -9.2215    3.2892 C   0  0  0  0  0  0  0  0  0  0  0  0
    1.2339   -9.7611    2.0189 C   0  0  1  0  0  0  0  0  0  0  0  0
    1.1954  -11.2312    1.8661 C   0  0  0  0  0  0  0  0  0  0  0  0
    1.5546  -12.1691    2.7931 C   0  0  0  0  0  0  0  0  0  0  0  0
    0.5849   -7.0929    2.5729 C   0  0  2  0  0  0  0  0  0  0  0  0
    0.5567   -7.6699    1.1955 C   0  0  0  0  0  0  0  0  0  0  0  0
    0.7903   -8.9699    0.9209 C   0  0  1  0  0  0  0  0  0  0  0  0
    0.7585  -13.2773    2.9106 C   0  0  0  0  0  0  0  0  0  0  0  0
   -0.4911  -13.0456    2.6377 C   0  0  0  0  0  0  0  0  0  0  0  0
   -0.9547  -11.7774    2.5689 C   0  0  0  0  0  0  0  0  0  0  0  0
    0.6073   -5.6659    2.6656 C   0  0  0  0  0  0  0  0  0  0  0  0
    0.4441   -6.8583    0.1539 O   0  0  0  0  0  0  0  0  0  0  0  0
    0.7436   -9.5142   -0.2889 C   0  0  0  0  0  0  0  0  0  0  0  0
   -0.6130   -9.5290   -0.8303 O   0  0  0  0  0  0  0  0  0  0  0  0
    1.6518   -9.6792   -1.0707 O   0  0  0  0  0  0  0  0  0  0  0  0
   -1.3166  -14.1090    2.3591 C   0  0  0  0  0  0  0  0  0  0  0  0
    1.7532   -4.9202    3.0000 C   0  0  0  0  0  0  0  0  0  0  0  0
  1  2  1  0
  3  4  1  1
  4  5  1  0
  6  7  1  0
  3  8  1  0
  7  8  1  0
  5  9  1  0
  9 10  1  0
 10 11  1  0
  6 12  1  6
  7 13  2  0
  8 14  1  6
 14 15  2  0
 14 16  1  0
 10 17  1  0
 12 18  1  0
  1  6  1  0
  2  3  1  0
M  END

$$$$
No_1848-/export/home/yangzhenyu/potential_scad_32_flow//YTHDC2/2024-12-06-03-22-00/
     RDKit          3D

 19 19  0  0  0  0  0  0  0  0999 V2000
    1.1787   -8.0297    3.5154 C   0  0  0  0  0  0  0  0  0  0  0  0
    1.0491   -6.8434    2.9820 C   0  0  0  0  0  0  0  0  0  0  0  0
    0.9905   -9.0774    2.6527 C   0  0  0  0  0  0  0  0  0  0  0  0
    0.7897   -8.9519    1.3691 C   0  0  0  0  0  0  0  0  0  0  0  0
    0.7018   -7.7198    0.7892 C   0  0  0  0  0  0  0  0  0  0  0  0
    0.8918   -6.5957    1.6117 C   0  0  0  0  0  0  0  0  0  0  0  0
    1.0711  -10.4814    3.2282 C   0  0  0  0  0  0  0  0  0  0  0  0
    1.1227  -11.5770    2.4616 N   0  0  0  0  0  0  0  0  0  0  0  0
    1.1325  -12.7925    3.0183 C   0  0  0  0  0  0  0  0  0  0  0  0
    0.3560  -13.8572    2.5930 C   0  0  0  0  0  0  0  0  0  0  0  0
    0.6288  -15.2144    3.2641 O   0  0  0  0  0  0  0  0  0  0  0  0
    1.3931  -10.5643    4.5256 O   0  0  0  0  0  0  0  0  0  0  0  0
   -0.5447  -13.8034    1.7856 C   0  0  0  0  0  0  0  0  0  0  0  0
    0.7970   -5.0928    1.0726 O   0  0  0  0  0  0  0  0  0  0  0  0
   -1.0423  -14.9189    1.1469 C   0  0  0  0  0  0  0  0  0  0  0  0
   -2.1875  -14.7259    0.1241 C   0  0  0  0  0  0  0  0  0  0  0  0
   -2.7475  -15.4496   -0.4082 C   0  0  0  0  0  0  0  0  0  0  0  0
   -2.3495  -16.8386   -0.3001 C   0  0  0  0  0  0  0  0  0  0  0  0
   -1.3552  -17.1927    0.6459 C   0  0  0  0  0  0  0  0  0  0  0  0
  3  7  1  0
  7  8  1  0
  8  9  1  0
  9 10  1  0
 10 11  1  0
  7 12  2  0
 10 13  1  0
  6 14  1  0
 13 15  2  3
 15 16  1  0
 16 17  2  3
 17 18  1  0
 18 19  2  0
  1  2  2  0
  2  6  1  0
  5  6  2  0
  4  5  1  0
  3  4  2  0
  1  3  1  0
M  END

$$$$
No_1849-/export/home/yangzhenyu/potential_scad_32_flow//YTHDC2/2024-12-06-03-22-00/
     RDKit          3D

 19 21  0  0  0  0  0  0  0  0999 V2000
    1.1787   -8.0297    3.5154 C   0  0  0  0  0  0  0  0  0  0  0  0
    1.0491   -6.8434    2.9820 C   0  0  0  0  0  0  0  0  0  0  0  0
    0.0950   -8.8404    3.2292 C   0  0  0  0  0  0  0  0  0  0  0  0
   -0.9173   -8.4596    2.5152 C   0  0  0  0  0  0  0  0  0  0  0  0
   -1.0331   -7.2162    2.0653 C   0  0  0  0  0  0  0  0  0  0  0  0
   -0.0105   -6.3168    2.3081 C   0  0  0  0  0  0  0  0  0  0  0  0
    0.1465  -10.2446    3.6981 C   0  0  0  0  0  0  0  0  0  0  0  0
   -1.0337  -10.8619    3.9439 C   0  0  0  0  0  0  0  0  0  0  0  0
   -0.8576  -12.3101    4.1964 C   0  0  0  0  0  0  0  0  0  0  0  0
    0.3452  -12.8753    3.9453 C   0  0  0  0  0  0  0  0  0  0  0  0
    1.4894  -12.1495    3.5975 C   0  0  0  0  0  0  0  0  0  0  0  0
    1.3815  -10.8365    3.4146 C   0  0  0  0  0  0  0  0  0  0  0  0
   -0.0395   -5.0053    1.8073 C   0  0  0  0  0  0  0  0  0  0  0  0
    0.6880   -3.9961    2.4201 C   0  0  0  0  0  0  0  0  0  0  0  0
    0.4605  -14.2457    4.1219 O   0  0  0  0  0  0  0  0  0  0  0  0
    0.7607   -2.6786    1.9797 C   0  0  0  0  0  0  0  0  0  0  0  0
    0.2956   -2.4156    0.7648 C   0  0  0  0  0  0  0  0  0  0  0  0
   -0.3332   -3.3037   -0.0260 C   0  0  0  0  0  0  0  0  0  0  0  0
   -0.5354   -4.6233    0.5276 C   0  0  0  0  0  0  0  0  0  0  0  0
  3  7  1  0
  6 13  1  0
 10 15  1  0
 13 14  2  0
 14 16  1  0
 16 17  2  0
 17 18  1  0
 18 19  2  0
 13 19  1  0
  1  2  2  0
  2  6  1  0
  5  6  2  0
  4  5  1  0
  3  4  2  0
  1  3  1  0
  7  8  2  0
  8  9  1  0
  9 10  2  0
 10 11  1  0
 11 12  2  0
  7 12  1  0
M  END

$$$$
No_1850-/export/home/yangzhenyu/potential_scad_32_flow//YTHDC2/2024-12-06-03-22-00/
     RDKit          3D

 19 21  0  0  0  0  0  0  0  0999 V2000
    1.1787   -8.0297    3.5154 C   0  0  0  0  0  0  0  0  0  0  0  0
    1.0491   -6.8434    2.9820 C   0  0  0  0  0  0  0  0  0  0  0  0
    0.0950   -8.8404    3.2292 C   0  0  0  0  0  0  0  0  0  0  0  0
   -0.9173   -8.4596    2.5152 C   0  0  0  0  0  0  0  0  0  0  0  0
   -1.0331   -7.2162    2.0653 C   0  0  0  0  0  0  0  0  0  0  0  0
   -0.0105   -6.3168    2.3081 C   0  0  0  0  0  0  0  0  0  0  0  0
    0.0485   -4.9783    1.8782 C   0  0  0  0  0  0  0  0  0  0  0  0
   -0.4744   -4.1559    2.2381 C   0  0  0  0  0  0  0  0  0  0  0  0
   -0.3956   -2.6830    1.7790 C   0  0  0  0  0  0  0  0  0  0  0  0
    0.2012  -10.4491    3.7547 C   0  0  0  0  0  0  0  0  0  0  0  0
   -0.9520  -11.1415    3.5324 C   0  0  0  0  0  0  0  0  0  0  0  0
    1.2734  -10.7347    4.5119 C   0  0  0  0  0  0  0  0  0  0  0  0
    1.4479  -12.0820    4.6678 C   0  0  0  0  0  0  0  0  0  0  0  0
   -0.7889  -12.4737    3.8130 C   0  0  0  0  0  0  0  0  0  0  0  0
    0.4978  -12.9454    4.2828 C   0  0  0  0  0  0  0  0  0  0  0  0
    0.3724   -2.7097    0.5293 C   0  0  0  0  0  0  0  0  0  0  0  0
    0.9037   -3.6747   -0.0708 C   0  0  0  0  0  0  0  0  0  0  0  0
    0.8306   -4.8928    0.5774 C   0  0  0  0  0  0  0  0  0  0  0  0
    0.5789  -14.3088    4.5268 O   0  0  0  0  0  0  0  0  0  0  0  0
  6  7  1  0
  3 10  1  0
 10 12  1  0
 11 14  1  0
 13 15  1  0
 14 15  1  0
 15 19  2  0
 12 13  1  0
 10 11  1  0
  1  2  2  0
  2  6  1  0
  5  6  2  0
  4  5  1  0
  3  4  2  0
  1  3  1  0
  7  8  2  0
  8  9  1  0
  9 16  2  0
 16 17  1  0
 17 18  2  0
  7 18  1  0
M  END

$$$$
No_1851-/export/home/yangzhenyu/potential_scad_32_flow//YTHDC2/2024-12-06-03-22-00/
     RDKit          3D

 18 18  0  0  0  0  0  0  0  0999 V2000
    1.1787   -8.0297    3.5154 C   0  0  0  0  0  0  0  0  0  0  0  0
    1.0491   -6.8434    2.9820 C   0  0  0  0  0  0  0  0  0  0  0  0
    1.9985   -8.9840    2.8958 C   0  0  0  0  0  0  0  0  0  0  0  0
    1.1814  -10.1889    2.5497 C   0  0  0  0  0  0  0  0  0  0  0  0
    0.3496  -10.1352    1.6537 C   0  0  0  0  0  0  0  0  0  0  0  0
    0.2726  -10.8443    0.9221 C   0  0  0  0  0  0  0  0  0  0  0  0
    0.8884  -12.2473    1.0851 C   0  0  0  0  0  0  0  0  0  0  0  0
    1.9321  -12.4155    1.9755 C   0  0  0  0  0  0  0  0  0  0  0  0
    2.0858  -11.2296    2.8823 C   0  0  0  0  0  0  0  0  0  0  0  0
    1.1579   -6.4170    1.9309 C   0  0  0  0  0  0  0  0  0  0  0  0
    1.0588   -5.0099    1.5289 C   0  0  0  0  0  0  0  0  0  0  0  0
    0.5641   -4.1717    2.3011 N   0  0  0  0  0  0  0  0  0  0  0  0
    2.7897  -11.3369    4.0267 C   0  0  0  0  0  0  0  0  0  0  0  0
    1.3787   -3.4415    3.0824 C   0  0  0  0  0  0  0  0  0  0  0  0
    1.6459   -7.2086    0.8162 O   0  0  0  0  0  0  0  0  0  0  0  0
   -0.8237   -3.6815    2.1462 C   0  0  0  0  0  0  0  0  0  0  0  0
   -1.2594   -3.8438    1.0939 C   0  0  0  0  0  0  0  0  0  0  0  0
   -0.9898   -2.8995    0.0187 O   0  0  0  0  0  0  0  0  0  0  0  0
  1  2  1  0
  1  3  1  0
  3  4  1  0
  2 10  2  3
 10 11  1  0
 11 12  1  0
  9 13  1  0
 12 14  1  0
 10 15  1  0
 12 16  1  0
 16 17  1  0
 17 18  2  0
  4  5  2  0
  5  6  1  0
  6  7  2  0
  7  8  1  0
  8  9  2  0
  4  9  1  0
M  END

$$$$
No_1852-/export/home/yangzhenyu/potential_scad_32_flow//YTHDC2/2024-12-06-03-22-00/
     RDKit          3D

 18 19  0  0  0  0  0  0  0  0999 V2000
    1.1787   -8.0297    3.5154 C   0  0  0  0  0  0  0  0  0  0  0  0
    1.1048   -9.2215    3.2892 C   0  0  0  0  0  0  0  0  0  0  0  0
    1.2339   -9.7611    2.0189 C   0  0  0  0  0  0  0  0  0  0  0  0
    1.3583   -9.0036    0.9764 C   0  0  0  0  0  0  0  0  0  0  0  0
    1.5996   -7.6362    1.1311 C   0  0  0  0  0  0  0  0  0  0  0  0
    1.4830   -7.0928    2.3626 C   0  0  0  0  0  0  0  0  0  0  0  0
    1.1008  -11.2372    1.8542 C   0  0  0  0  0  0  0  0  0  0  0  0
    1.9749  -12.0938    2.2342 C   0  0  0  0  0  0  0  0  0  0  0  0
    1.5180  -13.3509    2.5910 C   0  0  0  0  0  0  0  0  0  0  0  0
    0.4120  -13.9272    2.2191 C   0  0  0  0  0  0  0  0  0  0  0  0
   -0.5860  -13.0563    1.8308 C   0  0  0  0  0  0  0  0  0  0  0  0
   -0.2264  -11.7453    1.4928 C   0  0  0  0  0  0  0  0  0  0  0  0
    1.5759   -5.6593    2.6277 Cl  0  0  0  0  0  0  0  0  0  0  0  0
    0.0981  -15.2159    2.5396 C   0  0  0  0  0  0  0  0  0  0  0  0
    0.0639  -16.1055    2.0692 C   0  0  0  0  0  0  0  0  0  0  0  0
   -0.2402  -17.4841    2.5291 C   0  0  0  0  0  0  0  0  0  0  0  0
   -0.1922  -17.5459    3.9382 C   0  0  0  0  0  0  0  0  0  0  0  0
    0.0127  -16.4789    4.7474 C   0  0  0  0  0  0  0  0  0  0  0  0
  3  7  1  0
  6 13  1  0
 10 14  1  0
 14 15  2  3
 15 16  1  0
 16 17  2  3
 17 18  1  0
  1  2  2  0
  2  3  1  0
  3  4  2  0
  4  5  1  0
  5  6  2  0
  1  6  1  0
  7  8  2  0
  8  9  1  0
  9 10  2  0
 10 11  1  0
 11 12  2  0
  7 12  1  0
M  END

$$$$
No_1853-/export/home/yangzhenyu/potential_scad_32_flow//YTHDC2/2024-12-06-03-22-00/
     RDKit          3D

 19 19  0  0  0  0  0  0  0  0999 V2000
    1.1787   -8.0297    3.5154 C   0  0  0  0  0  0  0  0  0  0  0  0
    1.1048   -9.2215    3.2892 C   0  0  0  0  0  0  0  0  0  0  0  0
    1.2339   -9.7611    2.0189 C   0  0  0  0  0  0  0  0  0  0  0  0
    1.4306   -8.9466    1.1170 C   0  0  0  0  0  0  0  0  0  0  0  0
    1.6532   -7.5949    1.1786 C   0  0  0  0  0  0  0  0  0  0  0  0
    1.4973   -7.0739    2.4258 C   0  0  0  0  0  0  0  0  0  0  0  0
    1.4438   -5.6890    2.7316 C   0  0  0  0  0  0  0  0  0  0  0  0
    1.2541  -11.1952    1.8085 C   0  0  0  0  0  0  0  0  0  0  0  0
    0.4188  -11.8936    1.9052 O   0  0  0  0  0  0  0  0  0  0  0  0
    2.2260  -11.6793    0.9446 N   0  0  0  0  0  0  0  0  0  0  0  0
    1.2697   -4.7728    1.7435 C   0  0  0  0  0  0  0  0  0  0  0  0
    0.6096   -5.1191    0.6201 O   0  0  0  0  0  0  0  0  0  0  0  0
    1.2812   -3.3535    2.1096 Cl  0  0  0  0  0  0  0  0  0  0  0  0
    0.8565  -10.1937    4.4791 O   0  0  0  0  0  0  0  0  0  0  0  0
    1.7276   -9.4153   -0.2676 C   0  0  0  0  0  0  0  0  0  0  0  0
    2.8200   -9.2559   -0.9814 O   0  0  0  0  0  0  0  0  0  0  0  0
    0.6160   -9.1573   -1.1981 O   0  0  0  0  0  0  0  0  0  0  0  0
    2.1609  -13.1358    0.7526 C   0  0  0  0  0  0  0  0  0  0  0  0
    2.8467  -13.9758    1.6381 C   0  0  0  0  0  0  0  0  0  0  0  0
  6  7  1  0
  3  8  1  0
  8  9  2  0
  8 10  1  0
  7 11  2  3
 11 12  1  0
 11 13  1  0
  2 14  1  0
  4 15  1  0
 15 16  1  0
 15 17  2  0
 10 18  1  0
 18 19  1  0
  1  2  2  0
  2  3  1  0
  3  4  2  0
  4  5  1  0
  5  6  2  0
  1  6  1  0
M  END

$$$$
No_1854-/export/home/yangzhenyu/potential_scad_32_flow//YTHDC2/2024-12-06-03-22-00/
     RDKit          3D

 18 19  0  0  0  0  0  0  0  0999 V2000
    1.1787   -8.0297    3.5154 N   0  0  0  0  0  0  0  0  0  0  0  0
    1.0818   -9.0751    3.2053 C   0  0  0  0  0  0  0  0  0  0  0  0
    1.5216  -10.1164    3.9747 C   0  0  0  0  0  0  0  0  0  0  0  0
    2.4786  -10.1841    4.6947 C   0  0  0  0  0  0  0  0  0  0  0  0
    1.1207   -6.9611    2.6761 C   0  0  0  0  0  0  0  0  0  0  0  0
    1.3407   -7.2408    1.2840 C   0  0  0  0  0  0  0  0  0  0  0  0
    1.3305   -8.4331    0.8340 C   0  0  0  0  0  0  0  0  0  0  0  0
    1.2204   -9.5354    1.7991 C   0  0  0  0  0  0  0  0  0  0  0  0
    1.4648   -8.7684   -0.5023 C   0  0  0  0  0  0  0  0  0  0  0  0
    2.3632   -9.5647   -0.8785 O   0  0  0  0  0  0  0  0  0  0  0  0
    0.4279   -8.6938   -1.3506 O   0  0  0  0  0  0  0  0  0  0  0  0
    2.8761  -11.4318    5.4789 N   0  0  0  0  0  0  0  0  0  0  0  0
    0.7316  -11.4418    4.1160 N   0  0  0  0  0  0  0  0  0  0  0  0
    1.2185   -5.6353    3.1843 C   0  0  0  0  0  0  0  0  0  0  0  0
    1.7998  -12.1671    4.9041 C   0  0  0  0  0  0  0  0  0  0  0  0
    0.4863   -4.6446    2.4345 O   0  0  0  0  0  0  0  0  0  0  0  0
    1.8530   -5.1841    4.1264 O   0  0  0  0  0  0  0  0  0  0  0  0
   -0.3235  -11.8257    3.6101 C   0  0  0  0  0  0  0  0  0  0  0  0
  2  3  1  0
  3  4  2  0
  7  9  1  0
  9 10  2  0
  9 11  1  0
  4 12  1  0
  3 13  1  0
  5 14  1  0
 12 15  1  0
 13 15  1  0
 14 16  2  0
 14 17  1  0
 13 18  1  0
  1  2  2  0
  2  8  1  0
  7  8  2  0
  6  7  1  0
  5  6  2  0
  1  5  1  0
M  END

$$$$
No_1855-/export/home/yangzhenyu/potential_scad_32_flow//YTHDC2/2024-12-06-03-22-00/
     RDKit          3D

 11 11  0  0  0  0  0  0  0  0999 V2000
    1.1787   -8.0297    3.5154 C   0  0  0  0  0  0  0  0  0  0  0  0
    1.0491   -6.8434    2.9820 C   0  0  0  0  0  0  0  0  0  0  0  0
    0.0950   -8.8404    3.2292 C   0  0  0  0  0  0  0  0  0  0  0  0
   -0.9173   -8.4596    2.5152 C   0  0  0  0  0  0  0  0  0  0  0  0
   -1.0331   -7.2162    2.0653 C   0  0  0  0  0  0  0  0  0  0  0  0
   -0.0105   -6.3168    2.3081 C   0  0  0  0  0  0  0  0  0  0  0  0
    0.1465  -10.2446    3.6981 S   0  0  0  0  0  0  0  0  0  0  0  0
   -1.0557  -10.6666    4.1668 O   0  0  0  0  0  0  0  0  0  0  0  0
    1.0921  -10.4216    5.0205 N   0  0  0  0  0  0  0  0  0  0  0  0
    0.5378  -11.1743    2.6445 O   0  0  0  0  0  0  0  0  0  0  0  0
   -0.0529   -4.9771    1.8899 Cl  0  0  0  0  0  0  0  0  0  0  0  0
  3  7  1  0
  7  8  2  0
  7  9  1  0
  7 10  2  0
  6 11  1  0
  1  2  2  0
  2  6  1  0
  5  6  2  0
  4  5  1  0
  3  4  2  0
  1  3  1  0
M  END

$$$$
No_1856-/export/home/yangzhenyu/potential_scad_32_flow//YTHDC2/2024-12-06-03-22-00/
     RDKit          3D

 21 23  0  0  0  0  0  0  0  0999 V2000
    1.1787   -8.0297    3.5154 C   0  0  0  0  0  0  0  0  0  0  0  0
    1.0491   -6.8434    2.9820 C   0  0  0  0  0  0  0  0  0  0  0  0
    0.9905   -9.0774    2.6527 C   0  0  0  0  0  0  0  0  0  0  0  0
    1.1655  -10.4663    3.1286 N   0  0  0  0  0  0  0  0  0  0  0  0
    0.8534   -6.5553    1.6652 C   0  0  0  0  0  0  0  0  0  0  0  0
    0.6621   -7.5619    0.8569 C   0  0  0  0  0  0  0  0  0  0  0  0
    0.6317   -8.8751    1.3247 C   0  0  0  0  0  0  0  0  0  0  0  0
    1.0976  -11.4812    2.2706 C   0  0  0  0  0  0  0  0  0  0  0  0
    0.8430  -11.2884    1.0125 C   0  0  0  0  0  0  0  0  0  0  0  0
    0.7601  -10.0365    0.4658 C   0  0  0  0  0  0  0  0  0  0  0  0
    1.3937  -12.7600    2.9503 C   0  0  0  0  0  0  0  0  0  0  0  0
    1.4121  -13.8886    2.0297 C   0  0  0  0  0  0  0  0  0  0  0  0
    0.3714  -14.6990    1.9437 C   0  0  0  0  0  0  0  0  0  0  0  0
   -0.7108  -14.2367    1.9101 C   0  0  0  0  0  0  0  0  0  0  0  0
   -1.7636  -14.5906    1.4102 C   0  0  0  0  0  0  0  0  0  0  0  0
   -1.7986  -15.8612    0.8654 C   0  0  0  0  0  0  0  0  0  0  0  0
   -0.5627  -16.5036    0.7584 C   0  0  0  0  0  0  0  0  0  0  0  0
    0.5682  -15.9625    1.3128 C   0  0  0  0  0  0  0  0  0  0  0  0
    0.7555   -5.2281    1.1828 C   0  0  0  0  0  0  0  0  0  0  0  0
    0.1018   -4.2519    1.8577 F   0  0  0  0  0  0  0  0  0  0  0  0
    1.7625  -16.5211    1.2168 C   0  0  0  0  0  0  0  0  0  0  0  0
  8 11  1  0
 11 12  1  0
 12 13  1  0
  5 19  1  0
 19 20  1  0
 18 21  1  0
 13 14  2  0
 14 15  1  0
 15 16  2  0
 16 17  1  0
 17 18  2  0
 13 18  1  0
  1  2  2  0
  2  5  1  0
  5  6  2  0
  6  7  1  0
  1  3  1  0
  3  4  2  0
  4  8  1  0
  8  9  2  0
  9 10  1  0
  7 10  2  0
  3  7  1  0
M  END

$$$$
No_1857-/export/home/yangzhenyu/potential_scad_32_flow//YTHDC2/2024-12-06-03-22-00/
     RDKit          3D

 19 20  0  0  1  0  0  0  0  0999 V2000
    1.1787   -8.0297    3.5154 C   0  0  0  0  0  0  0  0  0  0  0  0
    1.1048   -9.2215    3.2892 C   0  0  0  0  0  0  0  0  0  0  0  0
    1.2339   -9.7611    2.0189 C   0  0  0  0  0  0  0  0  0  0  0  0
    1.3583   -9.0036    0.9764 C   0  0  0  0  0  0  0  0  0  0  0  0
    1.5996   -7.6362    1.1311 C   0  0  0  0  0  0  0  0  0  0  0  0
    1.4830   -7.0928    2.3626 C   0  0  0  0  0  0  0  0  0  0  0  0
    1.5395   -5.7300    2.6182 C   0  0  0  0  0  0  0  0  0  0  0  0
    1.1775  -11.2233    1.8407 C   0  0  0  0  0  0  0  0  0  0  0  0
    0.7252  -11.5870    0.5412 C   0  0  0  0  0  0  0  0  0  0  0  0
    0.5994  -13.0100    0.4511 C   0  0  0  0  0  0  0  0  0  0  0  0
    0.9545  -13.8873    1.4441 C   0  0  2  0  0  0  0  0  0  0  0  0
    1.4784  -13.3975    2.6594 C   0  0  0  0  0  0  0  0  0  0  0  0
    1.5766  -12.0395    2.8884 C   0  0  0  0  0  0  0  0  0  0  0  0
    2.1060  -11.5923    3.9798 O   0  0  0  0  0  0  0  0  0  0  0  0
    1.3177   -4.7937    1.6537 O   0  0  0  0  0  0  0  0  0  0  0  0
    1.4563   -5.1858    3.9051 N   0  0  0  0  0  0  0  0  0  0  0  0
    0.9372  -15.2407    1.2315 Cl  0  0  0  0  0  0  0  0  0  0  0  0
    1.6084   -9.4199   -0.3348 C   0  0  0  0  0  0  0  0  0  0  0  0
    1.8545   -8.6031   -1.2732 O   0  0  0  0  0  0  0  0  0  0  0  0
  6  7  1  0
  3  8  1  0
  8  9  1  0
 10 11  1  0
  8 13  1  0
 12 13  1  0
 13 14  2  0
  7 15  2  0
  7 16  1  0
 11 17  1  6
  4 18  1  0
 18 19  2  0
  9 10  1  0
 11 12  1  0
  1  2  2  0
  2  3  1  0
  3  4  2  0
  4  5  1  0
  5  6  2  0
  1  6  1  0
M  END

$$$$
No_1858-/export/home/yangzhenyu/potential_scad_32_flow//YTHDC2/2024-12-06-03-22-00/
     RDKit          3D

 20 20  0  0  0  0  0  0  0  0999 V2000
    1.1787   -8.0297    3.5154 C   0  0  0  0  0  0  0  0  0  0  0  0
    1.1048   -9.2215    3.2892 C   0  0  0  0  0  0  0  0  0  0  0  0
    1.3627  -10.1721    4.3044 C   0  0  0  0  0  0  0  0  0  0  0  0
    2.3720  -10.8948    4.2468 C   0  0  0  0  0  0  0  0  0  0  0  0
    1.0579   -7.0441    2.4219 C   0  0  0  0  0  0  0  0  0  0  0  0
    0.8578   -7.4970    1.1686 C   0  0  0  0  0  0  0  0  0  0  0  0
    0.7382   -8.7683    0.8754 C   0  0  0  0  0  0  0  0  0  0  0  0
    0.8882   -9.7347    1.9238 C   0  0  0  0  0  0  0  0  0  0  0  0
    0.9437  -11.0299    1.7005 C   0  0  0  0  0  0  0  0  0  0  0  0
   -0.0869  -11.8512    1.8957 C   0  0  0  0  0  0  0  0  0  0  0  0
    0.0905  -13.2934    1.6707 C   0  0  0  0  0  0  0  0  0  0  0  0
    1.3523  -13.9069    1.8329 C   0  0  0  0  0  0  0  0  0  0  0  0
    1.4076  -15.3028    1.8966 C   0  0  0  0  0  0  0  0  0  0  0  0
    2.6283  -15.9456    2.0865 N   0  0  0  0  0  0  0  0  0  0  0  0
    0.4121  -16.0117    1.9931 O   0  0  0  0  0  0  0  0  0  0  0  0
    0.4830   -9.2004   -0.4472 C   0  0  0  0  0  0  0  0  0  0  0  0
    1.2203   -9.1083   -1.3860 O   0  0  0  0  0  0  0  0  0  0  0  0
   -0.8683   -9.0174   -0.8545 N   0  0  0  0  0  0  0  0  0  0  0  0
    2.7356  -17.3400    2.3697 C   0  0  0  0  0  0  0  0  0  0  0  0
   -1.3430   -9.2263   -2.1670 C   0  0  0  0  0  0  0  0  0  0  0  0
  2  3  1  0
  3  4  1  0
  8  9  1  0
  9 10  2  3
 10 11  1  0
 11 12  2  3
 12 13  1  0
 13 14  1  0
 13 15  2  0
  7 16  1  0
 16 17  2  0
 16 18  1  0
 14 19  1  0
 18 20  1  0
  1  2  2  0
  2  8  1  0
  7  8  2  0
  6  7  1  0
  5  6  2  0
  1  5  1  0
M  END

$$$$
No_1859-/export/home/yangzhenyu/potential_scad_32_flow//YTHDC2/2024-12-06-03-22-00/
     RDKit          3D

 19 20  0  0  0  0  0  0  0  0999 V2000
    1.1787   -8.0297    3.5154 C   0  0  0  0  0  0  0  0  0  0  0  0
    1.0491   -6.8434    2.9820 C   0  0  0  0  0  0  0  0  0  0  0  0
    0.9905   -9.0774    2.6527 C   0  0  0  0  0  0  0  0  0  0  0  0
    0.7897   -8.9519    1.3691 C   0  0  0  0  0  0  0  0  0  0  0  0
    0.7018   -7.7198    0.7892 C   0  0  0  0  0  0  0  0  0  0  0  0
    0.8187   -6.6272    1.5449 C   0  0  0  0  0  0  0  0  0  0  0  0
    1.1111  -10.4707    3.2405 C   0  0  0  0  0  0  0  0  0  0  0  0
    0.0463  -11.2256    3.4465 C   0  0  0  0  0  0  0  0  0  0  0  0
    0.1325  -12.5445    3.4394 C   0  0  0  0  0  0  0  0  0  0  0  0
    1.3832  -13.1940    3.3582 C   0  0  0  0  0  0  0  0  0  0  0  0
    2.5308  -12.4108    3.0203 C   0  0  0  0  0  0  0  0  0  0  0  0
    2.3643  -11.0645    2.8575 C   0  0  0  0  0  0  0  0  0  0  0  0
    1.4641  -14.5643    3.3637 O   0  0  0  0  0  0  0  0  0  0  0  0
    0.7337   -5.3143    1.0353 Cl  0  0  0  0  0  0  0  0  0  0  0  0
    2.2037  -15.2842    2.5370 C   0  0  0  0  0  0  0  0  0  0  0  0
    2.2039  -16.6526    2.8169 C   0  0  0  0  0  0  0  0  0  0  0  0
    1.3975  -17.3305    3.3916 Cl  0  0  0  0  0  0  0  0  0  0  0  0
    3.6792  -17.1580    2.6889 O   0  0  0  0  0  0  0  0  0  0  0  0
    0.5905  -10.2385    0.2613 C   0  0  0  0  0  0  0  0  0  0  0  0
  3  7  1  0
 10 13  1  0
  6 14  1  0
 13 15  1  0
 15 16  1  0
 16 17  1  0
 16 18  2  0
  4 19  1  0
  1  2  2  0
  2  6  1  0
  5  6  2  0
  4  5  1  0
  3  4  2  0
  1  3  1  0
  7  8  2  0
  8  9  1  0
  9 10  2  0
 10 11  1  0
 11 12  2  0
  7 12  1  0
M  END

$$$$
No_1860-/export/home/yangzhenyu/potential_scad_32_flow//YTHDC2/2024-12-06-03-22-00/
     RDKit          3D

 19 20  0  0  0  0  0  0  0  0999 V2000
    1.1787   -8.0297    3.5154 C   0  0  0  0  0  0  0  0  0  0  0  0
    1.1048   -9.2215    3.2892 C   0  0  0  0  0  0  0  0  0  0  0  0
    1.0239   -9.7790    2.0239 C   0  0  0  0  0  0  0  0  0  0  0  0
    1.1393   -9.0211    0.9686 C   0  0  0  0  0  0  0  0  0  0  0  0
    1.3160   -9.6264   -0.3268 C   0  0  0  0  0  0  0  0  0  0  0  0
    1.3620   -7.1064    2.3319 C   0  0  0  0  0  0  0  0  0  0  0  0
    1.2578   -7.6370    1.0089 C   0  0  0  0  0  0  0  0  0  0  0  0
    0.7179   -9.3485   -1.1691 O   0  0  0  0  0  0  0  0  0  0  0  0
    2.3057  -10.4246   -0.4322 O   0  0  0  0  0  0  0  0  0  0  0  0
    1.3958   -5.6540    2.5306 C   0  0  0  0  0  0  0  0  0  0  0  0
    0.9464   -4.9377    1.6865 O   0  0  0  0  0  0  0  0  0  0  0  0
    1.8214   -5.1486    3.7128 O   0  0  0  0  0  0  0  0  0  0  0  0
    1.0764  -11.4287    1.9140 N   0  0  0  0  0  0  0  0  0  0  0  0
    0.0303  -12.0171    1.7500 C   0  0  0  0  0  0  0  0  0  0  0  0
   -1.1198  -11.6438    1.7603 C   0  0  0  0  0  0  0  0  0  0  0  0
   -2.1988  -12.5874    1.7118 C   0  0  0  0  0  0  0  0  0  0  0  0
   -1.8548  -13.9492    1.6789 C   0  0  0  0  0  0  0  0  0  0  0  0
   -0.5549  -14.3463    1.8397 C   0  0  0  0  0  0  0  0  0  0  0  0
    0.4729  -13.4238    1.9838 C   0  0  0  0  0  0  0  0  0  0  0  0
  4  5  1  0
  5  8  2  0
  5  9  1  0
  6 10  1  0
 10 11  2  0
 10 12  1  0
  3 13  1  0
 13 14  1  0
 14 15  2  0
 15 16  1  0
 16 17  2  0
 17 18  1  0
 18 19  2  0
 14 19  1  0
  1  2  2  0
  2  3  1  0
  3  4  2  0
  4  7  1  0
  6  7  2  0
  1  6  1  0
M  END

$$$$
No_1861-/export/home/yangzhenyu/potential_scad_32_flow//YTHDC2/2024-12-06-03-22-00/
     RDKit          3D

 17 17  0  0  1  0  0  0  0  0999 V2000
    1.1787   -8.0297    3.5154 C   0  0  0  0  0  0  0  0  0  0  0  0
    1.1048   -9.2215    3.2892 C   0  0  0  0  0  0  0  0  0  0  0  0
    1.3627  -10.1721    4.3044 C   0  0  0  0  0  0  0  0  0  0  0  0
    1.7354  -11.4730    3.9023 C   0  0  0  0  0  0  0  0  0  0  0  0
    1.8080  -11.8127    2.7216 C   0  0  0  0  0  0  0  0  0  0  0  0
    1.5854  -11.0021    1.7249 C   0  0  0  0  0  0  0  0  0  0  0  0
    1.3573   -9.7389    1.9287 C   0  0  0  0  0  0  0  0  0  0  0  0
    1.2865   -8.8078    0.9161 C   0  0  0  0  0  0  0  0  0  0  0  0
    1.6845   -9.1638   -0.2896 C   0  0  0  0  0  0  0  0  0  0  0  0
    2.0917  -13.3473    2.3482 C   0  0  0  0  0  0  0  0  0  0  0  0
    1.6805   -8.1277   -1.3864 O   0  0  0  0  0  0  0  0  0  0  0  0
    2.3225  -13.6664    1.0788 O   0  0  0  0  0  0  0  0  0  0  0  0
    1.7275  -14.3085    3.1254 N   0  0  0  0  0  0  0  0  0  0  0  0
    1.8152  -15.6090    2.9130 C   0  0  1  0  0  0  0  0  0  0  0  0
    3.0018  -16.0757    2.4008 C   0  0  0  0  0  0  0  0  0  0  0  0
    0.7804  -16.4008    3.3258 C   0  0  0  0  0  0  0  0  0  0  0  0
    0.9351  -17.7336    3.1890 C   0  0  0  0  0  0  0  0  0  0  0  0
  1  2  1  0
  7  8  1  0
  8  9  2  3
  5 10  1  0
  9 11  1  0
 10 12  2  0
 10 13  1  0
 13 14  1  0
 14 15  1  1
 14 16  1  0
 16 17  2  0
  2  3  2  0
  3  4  1  0
  4  5  2  0
  5  6  1  0
  6  7  2  0
  2  7  1  0
M  END

$$$$
No_1862-/export/home/yangzhenyu/potential_scad_32_flow//YTHDC2/2024-12-06-03-22-00/
     RDKit          3D

 18 19  0  0  0  0  0  0  0  0999 V2000
    1.1787   -8.0297    3.5154 C   0  0  0  0  0  0  0  0  0  0  0  0
    1.0491   -6.8434    2.9820 C   0  0  0  0  0  0  0  0  0  0  0  0
    0.0950   -8.8404    3.2292 C   0  0  0  0  0  0  0  0  0  0  0  0
   -0.9173   -8.4596    2.5152 C   0  0  0  0  0  0  0  0  0  0  0  0
   -1.0331   -7.2162    2.0653 C   0  0  0  0  0  0  0  0  0  0  0  0
   -0.0105   -6.3168    2.3081 C   0  0  0  0  0  0  0  0  0  0  0  0
    0.1465  -10.2446    3.6981 C   0  0  0  0  0  0  0  0  0  0  0  0
    0.1907  -11.3369    2.8651 F   0  0  0  0  0  0  0  0  0  0  0  0
    1.1424  -10.5332    4.7942 F   0  0  0  0  0  0  0  0  0  0  0  0
   -1.0510  -10.5041    4.4056 Cl  0  0  0  0  0  0  0  0  0  0  0  0
   -0.0516   -4.9748    1.8904 Cl  0  0  0  0  0  0  0  0  0  0  0  0
   -2.3746   -6.7323    1.3615 O   0  0  0  0  0  0  0  0  0  0  0  0
   -3.0509   -7.6319    0.7677 C   0  0  0  0  0  0  0  0  0  0  0  0
   -2.7604   -7.8308   -0.4553 C   0  0  0  0  0  0  0  0  0  0  0  0
   -2.3009   -9.0144   -0.7999 C   0  0  0  0  0  0  0  0  0  0  0  0
   -2.7508  -10.1989   -0.0690 C   0  0  0  0  0  0  0  0  0  0  0  0
   -3.3051   -9.9880    1.0911 C   0  0  0  0  0  0  0  0  0  0  0  0
   -3.4799   -8.7044    1.5860 C   0  0  0  0  0  0  0  0  0  0  0  0
  3  7  1  0
  7  8  1  0
  7  9  1  0
  7 10  1  0
  6 11  1  0
  5 12  1  0
 12 13  1  0
 13 14  2  0
 14 15  1  0
 15 16  2  0
 16 17  1  0
 17 18  2  0
 13 18  1  0
  1  2  2  0
  2  6  1  0
  5  6  2  0
  4  5  1  0
  3  4  2  0
  1  3  1  0
M  END

$$$$
No_1863-/export/home/yangzhenyu/potential_scad_32_flow//YTHDC2/2024-12-06-03-22-00/
     RDKit          3D

 20 22  0  0  0  0  0  0  0  0999 V2000
    1.1787   -8.0297    3.5154 C   0  0  0  0  0  0  0  0  0  0  0  0
    1.0491   -6.8434    2.9820 C   0  0  0  0  0  0  0  0  0  0  0  0
    0.0950   -8.8404    3.2292 C   0  0  0  0  0  0  0  0  0  0  0  0
   -0.9173   -8.4596    2.5152 C   0  0  0  0  0  0  0  0  0  0  0  0
   -1.0331   -7.2162    2.0653 C   0  0  0  0  0  0  0  0  0  0  0  0
   -0.0105   -6.3168    2.3081 C   0  0  0  0  0  0  0  0  0  0  0  0
    0.1465  -10.2446    3.6981 O   0  0  0  0  0  0  0  0  0  0  0  0
    0.0362   -4.9528    1.9186 C   0  0  0  0  0  0  0  0  0  0  0  0
   -0.5014   -4.6491    0.7648 C   0  0  0  0  0  0  0  0  0  0  0  0
   -0.5558   -3.2979    0.3620 C   0  0  0  0  0  0  0  0  0  0  0  0
    0.2549   -2.3359    1.0115 C   0  0  0  0  0  0  0  0  0  0  0  0
    1.0672   -2.7140    2.0330 C   0  0  0  0  0  0  0  0  0  0  0  0
    0.9414   -4.0253    2.5394 C   0  0  0  0  0  0  0  0  0  0  0  0
    0.6134  -11.3031    3.2214 C   0  0  0  0  0  0  0  0  0  0  0  0
   -0.1102  -11.9822    2.3689 C   0  0  0  0  0  0  0  0  0  0  0  0
    0.5332  -12.9831    1.6477 C   0  0  0  0  0  0  0  0  0  0  0  0
   -0.1511  -13.7305    0.6795 C   0  0  0  0  0  0  0  0  0  0  0  0
   -1.4728  -13.5277    0.4507 C   0  0  0  0  0  0  0  0  0  0  0  0
   -2.1457  -12.5930    1.2847 C   0  0  0  0  0  0  0  0  0  0  0  0
   -1.4553  -11.8507    2.2020 C   0  0  0  0  0  0  0  0  0  0  0  0
  3  7  1  0
  6  8  1  0
  7 14  1  0
 14 15  1  0
 15 16  2  0
 16 17  1  0
 17 18  2  0
 18 19  1  0
 19 20  2  0
 15 20  1  0
  1  2  2  0
  2  6  1  0
  5  6  2  0
  4  5  1  0
  3  4  2  0
  1  3  1  0
  8  9  2  0
  9 10  1  0
 10 11  2  0
 11 12  1  0
 12 13  2  0
  8 13  1  0
M  END

$$$$
No_1864-/export/home/yangzhenyu/potential_scad_32_flow//YTHDC2/2024-12-06-03-22-00/
     RDKit          3D

 19 20  0  0  1  0  0  0  0  0999 V2000
    1.1787   -8.0297    3.5154 O   0  0  0  0  0  0  0  0  0  0  0  0
    0.9969   -8.9689    3.0048 C   0  0  1  0  0  0  0  0  0  0  0  0
    0.9976   -8.9567    1.6341 C   0  0  0  0  0  0  0  0  0  0  0  0
    0.7663   -7.7728    1.0082 C   0  0  1  0  0  0  0  0  0  0  0  0
    1.1468   -6.5619    1.6541 C   0  0  0  0  0  0  0  0  0  0  0  0
    1.3592   -6.6155    3.0007 C   0  0  0  0  0  0  0  0  0  0  0  0
    0.9781  -10.1276    3.6866 C   0  0  0  0  0  0  0  0  0  0  0  0
    1.9856  -10.9664    3.7361 C   0  0  0  0  0  0  0  0  0  0  0  0
    0.8263   -7.8148   -0.3756 C   0  0  0  0  0  0  0  0  0  0  0  0
    1.7626   -8.3370   -1.0909 O   0  0  0  0  0  0  0  0  0  0  0  0
   -0.2117   -7.2703   -1.0732 O   0  0  0  0  0  0  0  0  0  0  0  0
    1.8160  -12.3036    3.6187 C   0  0  0  0  0  0  0  0  0  0  0  0
    0.5239  -12.8070    3.7319 C   0  0  0  0  0  0  0  0  0  0  0  0
   -0.5325  -11.9994    3.5815 C   0  0  0  0  0  0  0  0  0  0  0  0
   -0.3545  -10.6365    3.6535 C   0  0  0  0  0  0  0  0  0  0  0  0
    0.5034  -14.1867    3.6259 C   0  0  0  0  0  0  0  0  0  0  0  0
    1.6506   -5.6132    3.7132 O   0  0  0  0  0  0  0  0  0  0  0  0
    0.3848  -14.9484    2.4517 C   0  0  0  0  0  0  0  0  0  0  0  0
    0.3487  -16.3687    2.5740 C   0  0  0  0  0  0  0  0  0  0  0  0
  1  2  1  0
  2  3  1  0
  3  4  1  0
  4  5  1  0
  1  6  1  0
  5  6  1  0
  2  7  1  6
  4  9  1  6
  9 10  2  0
  9 11  1  0
 13 16  1  0
  6 17  2  0
 16 18  1  0
 18 19  2  0
  7  8  2  0
  8 12  1  0
 12 13  2  0
 13 14  1  0
 14 15  2  0
  7 15  1  0
M  END

$$$$
No_1865-/export/home/yangzhenyu/potential_scad_32_flow//YTHDC2/2024-12-06-03-22-00/
     RDKit          3D

 20 20  0  0  1  0  0  0  0  0999 V2000
    1.1787   -8.0297    3.5154 C   0  0  0  0  0  0  0  0  0  0  0  0
    1.1048   -9.2215    3.2892 C   0  0  0  0  0  0  0  0  0  0  0  0
    1.2339   -9.7611    2.0189 C   0  0  0  0  0  0  0  0  0  0  0  0
    1.1954  -11.2312    1.8661 C   0  0  0  0  0  0  0  0  0  0  0  0
    1.5546  -12.1691    2.7931 C   0  0  0  0  0  0  0  0  0  0  0  0
    0.9527   -7.0669    2.3918 C   0  0  0  0  0  0  0  0  0  0  0  0
    1.0618   -7.6392    1.0692 C   0  0  0  0  0  0  0  0  0  0  0  0
    1.2060   -8.9530    0.8578 C   0  0  0  0  0  0  0  0  0  0  0  0
    0.7976  -13.2804    2.9292 C   0  0  0  0  0  0  0  0  0  0  0  0
    1.4049  -14.5454    2.7697 C   0  0  0  0  0  0  0  0  0  0  0  0
    0.5669  -15.7422    3.0683 N   0  0  0  0  0  0  0  0  0  0  0  0
    0.9797   -5.6080    2.4516 Cl  0  0  0  0  0  0  0  0  0  0  0  0
    1.2381   -9.4682   -0.3509 C   0  0  0  0  0  0  0  0  0  0  0  0
    0.2538  -10.2110   -0.8922 O   0  0  0  0  0  0  0  0  0  0  0  0
    2.2487   -9.2273   -1.1952 O   0  0  0  0  0  0  0  0  0  0  0  0
    2.2432  -14.7561    1.8902 O   0  0  0  0  0  0  0  0  0  0  0  0
    1.0668  -17.0090    2.8216 C   0  0  1  0  0  0  0  0  0  0  0  0
    2.0624  -17.4155    3.9600 C   0  0  0  0  0  0  0  0  0  0  0  0
    2.1977  -18.6882    4.0300 O   0  0  0  0  0  0  0  0  0  0  0  0
   -0.0498  -17.8959    2.7055 C   0  0  0  0  0  0  0  0  0  0  0  0
  3  4  1  0
  4  5  1  0
  5  9  1  0
  9 10  1  0
 10 11  1  0
  6 12  1  0
  8 13  1  0
 13 14  2  0
 13 15  1  0
 10 16  2  0
 11 17  1  0
 17 18  1  0
 18 19  2  0
 17 20  1  1
  1  2  2  0
  2  3  1  0
  3  8  2  0
  7  8  1  0
  6  7  2  0
  1  6  1  0
M  END

$$$$
No_1866-/export/home/yangzhenyu/potential_scad_32_flow//YTHDC2/2024-12-06-03-22-00/
     RDKit          3D

 18 20  0  0  0  0  0  0  0  0999 V2000
    1.1787   -8.0297    3.5154 C   0  0  0  0  0  0  0  0  0  0  0  0
    1.0491   -6.8434    2.9820 C   0  0  0  0  0  0  0  0  0  0  0  0
    0.0950   -8.8404    3.2292 C   0  0  0  0  0  0  0  0  0  0  0  0
   -0.9173   -8.4596    2.5152 C   0  0  0  0  0  0  0  0  0  0  0  0
   -1.0331   -7.2162    2.0653 C   0  0  0  0  0  0  0  0  0  0  0  0
    0.1897   -6.3124    2.3579 C   0  0  0  0  0  0  0  0  0  0  0  0
    0.1193  -10.2475    3.6957 C   0  0  0  0  0  0  0  0  0  0  0  0
    1.2103  -10.8364    4.0231 C   0  0  0  0  0  0  0  0  0  0  0  0
    1.0317  -12.3055    4.3670 C   0  0  0  0  0  0  0  0  0  0  0  0
   -0.0208  -12.8683    3.9116 C   0  0  0  0  0  0  0  0  0  0  0  0
   -1.0883  -12.2918    3.5055 C   0  0  0  0  0  0  0  0  0  0  0  0
   -1.0734  -10.9607    3.3452 C   0  0  0  0  0  0  0  0  0  0  0  0
    0.0667   -4.9693    1.8580 C   0  0  0  0  0  0  0  0  0  0  0  0
   -0.3594   -4.6711    0.7248 C   0  0  0  0  0  0  0  0  0  0  0  0
   -0.4965   -3.2834    0.4117 C   0  0  0  0  0  0  0  0  0  0  0  0
    0.2654   -2.3110    1.0890 N   0  0  0  0  0  0  0  0  0  0  0  0
    0.8864   -3.8543    2.4750 C   0  0  0  0  0  0  0  0  0  0  0  0
    0.9360   -2.6655    2.1111 C   0  0  0  0  0  0  0  0  0  0  0  0
  3  7  1  0
  6 13  1  0
  1  2  2  0
  2  6  1  0
  5  6  2  0
  4  5  1  0
  3  4  2  0
  1  3  1  0
 13 14  2  0
 14 15  1  0
 15 16  2  0
 16 18  1  0
 17 18  2  0
 13 17  1  0
  7  8  2  0
  8  9  1  0
  9 10  2  0
 10 11  1  0
 11 12  2  0
  7 12  1  0
M  END

$$$$
No_1867-/export/home/yangzhenyu/potential_scad_32_flow//YTHDC2/2024-12-06-03-22-00/
     RDKit          3D

 17 19  0  0  0  0  0  0  0  0999 V2000
    1.1787   -8.0297    3.5154 C   0  0  0  0  0  0  0  0  0  0  0  0
    1.0491   -6.8434    2.9820 N   0  0  0  0  0  0  0  0  0  0  0  0
    1.0164   -9.0814    2.6596 C   0  0  0  0  0  0  0  0  0  0  0  0
    0.8420   -8.8183    1.4191 C   0  0  0  0  0  0  0  0  0  0  0  0
    0.8845   -7.3142    1.0994 C   0  0  0  0  0  0  0  0  0  0  0  0
    1.0482   -6.4271    1.8642 C   0  0  0  0  0  0  0  0  0  0  0  0
    0.9867  -10.4498    3.1378 C   0  0  0  0  0  0  0  0  0  0  0  0
    1.1510  -11.4926    2.3637 C   0  0  0  0  0  0  0  0  0  0  0  0
    1.2144  -11.1983    0.9578 C   0  0  0  0  0  0  0  0  0  0  0  0
    1.1649   -9.9282    0.4554 C   0  0  0  0  0  0  0  0  0  0  0  0
    1.0021   -5.1261    1.4837 O   0  0  0  0  0  0  0  0  0  0  0  0
    1.3398  -12.7978    2.8280 C   0  0  0  0  0  0  0  0  0  0  0  0
    2.3802  -13.4301    3.0099 C   0  0  0  0  0  0  0  0  0  0  0  0
    2.2448  -14.9336    2.9062 C   0  0  0  0  0  0  0  0  0  0  0  0
    1.1160  -15.5659    2.7230 C   0  0  0  0  0  0  0  0  0  0  0  0
    0.0137  -14.9251    2.5551 C   0  0  0  0  0  0  0  0  0  0  0  0
    0.0386  -13.5025    2.6583 C   0  0  0  0  0  0  0  0  0  0  0  0
  1  2  1  0
  2  6  1  0
  5  6  1  0
  6 11  2  0
  8 12  1  0
  1  3  1  0
  4  5  1  0
 12 13  2  0
 13 14  1  0
 14 15  2  0
 15 16  1  0
 16 17  2  0
 12 17  1  0
  3  4  2  0
  4 10  1  0
  9 10  2  0
  8  9  1  0
  7  8  2  0
  3  7  1  0
M  END

$$$$
No_1868-/export/home/yangzhenyu/potential_scad_32_flow//YTHDC2/2024-12-06-03-22-00/
     RDKit          3D

 15 14  0  0  1  0  0  0  0  0999 V2000
    1.1787   -8.0297    3.5154 O   0  0  0  0  0  0  0  0  0  0  0  0
    0.9969   -8.9689    3.0048 C   0  0  1  0  0  0  0  0  0  0  0  0
    1.3055  -10.1056    3.6616 C   0  0  0  0  0  0  0  0  0  0  0  0
    2.1315  -10.4529    4.2438 C   0  0  0  0  0  0  0  0  0  0  0  0
   -0.0205   -8.7946    1.9507 C   0  0  0  0  0  0  0  0  0  0  0  0
    0.0572   -9.7213    0.9974 C   0  0  0  0  0  0  0  0  0  0  0  0
    1.2251   -9.8784    0.1789 C   0  0  0  0  0  0  0  0  0  0  0  0
    1.6981   -8.8799   -0.6026 O   0  0  0  0  0  0  0  0  0  0  0  0
    1.9019  -10.8868    0.3550 O   0  0  0  0  0  0  0  0  0  0  0  0
    2.4717  -11.8174    4.8570 C   0  0  0  0  0  0  0  0  0  0  0  0
   -0.8432   -7.7507    2.1228 C   0  0  0  0  0  0  0  0  0  0  0  0
   -0.6275   -6.4993    1.6660 C   0  0  0  0  0  0  0  0  0  0  0  0
   -0.9599   -5.5409    2.0925 C   0  0  0  0  0  0  0  0  0  0  0  0
   -2.1160   -5.5488    2.8023 Cl  0  0  0  0  0  0  0  0  0  0  0  0
   -0.4360   -4.1221    1.3891 C   0  0  0  0  0  0  0  0  0  0  0  0
  2  1  1  1
  2  3  1  0
  3  4  2  3
  2  5  1  0
  5  6  1  0
  6  7  1  0
  7  8  1  0
  7  9  2  0
  4 10  1  0
  5 11  1  0
 11 12  1  0
 12 13  2  3
 13 14  1  0
 13 15  1  0
M  END

$$$$
No_1869-/export/home/yangzhenyu/potential_scad_32_flow//YTHDC2/2024-12-06-03-22-00/
     RDKit          3D

 19 21  0  0  0  0  0  0  0  0999 V2000
    1.1787   -8.0297    3.5154 C   0  0  0  0  0  0  0  0  0  0  0  0
    1.1048   -9.2215    3.2892 C   0  0  0  0  0  0  0  0  0  0  0  0
    1.3627  -10.1721    4.3044 C   0  0  0  0  0  0  0  0  0  0  0  0
    1.7354  -11.4730    3.9023 C   0  0  0  0  0  0  0  0  0  0  0  0
    1.8080  -11.8127    2.7216 C   0  0  0  0  0  0  0  0  0  0  0  0
    1.5854  -11.0021    1.7249 C   0  0  0  0  0  0  0  0  0  0  0  0
    1.3573   -9.7389    1.9287 C   0  0  0  0  0  0  0  0  0  0  0  0
    1.1102   -8.8712    0.9017 C   0  0  0  0  0  0  0  0  0  0  0  0
    0.5299   -7.6926    1.0325 C   0  0  0  0  0  0  0  0  0  0  0  0
    0.7526   -7.0802    2.3301 C   0  0  0  0  0  0  0  0  0  0  0  0
    2.0515  -13.2522    2.4284 O   0  0  0  0  0  0  0  0  0  0  0  0
    0.4866   -5.6528    2.5258 C   0  0  0  0  0  0  0  0  0  0  0  0
   -0.6754   -5.1170    2.2557 C   0  0  0  0  0  0  0  0  0  0  0  0
   -0.8560   -3.6991    2.3261 C   0  0  0  0  0  0  0  0  0  0  0  0
    2.0431  -13.8163    1.2768 C   0  0  0  0  0  0  0  0  0  0  0  0
    1.5850   -4.8166    2.9914 C   0  0  0  0  0  0  0  0  0  0  0  0
    0.2424   -2.8978    2.7127 C   0  0  0  0  0  0  0  0  0  0  0  0
    1.4028   -3.4172    3.0496 C   0  0  0  0  0  0  0  0  0  0  0  0
    1.2682   -9.3134   -0.4168 C   0  0  0  0  0  0  0  0  0  0  0  0
  5 11  1  0
 10 12  1  0
 11 15  1  0
  8 19  1  0
  1  2  2  0
  7  8  2  0
  8  9  1  0
  9 10  2  0
  1 10  1  0
  2  3  1  0
  3  4  2  0
  4  5  1  0
  5  6  2  0
  6  7  1  0
  2  7  1  0
 12 13  2  0
 13 14  1  0
 14 17  2  0
 17 18  1  0
 16 18  2  0
 12 16  1  0
M  END

$$$$
No_1870-/export/home/yangzhenyu/potential_scad_32_flow//YTHDC2/2024-12-06-03-22-00/
     RDKit          3D

 18 19  0  0  1  0  0  0  0  0999 V2000
    1.1787   -8.0297    3.5154 C   0  0  0  0  0  0  0  0  0  0  0  0
    1.1048   -9.2215    3.2892 C   0  0  0  0  0  0  0  0  0  0  0  0
    1.3627  -10.1721    4.3044 C   0  0  0  0  0  0  0  0  0  0  0  0
    1.0682  -11.5187    4.0618 C   0  0  0  0  0  0  0  0  0  0  0  0
    0.6332  -11.9655    2.9682 C   0  0  0  0  0  0  0  0  0  0  0  0
    0.4776  -11.1308    1.9203 C   0  0  0  0  0  0  0  0  0  0  0  0
    0.7470   -9.8274    2.0368 C   0  0  0  0  0  0  0  0  0  0  0  0
    0.5535   -7.1314    2.6861 O   0  0  0  0  0  0  0  0  0  0  0  0
    0.3248  -13.5175    2.7383 C   0  0  1  0  0  0  0  0  0  0  0  0
    1.3242  -14.3733    3.1675 C   0  0  0  0  0  0  0  0  0  0  0  0
    1.4666  -15.5951    2.5121 C   0  0  0  0  0  0  0  0  0  0  0  0
    0.6893  -16.7302    2.8154 C   0  0  0  0  0  0  0  0  0  0  0  0
   -0.1936  -16.5227    3.5490 C   0  0  0  0  0  0  0  0  0  0  0  0
   -1.3009  -16.0941    3.2040 C   0  0  0  0  0  0  0  0  0  0  0  0
   -1.3112  -15.3186    2.0888 C   0  0  0  0  0  0  0  0  0  0  0  0
   -0.9914  -13.7771    2.2673 C   0  0  0  0  0  0  0  0  0  0  0  0
   -1.8609  -12.8442    2.0261 O   0  0  0  0  0  0  0  0  0  0  0  0
    0.7129   -9.0089    0.9365 C   0  0  0  0  0  0  0  0  0  0  0  0
  1  2  1  0
  1  8  2  0
  9  5  1  1
  9 10  1  0
 10 11  1  0
 11 12  1  0
 12 13  1  0
 13 14  1  0
 14 15  1  0
  9 16  1  0
 15 16  1  0
 16 17  2  0
  7 18  1  0
  2  3  2  0
  3  4  1  0
  4  5  2  0
  5  6  1  0
  6  7  2  0
  2  7  1  0
M  END

$$$$
No_1871-/export/home/yangzhenyu/potential_scad_32_flow//YTHDC2/2024-12-06-03-22-00/
     RDKit          3D

 19 21  0  0  1  0  0  0  0  0999 V2000
    1.1787   -8.0297    3.5154 C   0  0  0  0  0  0  0  0  0  0  0  0
    1.1048   -9.2215    3.2892 C   0  0  0  0  0  0  0  0  0  0  0  0
    1.2339   -9.7611    2.0189 C   0  0  0  0  0  0  0  0  0  0  0  0
    1.3583   -9.0036    0.9764 C   0  0  0  0  0  0  0  0  0  0  0  0
    1.5996   -7.6362    1.1311 C   0  0  0  0  0  0  0  0  0  0  0  0
    1.4830   -7.0928    2.3626 C   0  0  0  0  0  0  0  0  0  0  0  0
    1.1008  -11.2372    1.8542 C   0  0  2  0  0  0  0  0  0  0  0  0
    1.9749  -12.0938    2.2342 C   0  0  0  0  0  0  0  0  0  0  0  0
    1.7533  -13.4231    1.8956 N   0  0  0  0  0  0  0  0  0  0  0  0
    0.6568  -13.6765    1.3618 C   0  0  0  0  0  0  0  0  0  0  0  0
    0.1943  -12.1556    1.1764 C   0  0  0  0  0  0  0  0  0  0  0  0
    1.5365   -5.6415    2.6195 C   0  0  0  0  0  0  0  0  0  0  0  0
    1.1818   -4.7814    1.6381 C   0  0  0  0  0  0  0  0  0  0  0  0
    0.3114   -3.7374    1.9470 C   0  0  0  0  0  0  0  0  0  0  0  0
    0.8431   -2.5481    2.4054 C   0  0  0  0  0  0  0  0  0  0  0  0
   -0.0733  -14.5389    0.7445 C   0  0  0  0  0  0  0  0  0  0  0  0
   -0.9507  -11.7071    0.4945 C   0  0  0  0  0  0  0  0  0  0  0  0
   -2.0387  -12.4173    1.0189 C   0  0  0  0  0  0  0  0  0  0  0  0
   -1.8665  -13.9446    0.6062 C   0  0  0  0  0  0  0  0  0  0  0  0
  7  3  1  6
  7  8  1  0
  8  9  1  0
  9 10  2  0
  7 11  1  0
 10 11  1  0
  6 12  1  0
 12 13  1  0
 13 14  1  0
 14 15  1  0
 10 16  1  0
 11 17  1  0
 17 18  1  0
 16 19  1  0
 18 19  1  0
  1  2  2  0
  2  3  1  0
  3  4  2  0
  4  5  1  0
  5  6  2  0
  1  6  1  0
M  END

$$$$
No_1872-/export/home/yangzhenyu/potential_scad_32_flow//YTHDC2/2024-12-06-03-22-00/
     RDKit          3D

 18 19  0  0  1  0  0  0  0  0999 V2000
    1.1787   -8.0297    3.5154 C   0  0  0  0  0  0  0  0  0  0  0  0
    1.0491   -6.8434    2.9820 C   0  0  0  0  0  0  0  0  0  0  0  0
    0.9905   -9.0774    2.6527 C   0  0  0  0  0  0  0  0  0  0  0  0
    0.7897   -8.9519    1.3691 C   0  0  0  0  0  0  0  0  0  0  0  0
    0.7018   -7.7198    0.7892 C   0  0  0  0  0  0  0  0  0  0  0  0
    0.8918   -6.5957    1.6117 C   0  0  0  0  0  0  0  0  0  0  0  0
    1.0711  -10.4814    3.2282 C   0  0  2  0  0  0  0  0  0  0  0  0
    2.1432  -11.0138    3.5962 C   0  0  0  0  0  0  0  0  0  0  0  0
    0.4111  -11.5110    2.3547 C   0  0  0  0  0  0  0  0  0  0  0  0
    1.0744  -12.4540    1.9282 C   0  0  0  0  0  0  0  0  0  0  0  0
    0.5940  -13.4257    1.4227 C   0  0  1  0  0  0  0  0  0  0  0  0
   -0.6604  -13.5005    1.0498 C   0  0  0  0  0  0  0  0  0  0  0  0
   -1.4702  -12.4529    1.3484 C   0  0  0  0  0  0  0  0  0  0  0  0
   -0.9400  -11.3700    2.0478 C   0  0  0  0  0  0  0  0  0  0  0  0
    2.1948  -11.0128    5.1833 O   0  0  0  0  0  0  0  0  0  0  0  0
    0.8288   -5.2735    1.1325 I   0  0  0  0  0  0  0  0  0  0  0  0
   -1.7272  -10.3987    2.6210 O   0  0  0  0  0  0  0  0  0  0  0  0
    1.3831  -14.5513    0.8258 Cl  0  0  0  0  0  0  0  0  0  0  0  0
  3  7  1  0
  7  8  1  6
  7  9  1  0
  9 10  1  0
 11 12  1  0
  9 14  1  0
 13 14  1  0
  8 15  1  0
  6 16  1  0
 14 17  2  0
 11 18  1  6
 10 11  1  0
 12 13  1  0
  1  2  2  0
  2  6  1  0
  5  6  2  0
  4  5  1  0
  3  4  2  0
  1  3  1  0
M  END

$$$$
No_1873-/export/home/yangzhenyu/potential_scad_32_flow//YTHDC2/2024-12-06-03-22-00/
     RDKit          3D

 19 21  0  0  0  0  0  0  0  0999 V2000
    1.1787   -8.0297    3.5154 C   0  0  0  0  0  0  0  0  0  0  0  0
    1.0491   -6.8434    2.9820 C   0  0  0  0  0  0  0  0  0  0  0  0
    0.0950   -8.8404    3.2292 C   0  0  0  0  0  0  0  0  0  0  0  0
   -0.9173   -8.4596    2.5152 C   0  0  0  0  0  0  0  0  0  0  0  0
   -1.0331   -7.2162    2.0653 C   0  0  0  0  0  0  0  0  0  0  0  0
   -0.0105   -6.3168    2.3081 C   0  0  0  0  0  0  0  0  0  0  0  0
    0.1465  -10.2446    3.6981 C   0  0  0  0  0  0  0  0  0  0  0  0
    0.1907  -11.3369    2.8651 C   0  0  0  0  0  0  0  0  0  0  0  0
    1.0128  -11.8996    2.5974 C   0  0  0  0  0  0  0  0  0  0  0  0
    1.2328  -13.0891    1.8129 C   0  0  0  0  0  0  0  0  0  0  0  0
    0.1831  -13.5436    1.2817 C   0  0  0  0  0  0  0  0  0  0  0  0
   -0.9583  -12.9140    1.3153 C   0  0  0  0  0  0  0  0  0  0  0  0
   -1.0325  -11.7940    2.1538 C   0  0  0  0  0  0  0  0  0  0  0  0
    0.0368   -4.7927    1.8437 C   0  0  0  0  0  0  0  0  0  0  0  0
   -0.5609   -4.5881    0.7526 C   0  0  0  0  0  0  0  0  0  0  0  0
   -1.0666   -3.4634    0.6099 C   0  0  0  0  0  0  0  0  0  0  0  0
   -0.4119   -2.3744    1.2929 C   0  0  0  0  0  0  0  0  0  0  0  0
    0.4003   -2.5604    2.2202 C   0  0  0  0  0  0  0  0  0  0  0  0
    0.6227   -3.9063    2.6182 C   0  0  0  0  0  0  0  0  0  0  0  0
  3  7  1  0
  7  8  1  0
  6 14  1  0
 14 15  2  0
 15 16  1  0
 16 17  2  0
 17 18  1  0
 18 19  2  0
 14 19  1  0
  1  2  2  0
  2  6  1  0
  5  6  2  0
  4  5  1  0
  3  4  2  0
  1  3  1  0
  8  9  2  0
  9 10  1  0
 10 11  2  0
 11 12  1  0
 12 13  2  0
  8 13  1  0
M  END

$$$$
No_1874-/export/home/yangzhenyu/potential_scad_32_flow//YTHDC2/2024-12-06-03-22-00/
     RDKit          3D

 18 18  0  0  0  0  0  0  0  0999 V2000
    1.1787   -8.0297    3.5154 C   0  0  0  0  0  0  0  0  0  0  0  0
    1.0491   -6.8434    2.9820 C   0  0  0  0  0  0  0  0  0  0  0  0
    1.9985   -8.9840    2.8958 C   0  0  0  0  0  0  0  0  0  0  0  0
    1.9135  -10.3404    3.6266 C   0  0  0  0  0  0  0  0  0  0  0  0
    2.2847  -10.5440    4.7936 C   0  0  0  0  0  0  0  0  0  0  0  0
    1.7595   -5.7666    3.2682 C   0  0  0  0  0  0  0  0  0  0  0  0
    1.3487   -4.6007    2.5276 C   0  0  0  0  0  0  0  0  0  0  0  0
    0.4726   -4.6421    1.5007 C   0  0  0  0  0  0  0  0  0  0  0  0
   -0.1064   -5.8239    1.1311 C   0  0  0  0  0  0  0  0  0  0  0  0
    0.1430   -6.9443    1.8171 C   0  0  0  0  0  0  0  0  0  0  0  0
   -0.5049   -8.0161    1.5136 C   0  0  0  0  0  0  0  0  0  0  0  0
   -1.4707   -8.6832    2.1432 O   0  0  0  0  0  0  0  0  0  0  0  0
   -0.6234   -8.4818    0.1655 N   0  0  0  0  0  0  0  0  0  0  0  0
   -1.2876   -9.6279   -0.2201 C   0  0  0  0  0  0  0  0  0  0  0  0
   -0.7330  -10.8723   -0.1511 C   0  0  0  0  0  0  0  0  0  0  0  0
    0.5884  -10.9903    0.3161 C   0  0  0  0  0  0  0  0  0  0  0  0
   -1.4062  -12.0478   -0.4849 O   0  0  0  0  0  0  0  0  0  0  0  0
    1.4393  -11.4993    2.8613 C   0  0  0  0  0  0  0  0  0  0  0  0
  1  2  1  0
  1  3  1  0
  3  4  1  0
  4  5  1  0
 10 11  1  0
 11 12  2  0
 11 13  1  0
 13 14  1  0
 14 15  1  0
 15 16  2  0
 15 17  1  0
  4 18  1  0
  2  6  2  0
  6  7  1  0
  7  8  2  0
  8  9  1  0
  9 10  2  0
  2 10  1  0
M  END

$$$$
No_1875-/export/home/yangzhenyu/potential_scad_32_flow//YTHDC2/2024-12-06-03-22-00/
     RDKit          3D

 19 21  0  0  1  0  0  0  0  0999 V2000
    1.1787   -8.0297    3.5154 N   0  0  0  0  0  0  0  0  0  0  0  0
    1.0818   -9.0751    3.2053 C   0  0  0  0  0  0  0  0  0  0  0  0
    1.5216  -10.1164    3.9747 C   0  0  0  0  0  0  0  0  0  0  0  0
    1.4420  -11.4363    3.6461 C   0  0  0  0  0  0  0  0  0  0  0  0
    0.5969  -11.7648    2.6785 C   0  0  0  0  0  0  0  0  0  0  0  0
    0.0096  -10.8332    1.9506 C   0  0  0  0  0  0  0  0  0  0  0  0
    0.3359   -9.5186    2.1388 C   0  0  0  0  0  0  0  0  0  0  0  0
    0.8819   -6.9011    2.6487 C   0  0  2  0  0  0  0  0  0  0  0  0
    0.4076   -7.2265    1.4607 N   0  0  0  0  0  0  0  0  0  0  0  0
    0.0633   -8.4448    1.1740 C   0  0  0  0  0  0  0  0  0  0  0  0
   -0.4997   -8.6880    0.0350 O   0  0  0  0  0  0  0  0  0  0  0  0
    1.2867   -5.5457    3.0370 N   0  0  0  0  0  0  0  0  0  0  0  0
    0.3434  -13.1871    2.4008 C   0  0  0  0  0  0  0  0  0  0  0  0
    1.2441  -14.1142    2.7954 C   0  0  0  0  0  0  0  0  0  0  0  0
    0.8552  -15.4905    2.8141 C   0  0  0  0  0  0  0  0  0  0  0  0
   -0.1684  -15.8969    2.2716 C   0  0  0  0  0  0  0  0  0  0  0  0
   -1.0564  -15.0394    1.7758 C   0  0  0  0  0  0  0  0  0  0  0  0
   -0.7668  -13.6265    1.8573 C   0  0  0  0  0  0  0  0  0  0  0  0
   -0.5109  -17.2192    2.0451 C   0  0  0  0  0  0  0  0  0  0  0  0
  1  2  1  0
  8  9  1  0
  7 10  1  0
  9 10  1  0
 10 11  2  0
  8 12  1  6
  5 13  1  0
 16 19  1  0
  1  8  1  0
  2  3  2  0
  3  4  1  0
  4  5  2  0
  5  6  1  0
  6  7  2  0
  2  7  1  0
 13 14  2  0
 14 15  1  0
 15 16  2  0
 16 17  1  0
 17 18  2  0
 13 18  1  0
M  END

$$$$
No_1876-/export/home/yangzhenyu/potential_scad_32_flow//YTHDC2/2024-12-06-03-22-00/
     RDKit          3D

 17 18  0  0  0  0  0  0  0  0999 V2000
    1.1787   -8.0297    3.5154 C   0  0  0  0  0  0  0  0  0  0  0  0
    1.1048   -9.2215    3.2892 C   0  0  0  0  0  0  0  0  0  0  0  0
    1.2339   -9.7611    2.0189 C   0  0  0  0  0  0  0  0  0  0  0  0
    1.3583   -9.0036    0.9764 C   0  0  0  0  0  0  0  0  0  0  0  0
    1.5996   -7.6362    1.1311 C   0  0  0  0  0  0  0  0  0  0  0  0
    1.4830   -7.0928    2.3626 C   0  0  0  0  0  0  0  0  0  0  0  0
    1.1008  -11.2372    1.8542 C   0  0  0  0  0  0  0  0  0  0  0  0
    1.9749  -12.0938    2.2342 C   0  0  0  0  0  0  0  0  0  0  0  0
    1.7533  -13.4231    1.8956 C   0  0  0  0  0  0  0  0  0  0  0  0
    0.8624  -13.8318    1.1071 C   0  0  0  0  0  0  0  0  0  0  0  0
   -0.0624  -12.9093    0.5581 C   0  0  0  0  0  0  0  0  0  0  0  0
    0.1157  -11.5285    0.9404 C   0  0  0  0  0  0  0  0  0  0  0  0
    1.5561   -5.6354    2.6426 N   0  0  0  0  0  0  0  0  0  0  0  0
   -0.8278  -10.6307    0.4883 C   0  0  0  0  0  0  0  0  0  0  0  0
   -1.9133  -10.3101    1.3419 N   0  0  0  0  0  0  0  0  0  0  0  0
   -2.3737  -11.1176    2.1613 C   0  0  0  0  0  0  0  0  0  0  0  0
   -3.6129  -10.9576    2.7980 C   0  0  0  0  0  0  0  0  0  0  0  0
  3  7  1  0
  6 13  1  0
 12 14  1  0
 14 15  1  0
 15 16  1  0
 16 17  2  0
  1  2  2  0
  2  3  1  0
  3  4  2  0
  4  5  1  0
  5  6  2  0
  1  6  1  0
  7  8  2  0
  8  9  1  0
  9 10  2  0
 10 11  1  0
 11 12  2  0
  7 12  1  0
M  END

$$$$
No_1877-/export/home/yangzhenyu/potential_scad_32_flow//YTHDC2/2024-12-06-03-22-00/
     RDKit          3D

 16 17  0  0  0  0  0  0  0  0999 V2000
    1.1787   -8.0297    3.5154 C   0  0  0  0  0  0  0  0  0  0  0  0
    1.1048   -9.2215    3.2892 C   0  0  0  0  0  0  0  0  0  0  0  0
    1.3627  -10.1721    4.3044 C   0  0  0  0  0  0  0  0  0  0  0  0
    1.7354  -11.4730    3.9023 C   0  0  0  0  0  0  0  0  0  0  0  0
    1.8080  -11.8127    2.7216 C   0  0  0  0  0  0  0  0  0  0  0  0
    1.5854  -11.0021    1.7249 C   0  0  0  0  0  0  0  0  0  0  0  0
    1.3573   -9.7389    1.9287 C   0  0  0  0  0  0  0  0  0  0  0  0
    1.1102   -8.8712    0.9017 C   0  0  0  0  0  0  0  0  0  0  0  0
    0.5299   -7.6926    1.0325 C   0  0  0  0  0  0  0  0  0  0  0  0
    0.7526   -7.0802    2.3301 C   0  0  0  0  0  0  0  0  0  0  0  0
    2.0528  -13.2563    2.4302 C   0  0  0  0  0  0  0  0  0  0  0  0
    2.3796  -13.7498    1.3110 N   0  0  0  0  0  0  0  0  0  0  0  0
    2.0273  -14.1622    3.3805 O   0  0  0  0  0  0  0  0  0  0  0  0
    0.5937   -5.7130    2.5489 C   0  0  0  0  0  0  0  0  0  0  0  0
    1.0335   -4.8411    1.6550 O   0  0  0  0  0  0  0  0  0  0  0  0
    0.0820   -5.2287    3.5802 O   0  0  0  0  0  0  0  0  0  0  0  0
  5 11  1  0
 11 12  1  0
 11 13  2  0
 10 14  1  0
 14 15  2  0
 14 16  1  0
  1  2  2  0
  7  8  2  0
  8  9  1  0
  9 10  2  0
  1 10  1  0
  2  3  1  0
  3  4  2  0
  4  5  1  0
  5  6  2  0
  6  7  1  0
  2  7  1  0
M  END

$$$$
No_1878-/export/home/yangzhenyu/potential_scad_32_flow//YTHDC2/2024-12-06-03-22-00/
     RDKit          3D

 17 18  0  0  1  0  0  0  0  0999 V2000
    1.1787   -8.0297    3.5154 C   0  0  0  0  0  0  0  0  0  0  0  0
    1.1048   -9.2215    3.2892 C   0  0  2  0  0  0  0  0  0  0  0  0
    1.3627  -10.1721    4.3044 C   0  0  0  0  0  0  0  0  0  0  0  0
    2.3720  -10.8948    4.2468 C   0  0  2  0  0  0  0  0  0  0  0  0
    2.9262  -11.1926    3.1170 C   0  0  0  0  0  0  0  0  0  0  0  0
    2.5807  -10.4593    1.9550 C   0  0  0  0  0  0  0  0  0  0  0  0
    1.7065   -9.4353    2.0233 C   0  0  0  0  0  0  0  0  0  0  0  0
    1.3623   -8.6610    1.0017 C   0  0  2  0  0  0  0  0  0  0  0  0
    0.6938   -7.5136    1.2430 C   0  0  0  0  0  0  0  0  0  0  0  0
    0.6151   -7.0124    2.4820 C   0  0  0  0  0  0  0  0  0  0  0  0
    1.5937   -9.0426   -0.3865 C   0  0  0  0  0  0  0  0  0  0  0  0
    0.7307   -9.1601   -1.1839 O   0  0  0  0  0  0  0  0  0  0  0  0
    2.8600   -8.9806   -0.8792 O   0  0  0  0  0  0  0  0  0  0  0  0
    0.1496   -5.7815    2.7344 O   0  0  0  0  0  0  0  0  0  0  0  0
    2.5928  -11.8675    5.2805 O   0  0  0  0  0  0  0  0  0  0  0  0
   -0.4304   -9.5963    3.2346 O   0  0  0  0  0  0  0  0  0  0  0  0
   -1.2812   -9.0422    4.0381 C   0  0  0  0  0  0  0  0  0  0  0  0
  1  2  1  0
  2  3  1  0
  4  5  1  0
  2  7  1  0
  6  7  1  0
  7  8  1  0
  1 10  1  0
  9 10  1  0
  8 11  1  6
 11 12  2  0
 11 13  1  0
 10 14  2  0
  4 15  1  6
  2 16  1  6
 16 17  1  0
  3  4  1  0
  5  6  1  0
  8  9  1  0
M  END

$$$$
No_1879-/export/home/yangzhenyu/potential_scad_32_flow//YTHDC2/2024-12-06-03-22-00/
     RDKit          3D

 18 19  0  0  0  0  0  0  0  0999 V2000
    1.1787   -8.0297    3.5154 C   0  0  0  0  0  0  0  0  0  0  0  0
    1.0491   -6.8434    2.9820 C   0  0  0  0  0  0  0  0  0  0  0  0
    0.9905   -9.0774    2.6527 C   0  0  0  0  0  0  0  0  0  0  0  0
    0.7897   -8.9519    1.3691 C   0  0  0  0  0  0  0  0  0  0  0  0
    0.7018   -7.7198    0.7892 C   0  0  0  0  0  0  0  0  0  0  0  0
    0.8918   -6.5957    1.6117 C   0  0  0  0  0  0  0  0  0  0  0  0
    1.0998  -10.4710    3.2437 C   0  0  0  0  0  0  0  0  0  0  0  0
    0.0471  -11.2546    3.3963 C   0  0  0  0  0  0  0  0  0  0  0  0
    0.1622  -12.5732    3.4140 C   0  0  0  0  0  0  0  0  0  0  0  0
    1.4182  -13.1957    3.4048 C   0  0  0  0  0  0  0  0  0  0  0  0
    2.5550  -12.3947    3.0877 C   0  0  0  0  0  0  0  0  0  0  0  0
    2.4166  -11.0849    2.9699 C   0  0  0  0  0  0  0  0  0  0  0  0
    0.8571   -5.2495    1.2086 O   0  0  0  0  0  0  0  0  0  0  0  0
    1.4152  -14.5596    3.3708 O   0  0  0  0  0  0  0  0  0  0  0  0
    0.4376  -15.3815    3.0013 C   0  0  0  0  0  0  0  0  0  0  0  0
    0.1607  -16.3015    3.9188 C   0  0  0  0  0  0  0  0  0  0  0  0
   -0.9696  -16.8042    4.0388 C   0  0  0  0  0  0  0  0  0  0  0  0
   -1.8344  -16.7283    3.0669 C   0  0  0  0  0  0  0  0  0  0  0  0
  1  2  1  0
  3  4  1  0
  2  6  1  0
  5  6  1  0
  3  7  1  0
  6 13  2  0
 10 14  1  0
 14 15  1  0
 15 16  1  0
 16 17  2  3
 17 18  1  0
  1  3  1  0
  4  5  1  0
  7  8  2  0
  8  9  1  0
  9 10  2  0
 10 11  1  0
 11 12  2  0
  7 12  1  0
M  END

$$$$
No_1880-/export/home/yangzhenyu/potential_scad_32_flow//YTHDC2/2024-12-06-03-22-00/
     RDKit          3D

 18 18  0  0  0  0  0  0  0  0999 V2000
    1.1787   -8.0297    3.5154 O   0  0  0  0  0  0  0  0  0  0  0  0
    0.9969   -8.9689    3.0048 C   0  0  0  0  0  0  0  0  0  0  0  0
    1.3055  -10.1056    3.6616 C   0  0  0  0  0  0  0  0  0  0  0  0
    1.1249  -11.3503    3.0941 C   0  0  0  0  0  0  0  0  0  0  0  0
    0.6932  -11.4484    1.8586 C   0  0  0  0  0  0  0  0  0  0  0  0
    0.5498  -10.3736    1.0579 C   0  0  0  0  0  0  0  0  0  0  0  0
    0.7643   -9.1185    1.6383 C   0  0  0  0  0  0  0  0  0  0  0  0
    1.0439   -7.9969    1.0939 C   0  0  0  0  0  0  0  0  0  0  0  0
    1.0518   -6.8042    1.4063 O   0  0  0  0  0  0  0  0  0  0  0  0
    0.7903   -8.0461   -0.4649 N   0  0  0  0  0  0  0  0  0  0  0  0
    1.1388  -12.8075    4.0142 Cl  0  0  0  0  0  0  0  0  0  0  0  0
    0.4782  -12.6978    1.1031 O   0  0  0  0  0  0  0  0  0  0  0  0
   -0.5694  -13.0037    0.5418 C   0  0  0  0  0  0  0  0  0  0  0  0
    0.3956   -8.5859   -1.3240 C   0  0  0  0  0  0  0  0  0  0  0  0
   -1.1113   -8.4370   -1.2848 C   0  0  0  0  0  0  0  0  0  0  0  0
   -1.6570   -7.3603   -1.0011 C   0  0  0  0  0  0  0  0  0  0  0  0
   -2.4712   -7.4905    0.1488 C   0  0  0  0  0  0  0  0  0  0  0  0
   -2.9415   -8.7932    0.4349 C   0  0  0  0  0  0  0  0  0  0  0  0
  1  2  1  0
  7  8  1  0
  8  9  2  0
  8 10  1  0
  4 11  1  0
  5 12  1  0
 12 13  1  0
 10 14  1  0
 14 15  1  0
 15 16  1  0
 16 17  2  3
 17 18  1  0
  2  3  2  0
  3  4  1  0
  4  5  2  0
  5  6  1  0
  6  7  2  0
  2  7  1  0
M  END

$$$$
No_1881-/export/home/yangzhenyu/potential_scad_32_flow//YTHDC2/2024-12-06-03-22-00/
     RDKit          3D

 18 19  0  0  0  0  0  0  0  0999 V2000
    1.1787   -8.0297    3.5154 C   0  0  0  0  0  0  0  0  0  0  0  0
    1.0491   -6.8434    2.9820 C   0  0  0  0  0  0  0  0  0  0  0  0
    0.9905   -9.0774    2.6527 C   0  0  0  0  0  0  0  0  0  0  0  0
    0.7897   -8.9519    1.3691 C   0  0  0  0  0  0  0  0  0  0  0  0
    0.7018   -7.7198    0.7892 C   0  0  0  0  0  0  0  0  0  0  0  0
    0.8918   -6.5957    1.6117 C   0  0  0  0  0  0  0  0  0  0  0  0
    1.0998  -10.4710    3.2437 C   0  0  0  0  0  0  0  0  0  0  0  0
    2.1917  -10.8879    3.7399 C   0  0  0  0  0  0  0  0  0  0  0  0
    0.8624   -5.2493    1.2482 C   0  0  0  0  0  0  0  0  0  0  0  0
   -0.0778  -10.6651    4.2494 C   0  0  0  0  0  0  0  0  0  0  0  0
    0.2205   -4.2890    2.0455 C   0  0  0  0  0  0  0  0  0  0  0  0
    1.0113   -3.3738    2.6417 C   0  0  0  0  0  0  0  0  0  0  0  0
    0.2939   -2.5501    3.5939 C   0  0  0  0  0  0  0  0  0  0  0  0
   -1.0463   -2.5679    3.5059 C   0  0  0  0  0  0  0  0  0  0  0  0
   -1.7985   -3.4514    2.8023 C   0  0  0  0  0  0  0  0  0  0  0  0
   -1.1976   -4.2629    2.0192 C   0  0  0  0  0  0  0  0  0  0  0  0
   -1.9150   -5.0012    1.2137 N   0  0  0  0  0  0  0  0  0  0  0  0
   -3.1534   -3.4584    2.8705 C   0  0  0  0  0  0  0  0  0  0  0  0
  3  7  1  0
  7  8  1  0
  6  9  1  0
  7 10  1  0
  9 11  1  0
 15 18  1  0
 16 17  1  0
 11 12  2  0
 12 13  1  0
 13 14  2  0
 14 15  1  0
 15 16  2  0
 11 16  1  0
  1  2  2  0
  2  6  1  0
  5  6  2  0
  4  5  1  0
  3  4  2  0
  1  3  1  0
M  END

$$$$
No_1882-/export/home/yangzhenyu/potential_scad_32_flow//YTHDC2/2024-12-06-03-22-00/
     RDKit          3D

 18 19  0  0  0  0  0  0  0  0999 V2000
    1.1787   -8.0297    3.5154 C   0  0  0  0  0  0  0  0  0  0  0  0
    1.1048   -9.2215    3.2892 C   0  0  0  0  0  0  0  0  0  0  0  0
    1.2339   -9.7611    2.0189 C   0  0  0  0  0  0  0  0  0  0  0  0
    1.1954  -11.2312    1.8661 C   0  0  0  0  0  0  0  0  0  0  0  0
    1.5546  -12.1691    2.7931 C   0  0  0  0  0  0  0  0  0  0  0  0
    0.5849   -7.0929    2.5729 C   0  0  0  0  0  0  0  0  0  0  0  0
    0.5567   -7.6699    1.1955 C   0  0  0  0  0  0  0  0  0  0  0  0
    0.7903   -8.9699    0.9209 C   0  0  0  0  0  0  0  0  0  0  0  0
    1.5479  -13.4950    2.3569 C   0  0  0  0  0  0  0  0  0  0  0  0
    1.2456  -13.9001    1.1648 C   0  0  0  0  0  0  0  0  0  0  0  0
    1.0233  -13.0589    0.1983 C   0  0  0  0  0  0  0  0  0  0  0  0
    0.9548  -11.6626    0.4956 C   0  0  0  0  0  0  0  0  0  0  0  0
    0.6143   -5.6362    2.6298 C   0  0  0  0  0  0  0  0  0  0  0  0
    0.9959   -4.8411    1.7848 C   0  0  0  0  0  0  0  0  0  0  0  0
    0.4952   -4.5479    0.7589 C   0  0  0  0  0  0  0  0  0  0  0  0
   -0.2054   -3.5984    0.4465 C   0  0  0  0  0  0  0  0  0  0  0  0
   -1.0674   -3.4243   -0.7058 C   0  0  0  0  0  0  0  0  0  0  0  0
   -1.6813   -2.2955   -1.0552 C   0  0  0  0  0  0  0  0  0  0  0  0
  3  4  1  0
  6 13  1  0
 13 14  1  0
 14 15  2  3
 15 16  1  0
 16 17  2  3
 17 18  1  0
  1  2  2  0
  2  3  1  0
  3  8  2  0
  7  8  1  0
  6  7  2  0
  1  6  1  0
  4  5  2  0
  5  9  1  0
  9 10  2  0
 10 11  1  0
 11 12  2  0
  4 12  1  0
M  END

$$$$
No_1883-/export/home/yangzhenyu/potential_scad_32_flow//YTHDC2/2024-12-06-03-22-00/
     RDKit          3D

 19 20  0  0  0  0  0  0  0  0999 V2000
    1.1787   -8.0297    3.5154 C   0  0  0  0  0  0  0  0  0  0  0  0
    1.0491   -6.8434    2.9820 C   0  0  0  0  0  0  0  0  0  0  0  0
    1.9985   -8.9840    2.8958 C   0  0  0  0  0  0  0  0  0  0  0  0
    1.7297   -9.2108    1.6335 C   0  0  0  0  0  0  0  0  0  0  0  0
    1.5234   -8.1478    0.8618 C   0  0  0  0  0  0  0  0  0  0  0  0
    0.7424   -5.6589    3.4622 C   0  0  0  0  0  0  0  0  0  0  0  0
    1.1288   -6.9849    1.4057 C   0  0  0  0  0  0  0  0  0  0  0  0
    0.9092   -4.4188    2.8322 O   0  0  0  0  0  0  0  0  0  0  0  0
    2.0557  -10.3194    3.6758 N   0  0  0  0  0  0  0  0  0  0  0  0
    1.6995  -11.3747    3.9062 C   0  0  0  0  0  0  0  0  0  0  0  0
    1.0395  -11.9508    2.9696 C   0  0  0  0  0  0  0  0  0  0  0  0
   -0.2774  -11.8087    2.8377 C   0  0  0  0  0  0  0  0  0  0  0  0
   -1.0084  -12.6255    1.9894 C   0  0  0  0  0  0  0  0  0  0  0  0
   -0.4224  -13.5577    1.2336 C   0  0  0  0  0  0  0  0  0  0  0  0
    0.9255  -13.7292    1.2960 C   0  0  0  0  0  0  0  0  0  0  0  0
    1.6791  -12.9291    2.1776 C   0  0  0  0  0  0  0  0  0  0  0  0
    1.6202   -8.1834   -0.5483 C   0  0  0  0  0  0  0  0  0  0  0  0
    2.5382   -8.9359   -1.1160 O   0  0  0  0  0  0  0  0  0  0  0  0
    0.8538   -7.8148   -1.3792 O   0  0  0  0  0  0  0  0  0  0  0  0
  2  6  1  0
  6  8  1  0
  3  9  1  0
  9 10  1  0
 10 11  1  0
  5 17  1  0
 17 18  2  0
 17 19  1  0
  1  2  2  0
  2  7  1  0
  5  7  2  0
  4  5  1  0
  3  4  2  0
  1  3  1  0
 11 12  2  0
 12 13  1  0
 13 14  2  0
 14 15  1  0
 15 16  2  0
 11 16  1  0
M  END

$$$$
No_1884-/export/home/yangzhenyu/potential_scad_32_flow//YTHDC2/2024-12-06-03-22-00/
     RDKit          3D

 20 21  0  0  0  0  0  0  0  0999 V2000
    1.1787   -8.0297    3.5154 C   0  0  0  0  0  0  0  0  0  0  0  0
    1.0491   -6.8434    2.9820 N   0  0  0  0  0  0  0  0  0  0  0  0
    0.1476   -8.8697    3.1493 C   0  0  0  0  0  0  0  0  0  0  0  0
   -0.7634   -8.3679    2.4311 C   0  0  0  0  0  0  0  0  0  0  0  0
   -0.1709   -6.9105    2.2426 C   0  0  0  0  0  0  0  0  0  0  0  0
    0.1600  -10.2773    3.5999 C   0  0  0  0  0  0  0  0  0  0  0  0
    1.0002  -10.7230    4.3111 C   0  0  0  0  0  0  0  0  0  0  0  0
    1.0465  -12.2104    4.4852 C   0  0  0  0  0  0  0  0  0  0  0  0
    0.9059  -12.8260    3.3216 C   0  0  0  0  0  0  0  0  0  0  0  0
    0.0377  -12.4098    2.4259 C   0  0  0  0  0  0  0  0  0  0  0  0
   -0.2570  -11.0235    2.4336 C   0  0  0  0  0  0  0  0  0  0  0  0
    1.2238  -14.3741    3.4559 N   0  0  0  0  0  0  0  0  0  0  0  0
    1.8190  -14.9690    2.5126 C   0  0  0  0  0  0  0  0  0  0  0  0
    2.5020  -14.2817    1.5391 C   0  0  0  0  0  0  0  0  0  0  0  0
    2.0288  -16.2864    2.6785 C   0  0  0  0  0  0  0  0  0  0  0  0
   -0.7822   -5.7778    1.6838 C   0  0  0  0  0  0  0  0  0  0  0  0
   -0.3059   -4.6506    1.7118 C   0  0  0  0  0  0  0  0  0  0  0  0
   -0.8948   -3.4767    1.1533 C   0  0  0  0  0  0  0  0  0  0  0  0
   -2.0543   -3.8587    0.3873 C   0  0  0  0  0  0  0  0  0  0  0  0
   -2.5814   -4.9878    0.2970 C   0  0  0  0  0  0  0  0  0  0  0  0
  1  2  1  0
  1  3  2  0
  3  4  1  0
  2  5  2  0
  4  5  1  0
  3  6  1  0
  9 12  1  0
 12 13  1  0
 13 14  1  0
 13 15  1  0
  5 16  1  0
 16 17  2  3
 17 18  1  0
 18 19  2  3
 19 20  1  0
  6  7  2  0
  7  8  1  0
  8  9  2  0
  9 10  1  0
 10 11  2  0
  6 11  1  0
M  END

$$$$
No_1885-/export/home/yangzhenyu/potential_scad_32_flow//YTHDC2/2024-12-06-03-22-00/
     RDKit          3D

 17 19  0  0  0  0  0  0  0  0999 V2000
    1.1787   -8.0297    3.5154 C   0  0  0  0  0  0  0  0  0  0  0  0
    1.0491   -6.8434    2.9820 C   0  0  0  0  0  0  0  0  0  0  0  0
    0.0950   -8.8404    3.2292 C   0  0  0  0  0  0  0  0  0  0  0  0
   -0.9173   -8.4596    2.5152 C   0  0  0  0  0  0  0  0  0  0  0  0
   -1.0331   -7.2162    2.0653 C   0  0  0  0  0  0  0  0  0  0  0  0
   -0.0105   -6.3168    2.3081 C   0  0  0  0  0  0  0  0  0  0  0  0
    0.1465  -10.2446    3.6981 C   0  0  0  0  0  0  0  0  0  0  0  0
   -1.0337  -10.8619    3.9439 C   0  0  0  0  0  0  0  0  0  0  0  0
   -2.1702  -10.4673    3.2991 C   0  0  0  0  0  0  0  0  0  0  0  0
   -2.1358   -9.2084    2.5791 C   0  0  0  0  0  0  0  0  0  0  0  0
   -0.0407   -4.9560    1.8452 C   0  0  0  0  0  0  0  0  0  0  0  0
   -0.4780   -4.7482    0.6039 C   0  0  0  0  0  0  0  0  0  0  0  0
   -1.2294   -5.3359   -0.0071 C   0  0  0  0  0  0  0  0  0  0  0  0
   -0.4801   -3.2505    0.2244 C   0  0  0  0  0  0  0  0  0  0  0  0
   -1.1044   -2.7368   -0.8988 C   0  0  0  0  0  0  0  0  0  0  0  0
   -1.7592   -3.6090   -1.6350 C   0  0  0  0  0  0  0  0  0  0  0  0
   -1.9651   -4.9257   -1.2299 C   0  0  0  0  0  0  0  0  0  0  0  0
  6 11  1  0
 11 12  1  0
  4 10  2  0
  9 10  1  0
  8  9  2  0
  7  8  1  0
  3  7  2  0
  1  2  2  0
  2  6  1  0
  5  6  2  0
  4  5  1  0
  3  4  1  0
  1  3  1  0
 12 13  2  0
 13 17  1  0
 16 17  2  0
 15 16  1  0
 14 15  2  0
 12 14  1  0
M  END

$$$$
No_1886-/export/home/yangzhenyu/potential_scad_32_flow//YTHDC2/2024-12-06-03-22-00/
     RDKit          3D

 17 18  0  0  0  0  0  0  0  0999 V2000
    1.1787   -8.0297    3.5154 C   0  0  0  0  0  0  0  0  0  0  0  0
    1.1048   -9.2215    3.2892 C   0  0  0  0  0  0  0  0  0  0  0  0
    1.3627  -10.1721    4.3044 C   0  0  0  0  0  0  0  0  0  0  0  0
    1.7354  -11.4730    3.9023 C   0  0  0  0  0  0  0  0  0  0  0  0
    1.8080  -11.8127    2.7216 C   0  0  0  0  0  0  0  0  0  0  0  0
    1.5854  -11.0021    1.7249 C   0  0  0  0  0  0  0  0  0  0  0  0
    1.3573   -9.7389    1.9287 C   0  0  0  0  0  0  0  0  0  0  0  0
    1.2865   -8.8078    0.9161 F   0  0  0  0  0  0  0  0  0  0  0  0
    2.0399  -13.2385    2.3569 C   0  0  0  0  0  0  0  0  0  0  0  0
    1.1941  -14.0079    1.7094 C   0  0  0  0  0  0  0  0  0  0  0  0
    1.5784  -15.0742    1.1323 C   0  0  0  0  0  0  0  0  0  0  0  0
    0.6458  -15.7854    0.3637 C   0  0  0  0  0  0  0  0  0  0  0  0
   -0.4817  -15.2661   -0.0362 C   0  0  0  0  0  0  0  0  0  0  0  0
   -0.8086  -14.0227    0.3238 C   0  0  0  0  0  0  0  0  0  0  0  0
    0.0196  -13.2956    1.2637 C   0  0  0  0  0  0  0  0  0  0  0  0
    0.8765   -7.0008    2.6228 O   0  0  0  0  0  0  0  0  0  0  0  0
   -2.1591  -13.1862   -0.0903 C   0  0  0  0  0  0  0  0  0  0  0  0
  1  2  1  0
  7  8  1  0
  5  9  1  0
  9 10  1  0
  1 16  2  0
 14 17  1  0
  2  3  2  0
  3  4  1  0
  4  5  2  0
  5  6  1  0
  6  7  2  0
  2  7  1  0
 10 11  2  0
 11 12  1  0
 12 13  2  0
 13 14  1  0
 14 15  2  0
 10 15  1  0
M  END

$$$$
No_1887-/export/home/yangzhenyu/potential_scad_32_flow//YTHDC2/2024-12-06-03-22-00/
     RDKit          3D

 19 21  0  0  0  0  0  0  0  0999 V2000
    1.1787   -8.0297    3.5154 C   0  0  0  0  0  0  0  0  0  0  0  0
    1.1048   -9.2215    3.2892 C   0  0  0  0  0  0  0  0  0  0  0  0
    1.4683  -10.2314    4.1915 C   0  0  0  0  0  0  0  0  0  0  0  0
    0.8445   -6.9865    2.5175 C   0  0  0  0  0  0  0  0  0  0  0  0
    0.3587   -7.3973    1.3953 C   0  0  0  0  0  0  0  0  0  0  0  0
    0.1901   -8.6971    1.0711 C   0  0  0  0  0  0  0  0  0  0  0  0
    0.5759   -9.6647    1.9442 C   0  0  0  0  0  0  0  0  0  0  0  0
    0.6934  -11.4709    4.1321 C   0  0  0  0  0  0  0  0  0  0  0  0
    0.3760  -11.9548    2.8946 N   0  0  0  0  0  0  0  0  0  0  0  0
    0.1240  -10.9558    1.8966 C   0  0  0  0  0  0  0  0  0  0  0  0
    0.2500  -13.3311    2.7763 C   0  0  0  0  0  0  0  0  0  0  0  0
   -0.6675  -13.8087    2.1551 C   0  0  0  0  0  0  0  0  0  0  0  0
    1.4421  -14.1711    3.2346 C   0  0  0  0  0  0  0  0  0  0  0  0
    1.3959  -15.5169    3.0299 C   0  0  0  0  0  0  0  0  0  0  0  0
    0.3582  -16.0545    2.4492 C   0  0  0  0  0  0  0  0  0  0  0  0
   -0.6538  -15.2895    1.9517 C   0  0  0  0  0  0  0  0  0  0  0  0
   -0.1688   -9.0177   -0.1566 C   0  0  0  0  0  0  0  0  0  0  0  0
    0.6171   -9.2172   -1.2215 O   0  0  0  0  0  0  0  0  0  0  0  0
   -1.5153   -9.1217   -0.3625 Cl  0  0  0  0  0  0  0  0  0  0  0  0
  2  3  1  0
  3  8  1  0
  8  9  1  0
  7 10  1  0
  9 10  1  0
  9 11  1  0
  6 17  1  0
 17 18  2  0
 17 19  1  0
 11 12  2  0
 12 16  1  0
 15 16  2  0
 14 15  1  0
 13 14  2  0
 11 13  1  0
  1  2  2  0
  2  7  1  0
  6  7  2  0
  5  6  1  0
  4  5  2  0
  1  4  1  0
M  END

$$$$
No_1888-/export/home/yangzhenyu/potential_scad_32_flow//YTHDC2/2024-12-06-03-22-00/
     RDKit          3D

 18 18  0  0  0  0  0  0  0  0999 V2000
    1.1787   -8.0297    3.5154 C   0  0  0  0  0  0  0  0  0  0  0  0
    1.0491   -6.8434    2.9820 C   0  0  0  0  0  0  0  0  0  0  0  0
    1.9985   -8.9840    2.8958 C   0  0  0  0  0  0  0  0  0  0  0  0
    1.9135  -10.3404    3.6266 C   0  0  0  0  0  0  0  0  0  0  0  0
    1.3291  -11.3908    3.0222 C   0  0  0  0  0  0  0  0  0  0  0  0
    1.2749  -12.5326    3.7562 C   0  0  0  0  0  0  0  0  0  0  0  0
    0.4248   -6.6481    1.7861 C   0  0  0  0  0  0  0  0  0  0  0  0
    0.3130   -5.3457    1.3131 O   0  0  0  0  0  0  0  0  0  0  0  0
    0.1665   -7.5538    1.0002 O   0  0  0  0  0  0  0  0  0  0  0  0
    0.7627  -13.6838    3.1407 C   0  0  0  0  0  0  0  0  0  0  0  0
    0.4379  -13.6859    1.8707 C   0  0  0  0  0  0  0  0  0  0  0  0
    0.5663  -12.6279    1.0920 C   0  0  0  0  0  0  0  0  0  0  0  0
    1.0886  -11.4620    1.5983 C   0  0  0  0  0  0  0  0  0  0  0  0
    1.1424  -10.3962    0.7553 C   0  0  0  0  0  0  0  0  0  0  0  0
    2.3641   -9.8010    0.4720 O   0  0  0  0  0  0  0  0  0  0  0  0
    0.1636  -10.1180   -0.1110 O   0  0  0  0  0  0  0  0  0  0  0  0
    0.6645  -15.0205    4.0084 O   0  0  0  0  0  0  0  0  0  0  0  0
    0.4995  -16.1477    3.4172 C   0  0  0  0  0  0  0  0  0  0  0  0
  1  2  1  0
  1  3  1  0
  3  4  1  0
  4  5  1  0
  2  7  1  0
  7  8  2  0
  7  9  1  0
 13 14  1  0
 14 15  2  0
 14 16  1  0
 10 17  1  0
 17 18  1  0
  5  6  2  0
  6 10  1  0
 10 11  2  0
 11 12  1  0
 12 13  2  0
  5 13  1  0
M  END

$$$$
No_1889-/export/home/yangzhenyu/potential_scad_32_flow//YTHDC2/2024-12-06-03-22-00/
     RDKit          3D

 18 18  0  0  0  0  0  0  0  0999 V2000
    1.1787   -8.0297    3.5154 C   0  0  0  0  0  0  0  0  0  0  0  0
    1.1048   -9.2215    3.2892 C   0  0  0  0  0  0  0  0  0  0  0  0
    1.4683  -10.2314    4.1915 C   0  0  0  0  0  0  0  0  0  0  0  0
    0.8445   -6.9865    2.5175 C   0  0  0  0  0  0  0  0  0  0  0  0
    0.3587   -7.3973    1.3953 C   0  0  0  0  0  0  0  0  0  0  0  0
    0.1901   -8.6971    1.0711 C   0  0  0  0  0  0  0  0  0  0  0  0
    0.5759   -9.6647    1.9442 C   0  0  0  0  0  0  0  0  0  0  0  0
    0.6934  -11.4709    4.1321 C   0  0  0  0  0  0  0  0  0  0  0  0
    1.4236  -12.6129    4.6853 N   0  0  0  0  0  0  0  0  0  0  0  0
   -0.3214   -9.0957   -0.1278 C   0  0  0  0  0  0  0  0  0  0  0  0
    0.0799   -8.7046   -1.3442 O   0  0  0  0  0  0  0  0  0  0  0  0
   -1.0429  -10.2917   -0.2003 N   0  0  0  0  0  0  0  0  0  0  0  0
   -1.4736  -10.8971   -1.3492 C   0  0  0  0  0  0  0  0  0  0  0  0
   -0.4797  -11.5965    3.8218 O   0  0  0  0  0  0  0  0  0  0  0  0
   -2.4543  -10.1664   -2.0091 C   0  0  0  0  0  0  0  0  0  0  0  0
   -2.2679   -9.9090   -3.3336 C   0  0  0  0  0  0  0  0  0  0  0  0
   -1.6795  -10.7090   -4.1191 C   0  0  0  0  0  0  0  0  0  0  0  0
   -1.7273  -12.0748   -3.9820 C   0  0  0  0  0  0  0  0  0  0  0  0
  2  3  1  0
  3  8  1  0
  8  9  1  0
  6 10  1  0
 10 11  2  0
 10 12  1  0
 12 13  1  0
  8 14  2  0
 13 15  1  0
 15 16  1  0
 16 17  1  0
 17 18  1  0
  1  2  2  0
  2  7  1  0
  6  7  2  0
  5  6  1  0
  4  5  2  0
  1  4  1  0
M  END

$$$$
No_1890-/export/home/yangzhenyu/potential_scad_32_flow//YTHDC2/2024-12-06-03-22-00/
     RDKit          3D

 17 18  0  0  1  0  0  0  0  0999 V2000
    1.1787   -8.0297    3.5154 C   0  0  0  0  0  0  0  0  0  0  0  0
    1.0491   -6.8434    2.9820 C   0  0  0  0  0  0  0  0  0  0  0  0
    0.9905   -9.0774    2.6527 C   0  0  0  0  0  0  0  0  0  0  0  0
    0.7897   -8.9519    1.3691 C   0  0  0  0  0  0  0  0  0  0  0  0
    0.7018   -7.7198    0.7892 C   0  0  0  0  0  0  0  0  0  0  0  0
    0.8918   -6.5957    1.6117 C   0  0  0  0  0  0  0  0  0  0  0  0
    1.0711  -10.4814    3.2282 C   0  0  1  0  0  0  0  0  0  0  0  0
   -0.1055  -11.1328    3.5223 C   0  0  0  0  0  0  0  0  0  0  0  0
   -0.1824  -12.4513    3.3816 C   0  0  0  0  0  0  0  0  0  0  0  0
    0.9472  -13.2655    3.1726 C   0  0  0  0  0  0  0  0  0  0  0  0
    0.8434  -14.7235    3.0065 C   0  0  0  0  0  0  0  0  0  0  0  0
    0.8887  -15.1643    1.9946 C   0  0  0  0  0  0  0  0  0  0  0  0
    0.5797  -16.4085    1.7132 C   0  0  0  0  0  0  0  0  0  0  0  0
    0.4617  -17.2890    2.8439 C   0  0  0  0  0  0  0  0  0  0  0  0
    0.4639  -16.8495    4.0784 C   0  0  0  0  0  0  0  0  0  0  0  0
    0.6589  -15.4209    4.2494 C   0  0  0  0  0  0  0  0  0  0  0  0
    2.2947  -11.2128    3.2809 C   0  0  0  0  0  0  0  0  0  0  0  0
  3  7  1  0
  7  8  1  0
  8  9  2  3
  9 10  1  0
 10 11  1  0
  7 17  1  6
 11 12  2  0
 12 13  1  0
 13 14  2  0
 14 15  1  0
 15 16  2  0
 11 16  1  0
  1  2  2  0
  2  6  1  0
  5  6  2  0
  4  5  1  0
  3  4  2  0
  1  3  1  0
M  END

$$$$
No_1891-/export/home/yangzhenyu/potential_scad_32_flow//YTHDC2/2024-12-06-03-22-00/
     RDKit          3D

 17 17  0  0  1  0  0  0  0  0999 V2000
    1.1787   -8.0297    3.5154 C   0  0  0  0  0  0  0  0  0  0  0  0
    1.1048   -9.2215    3.2892 C   0  0  0  0  0  0  0  0  0  0  0  0
    1.2339   -9.7611    2.0189 C   0  0  0  0  0  0  0  0  0  0  0  0
    1.3583   -9.0036    0.9764 C   0  0  0  0  0  0  0  0  0  0  0  0
    1.5996   -7.6362    1.1311 C   0  0  0  0  0  0  0  0  0  0  0  0
    1.4830   -7.0928    2.3626 C   0  0  0  0  0  0  0  0  0  0  0  0
    1.1008  -11.2372    1.8542 C   0  0  0  0  0  0  0  0  0  0  0  0
    0.4812  -11.6084    0.6459 O   0  0  0  0  0  0  0  0  0  0  0  0
    2.0292  -12.0272    2.3781 N   0  0  0  0  0  0  0  0  0  0  0  0
    1.6041  -13.3513    2.5949 C   0  0  0  0  0  0  0  0  0  0  0  0
    1.0758  -14.1028    1.7434 C   0  0  1  0  0  0  0  0  0  0  0  0
    1.9115  -14.6529    0.8037 N   0  0  0  0  0  0  0  0  0  0  0  0
    1.5184   -5.6619    2.6542 C   0  0  0  0  0  0  0  0  0  0  0  0
    3.2666  -14.3299    0.9410 C   0  0  0  0  0  0  0  0  0  0  0  0
   -0.0965  -14.5832    1.9666 C   0  0  0  0  0  0  0  0  0  0  0  0
   -1.1208  -13.8056    1.8282 O   0  0  0  0  0  0  0  0  0  0  0  0
   -0.3598  -15.7995    2.3723 N   0  0  0  0  0  0  0  0  0  0  0  0
  3  7  1  0
  7  8  2  0
  7  9  1  0
  9 10  1  0
 11 10  1  1
 11 12  1  0
  6 13  1  0
 12 14  1  0
 11 15  1  0
 15 16  2  0
 15 17  1  0
  1  2  2  0
  2  3  1  0
  3  4  2  0
  4  5  1  0
  5  6  2  0
  1  6  1  0
M  END

$$$$
No_1892-/export/home/yangzhenyu/potential_scad_32_flow//YTHDC2/2024-12-06-03-22-00/
     RDKit          3D

 19 21  0  0  0  0  0  0  0  0999 V2000
    1.1787   -8.0297    3.5154 C   0  0  0  0  0  0  0  0  0  0  0  0
    1.0491   -6.8434    2.9820 C   0  0  0  0  0  0  0  0  0  0  0  0
    0.0950   -8.8404    3.2292 C   0  0  0  0  0  0  0  0  0  0  0  0
   -0.9173   -8.4596    2.5152 C   0  0  0  0  0  0  0  0  0  0  0  0
   -1.0331   -7.2162    2.0653 C   0  0  0  0  0  0  0  0  0  0  0  0
   -0.0105   -6.3168    2.3081 C   0  0  0  0  0  0  0  0  0  0  0  0
    0.1465  -10.2446    3.6981 C   0  0  0  0  0  0  0  0  0  0  0  0
   -1.0337  -10.8619    3.9439 C   0  0  0  0  0  0  0  0  0  0  0  0
   -2.1702  -10.4673    3.2991 C   0  0  0  0  0  0  0  0  0  0  0  0
   -2.2811   -9.3816    2.5946 C   0  0  0  0  0  0  0  0  0  0  0  0
   -0.0191   -4.7573    1.7648 C   0  0  0  0  0  0  0  0  0  0  0  0
   -0.6453   -4.5575    0.7542 C   0  0  0  0  0  0  0  0  0  0  0  0
   -1.0013   -3.3267    0.5570 C   0  0  0  0  0  0  0  0  0  0  0  0
   -0.2295   -2.2602    1.1643 C   0  0  0  0  0  0  0  0  0  0  0  0
    0.5934   -2.5265    2.0928 C   0  0  0  0  0  0  0  0  0  0  0  0
    0.7261   -3.8955    2.4937 C   0  0  0  0  0  0  0  0  0  0  0  0
    1.2925  -10.7069    4.5510 C   0  0  0  0  0  0  0  0  0  0  0  0
    2.2740  -10.5522    4.6986 N   0  0  0  0  0  0  0  0  0  0  0  0
    3.2061  -11.3773    5.3379 C   0  0  0  0  0  0  0  0  0  0  0  0
  6 11  1  0
  7 17  1  0
 17 18  2  3
 18 19  1  0
 11 12  2  0
 12 13  1  0
 13 14  2  0
 14 15  1  0
 15 16  2  0
 11 16  1  0
  4 10  2  0
  9 10  1  0
  8  9  2  0
  7  8  1  0
  3  7  2  0
  1  2  2  0
  2  6  1  0
  5  6  2  0
  4  5  1  0
  3  4  1  0
  1  3  1  0
M  END

$$$$
No_1893-/export/home/yangzhenyu/potential_scad_32_flow//YTHDC2/2024-12-06-03-22-00/
     RDKit          3D

 20 21  0  0  1  0  0  0  0  0999 V2000
    1.1787   -8.0297    3.5154 O   0  0  0  0  0  0  0  0  0  0  0  0
    0.9969   -8.9689    3.0048 C   0  0  0  0  0  0  0  0  0  0  0  0
    1.3055  -10.1056    3.6616 C   0  0  0  0  0  0  0  0  0  0  0  0
    1.5709  -11.1115    3.2016 C   0  0  0  0  0  0  0  0  0  0  0  0
    1.6332  -11.2629    1.7349 C   0  0  0  0  0  0  0  0  0  0  0  0
    1.4616  -10.1742    0.9691 C   0  0  0  0  0  0  0  0  0  0  0  0
    1.1252   -9.0006    1.6051 C   0  0  0  0  0  0  0  0  0  0  0  0
    0.8275   -7.7749    1.0285 C   0  0  0  0  0  0  0  0  0  0  0  0
    1.3414   -6.7053    1.3717 O   0  0  0  0  0  0  0  0  0  0  0  0
   -0.0358   -7.6937    0.0328 O   0  0  0  0  0  0  0  0  0  0  0  0
    1.8958  -12.4221    3.8115 C   0  0  0  0  0  0  0  0  0  0  0  0
    1.4834  -13.6729    3.0295 C   0  0  1  0  0  0  0  0  0  0  0  0
    2.2068  -14.6372    2.6582 C   0  0  0  0  0  0  0  0  0  0  0  0
    1.8289  -15.8290    2.1732 C   0  0  0  0  0  0  0  0  0  0  0  0
    0.6244  -16.1526    2.0993 C   0  0  2  0  0  0  0  0  0  0  0  0
   -0.3366  -15.2786    2.6370 C   0  0  2  0  0  0  0  0  0  0  0  0
    0.0776  -14.0742    3.1975 C   0  0  0  0  0  0  0  0  0  0  0  0
   -1.6534  -15.5951    2.6991 Cl  0  0  0  0  0  0  0  0  0  0  0  0
   -0.8110  -13.2323    3.5846 O   0  0  0  0  0  0  0  0  0  0  0  0
    0.2442  -17.3769    1.5872 O   0  0  0  0  0  0  0  0  0  0  0  0
  1  2  1  0
  7  8  1  0
  8  9  1  0
  8 10  2  0
  4 11  1  0
 12 11  1  1
 12 13  1  0
 14 15  1  0
 12 17  1  0
 16 17  1  0
 16 18  1  1
 17 19  2  0
 15 20  1  1
 13 14  1  0
 15 16  1  0
  2  3  2  0
  3  4  1  0
  4  5  2  0
  5  6  1  0
  6  7  2  0
  2  7  1  0
M  END

$$$$
No_1894-/export/home/yangzhenyu/potential_scad_32_flow//YTHDC2/2024-12-06-03-22-00/
     RDKit          3D

 17 18  0  0  1  0  0  0  0  0999 V2000
    1.1787   -8.0297    3.5154 C   0  0  0  0  0  0  0  0  0  0  0  0
    1.1048   -9.2215    3.2892 C   0  0  0  0  0  0  0  0  0  0  0  0
    1.2339   -9.7611    2.0189 C   0  0  0  0  0  0  0  0  0  0  0  0
    1.3583   -9.0036    0.9764 C   0  0  0  0  0  0  0  0  0  0  0  0
    1.5996   -7.6362    1.1311 C   0  0  0  0  0  0  0  0  0  0  0  0
    1.4830   -7.0928    2.3626 C   0  0  0  0  0  0  0  0  0  0  0  0
    1.5395   -5.7300    2.6182 C   0  0  0  0  0  0  0  0  0  0  0  0
    1.1775  -11.2233    1.8407 C   0  0  0  0  0  0  0  0  0  0  0  0
    0.7252  -11.5870    0.5412 C   0  0  0  0  0  0  0  0  0  0  0  0
    0.5994  -13.0100    0.4511 C   0  0  0  0  0  0  0  0  0  0  0  0
    0.9545  -13.8873    1.4441 C   0  0  2  0  0  0  0  0  0  0  0  0
    1.4784  -13.3975    2.6594 C   0  0  0  0  0  0  0  0  0  0  0  0
    1.5766  -12.0395    2.8884 C   0  0  0  0  0  0  0  0  0  0  0  0
    2.1181  -11.5379    3.9767 O   0  0  0  0  0  0  0  0  0  0  0  0
    1.6595   -5.1450    3.8873 I   0  0  0  0  0  0  0  0  0  0  0  0
    0.9811   -4.9991    1.4952 O   0  0  0  0  0  0  0  0  0  0  0  0
    0.9400  -15.2403    1.2377 C   0  0  0  0  0  0  0  0  0  0  0  0
  6  7  1  0
  3  8  1  0
  8  9  1  0
 10 11  1  0
  8 13  1  0
 12 13  1  0
 13 14  2  0
  7 15  1  0
  7 16  2  0
 11 17  1  6
  9 10  1  0
 11 12  1  0
  1  2  2  0
  2  3  1  0
  3  4  2  0
  4  5  1  0
  5  6  2  0
  1  6  1  0
M  END

$$$$
No_1895-/export/home/yangzhenyu/potential_scad_32_flow//YTHDC2/2024-12-06-03-22-00/
     RDKit          3D

 13 13  0  0  0  0  0  0  0  0999 V2000
    1.1787   -8.0297    3.5154 C   0  0  0  0  0  0  0  0  0  0  0  0
    1.1048   -9.2215    3.2892 C   0  0  0  0  0  0  0  0  0  0  0  0
    1.3627  -10.1721    4.3044 C   0  0  0  0  0  0  0  0  0  0  0  0
    1.7354  -11.4730    3.9023 C   0  0  0  0  0  0  0  0  0  0  0  0
    1.8080  -11.8127    2.7216 C   0  0  0  0  0  0  0  0  0  0  0  0
    1.5854  -11.0021    1.7249 C   0  0  0  0  0  0  0  0  0  0  0  0
    1.3573   -9.7389    1.9287 C   0  0  0  0  0  0  0  0  0  0  0  0
    1.2865   -8.8078    0.9161 C   0  0  0  0  0  0  0  0  0  0  0  0
    1.6845   -9.1638   -0.2896 F   0  0  0  0  0  0  0  0  0  0  0  0
    1.0835   -7.5525    1.0295 O   0  0  0  0  0  0  0  0  0  0  0  0
    2.0687  -13.2100    2.3159 Cl  0  0  0  0  0  0  0  0  0  0  0  0
    2.4616   -7.3744    3.7095 O   0  0  0  0  0  0  0  0  0  0  0  0
    0.1458   -7.3085    3.6878 O   0  0  0  0  0  0  0  0  0  0  0  0
  1  2  1  0
  7  8  1  0
  8  9  1  0
  8 10  2  0
  5 11  1  0
  1 12  1  0
  1 13  2  0
  2  3  2  0
  3  4  1  0
  4  5  2  0
  5  6  1  0
  6  7  2  0
  2  7  1  0
M  END

$$$$
No_1896-/export/home/yangzhenyu/potential_scad_32_flow//YTHDC2/2024-12-06-03-22-00/
     RDKit          3D

 18 18  0  0  0  0  0  0  0  0999 V2000
    1.1787   -8.0297    3.5154 C   0  0  0  0  0  0  0  0  0  0  0  0
    1.0491   -6.8434    2.9820 C   0  0  0  0  0  0  0  0  0  0  0  0
    0.0950   -8.8404    3.2292 C   0  0  0  0  0  0  0  0  0  0  0  0
   -0.9173   -8.4596    2.5152 C   0  0  0  0  0  0  0  0  0  0  0  0
   -1.0331   -7.2162    2.0653 C   0  0  0  0  0  0  0  0  0  0  0  0
   -0.0105   -6.3168    2.3081 C   0  0  0  0  0  0  0  0  0  0  0  0
    0.1150   -4.9910    1.8495 C   0  0  0  0  0  0  0  0  0  0  0  0
   -0.5774   -4.1593    2.0596 O   0  0  0  0  0  0  0  0  0  0  0  0
    1.1226   -4.6805    0.9513 O   0  0  0  0  0  0  0  0  0  0  0  0
    0.2252  -10.4860    3.7187 Br  0  0  0  0  0  0  0  0  0  0  0  0
   -2.2505   -6.7644    1.4833 C   0  0  0  0  0  0  0  0  0  0  0  0
   -3.2982   -6.4153    2.0155 O   0  0  0  0  0  0  0  0  0  0  0  0
   -2.4185   -7.3290    0.1449 N   0  0  0  0  0  0  0  0  0  0  0  0
   -3.5591   -7.1405   -0.6110 C   0  0  0  0  0  0  0  0  0  0  0  0
   -3.5069   -6.2025   -1.5014 C   0  0  0  0  0  0  0  0  0  0  0  0
   -2.2925   -5.9038   -2.0623 C   0  0  0  0  0  0  0  0  0  0  0  0
   -1.4385   -6.7411   -2.2967 C   0  0  0  0  0  0  0  0  0  0  0  0
   -1.7082   -7.6413   -3.2771 C   0  0  0  0  0  0  0  0  0  0  0  0
  6  7  1  0
  7  8  2  0
  7  9  1  0
  3 10  1  0
  5 11  1  0
 11 12  2  0
 11 13  1  0
 13 14  1  0
 14 15  1  0
 15 16  1  0
 16 17  1  0
 17 18  1  0
  1  2  2  0
  2  6  1  0
  5  6  2  0
  4  5  1  0
  3  4  2  0
  1  3  1  0
M  END

$$$$
No_1897-/export/home/yangzhenyu/potential_scad_32_flow//YTHDC2/2024-12-06-03-22-00/
     RDKit          3D

 21 23  0  0  0  0  0  0  0  0999 V2000
    1.1787   -8.0297    3.5154 C   0  0  0  0  0  0  0  0  0  0  0  0
    1.1048   -9.2215    3.2892 C   0  0  0  0  0  0  0  0  0  0  0  0
    1.3627  -10.1721    4.3044 C   0  0  0  0  0  0  0  0  0  0  0  0
    1.0682  -11.5187    4.0618 C   0  0  0  0  0  0  0  0  0  0  0  0
    0.6332  -11.9655    2.9682 C   0  0  0  0  0  0  0  0  0  0  0  0
    0.4776  -11.1308    1.9203 C   0  0  0  0  0  0  0  0  0  0  0  0
    0.7470   -9.8274    2.0368 C   0  0  0  0  0  0  0  0  0  0  0  0
    1.0387   -7.0301    2.5175 C   0  0  0  0  0  0  0  0  0  0  0  0
    0.9130   -7.5288    1.2013 C   0  0  0  0  0  0  0  0  0  0  0  0
    0.7893   -8.7979    0.9542 C   0  0  0  0  0  0  0  0  0  0  0  0
    0.5241   -9.2578   -0.2817 C   0  0  0  0  0  0  0  0  0  0  0  0
    1.2450   -9.2169   -1.2769 O   0  0  0  0  0  0  0  0  0  0  0  0
   -0.8706   -9.3448   -0.6392 N   0  0  0  0  0  0  0  0  0  0  0  0
    0.5226  -13.3817    2.7091 O   0  0  0  0  0  0  0  0  0  0  0  0
   -0.2704  -13.9589    2.0928 C   0  0  0  0  0  0  0  0  0  0  0  0
   -1.3437   -9.6282   -1.9251 C   0  0  0  0  0  0  0  0  0  0  0  0
   -1.8483   -8.4591   -2.6627 C   0  0  0  0  0  0  0  0  0  0  0  0
   -1.4320   -8.3834   -3.9815 C   0  0  0  0  0  0  0  0  0  0  0  0
   -0.9738   -9.3763   -4.6431 C   0  0  0  0  0  0  0  0  0  0  0  0
   -0.7501  -10.6519   -3.9666 C   0  0  0  0  0  0  0  0  0  0  0  0
   -1.0057  -10.7212   -2.6798 C   0  0  0  0  0  0  0  0  0  0  0  0
 10 11  1  0
 11 12  2  0
 11 13  1  0
  5 14  1  0
 14 15  1  0
 13 16  1  0
  2  3  1  0
  3  4  2  0
  4  5  1  0
  5  6  2  0
  6  7  1  0
  1  2  2  0
  2  7  1  0
  7 10  2  0
  9 10  1  0
  8  9  2  0
  1  8  1  0
 16 17  2  0
 17 18  1  0
 18 19  2  0
 19 20  1  0
 20 21  2  0
 16 21  1  0
M  END

$$$$
No_1898-/export/home/yangzhenyu/potential_scad_32_flow//YTHDC2/2024-12-06-03-22-00/
     RDKit          3D

 13 14  0  0  0  0  0  0  0  0999 V2000
    1.1787   -8.0297    3.5154 C   0  0  0  0  0  0  0  0  0  0  0  0
    1.0491   -6.8434    2.9820 C   0  0  0  0  0  0  0  0  0  0  0  0
    0.9905   -9.0774    2.6527 C   0  0  0  0  0  0  0  0  0  0  0  0
    1.1655  -10.4663    3.1286 C   0  0  0  0  0  0  0  0  0  0  0  0
    1.2197  -11.4898    2.5831 C   0  0  0  0  0  0  0  0  0  0  0  0
    1.0589  -11.4458    1.1293 C   0  0  0  0  0  0  0  0  0  0  0  0
    0.9638  -10.3069    0.4651 C   0  0  0  0  0  0  0  0  0  0  0  0
    0.9191   -9.0789    1.1942 C   0  0  0  0  0  0  0  0  0  0  0  0
    0.9198   -7.8339    0.6158 C   0  0  0  0  0  0  0  0  0  0  0  0
    1.0184   -6.6904    1.4953 C   0  0  0  0  0  0  0  0  0  0  0  0
    1.3445  -12.8197    3.0746 N   0  0  0  0  0  0  0  0  0  0  0  0
    1.4477  -13.9426    2.3490 O   0  0  0  0  0  0  0  0  0  0  0  0
    1.3932   -5.5913    3.6133 C   0  0  0  0  0  0  0  0  0  0  0  0
  5 11  1  0
 11 12  2  0
  2 13  1  0
  1  2  2  0
  2 10  1  0
  9 10  2  0
  8  9  1  0
  1  3  1  0
  3  4  2  0
  4  5  1  0
  5  6  2  0
  6  7  1  0
  7  8  2  0
  3  8  1  0
M  END

$$$$
No_1899-/export/home/yangzhenyu/potential_scad_32_flow//YTHDC2/2024-12-06-03-22-00/
     RDKit          3D

 20 21  0  0  0  0  0  0  0  0999 V2000
    1.1787   -8.0297    3.5154 C   0  0  0  0  0  0  0  0  0  0  0  0
    1.0491   -6.8434    2.9820 C   0  0  0  0  0  0  0  0  0  0  0  0
    0.9905   -9.0774    2.6527 C   0  0  0  0  0  0  0  0  0  0  0  0
    0.7897   -8.9519    1.3691 C   0  0  0  0  0  0  0  0  0  0  0  0
    0.7018   -7.7198    0.7892 C   0  0  0  0  0  0  0  0  0  0  0  0
    0.8918   -6.5957    1.6117 C   0  0  0  0  0  0  0  0  0  0  0  0
    1.0711  -10.4814    3.2282 C   0  0  0  0  0  0  0  0  0  0  0  0
    1.1227  -11.5770    2.4616 C   0  0  0  0  0  0  0  0  0  0  0  0
    1.1500  -12.9052    3.0782 C   0  0  0  0  0  0  0  0  0  0  0  0
    1.8689  -13.5339    3.4230 C   0  0  0  0  0  0  0  0  0  0  0  0
    1.8363  -14.9944    3.5816 N   0  0  0  0  0  0  0  0  0  0  0  0
    0.7883  -15.4810    3.0849 C   0  0  0  0  0  0  0  0  0  0  0  0
   -0.1721  -14.9404    2.5373 N   0  0  0  0  0  0  0  0  0  0  0  0
   -0.0936  -13.5731    2.4362 C   0  0  0  0  0  0  0  0  0  0  0  0
    0.8450   -5.0801    1.1035 Cl  0  0  0  0  0  0  0  0  0  0  0  0
    0.6452  -17.0551    3.1119 C   0  0  0  0  0  0  0  0  0  0  0  0
    0.1044  -17.5788    4.0803 C   0  0  0  0  0  0  0  0  0  0  0  0
    0.3219  -18.8197    4.2648 C   0  0  0  0  0  0  0  0  0  0  0  0
    1.1002  -19.6173    3.3437 C   0  0  0  0  0  0  0  0  0  0  0  0
    1.8775  -18.9942    2.4661 C   0  0  0  0  0  0  0  0  0  0  0  0
  3  7  1  0
  7  8  2  3
  8  9  1  0
  6 15  1  0
 12 16  1  0
 16 17  1  0
 17 18  2  3
 18 19  1  0
 19 20  2  0
  1  2  2  0
  2  6  1  0
  5  6  2  0
  4  5  1  0
  3  4  2  0
  1  3  1  0
  9 10  2  0
 10 11  1  0
 11 12  2  0
 12 13  1  0
 13 14  2  0
  9 14  1  0
M  END

$$$$
No_1900-/export/home/yangzhenyu/potential_scad_32_flow//YTHDC2/2024-12-06-03-22-00/
     RDKit          3D

 19 19  0  0  1  0  0  0  0  0999 V2000
    1.1787   -8.0297    3.5154 C   0  0  0  0  0  0  0  0  0  0  0  0
    1.0491   -6.8434    2.9820 C   0  0  0  0  0  0  0  0  0  0  0  0
    0.0950   -8.8404    3.2292 C   0  0  0  0  0  0  0  0  0  0  0  0
   -0.9173   -8.4596    2.5152 C   0  0  0  0  0  0  0  0  0  0  0  0
   -1.0331   -7.2162    2.0653 C   0  0  0  0  0  0  0  0  0  0  0  0
   -0.0105   -6.3168    2.3081 C   0  0  0  0  0  0  0  0  0  0  0  0
    0.0485   -4.9783    1.8782 Cl  0  0  0  0  0  0  0  0  0  0  0  0
    0.1243  -10.2782    3.6609 C   0  0  0  0  0  0  0  0  0  0  0  0
    0.2276  -11.3522    2.8354 C   0  0  0  0  0  0  0  0  0  0  0  0
    0.9864  -12.0056    2.7243 C   0  0  1  0  0  0  0  0  0  0  0  0
    1.3349  -12.9345    2.8496 C   0  0  0  0  0  0  0  0  0  0  0  0
    1.7670  -14.0810    2.0509 C   0  0  0  0  0  0  0  0  0  0  0  0
    1.9918  -15.4759    2.3678 N   0  0  0  0  0  0  0  0  0  0  0  0
    1.4212  -16.3766    2.1321 O   0  0  0  0  0  0  0  0  0  0  0  0
   -1.1743  -11.5462    2.2958 O   0  0  0  0  0  0  0  0  0  0  0  0
    1.9528  -11.3785    1.6347 C   0  0  0  0  0  0  0  0  0  0  0  0
    3.0442  -10.6714    1.8916 O   0  0  0  0  0  0  0  0  0  0  0  0
    1.4803  -11.0167    0.3426 O   0  0  0  0  0  0  0  0  0  0  0  0
   -2.1440   -6.7755    1.3630 C   0  0  0  0  0  0  0  0  0  0  0  0
  6  7  1  0
  3  8  1  0
  8  9  1  0
  9 10  1  0
 10 11  1  6
 11 12  1  0
 12 13  1  0
 13 14  2  0
  9 15  2  0
 10 16  1  0
 16 17  2  0
 16 18  1  0
  5 19  1  0
  1  2  2  0
  2  6  1  0
  5  6  2  0
  4  5  1  0
  3  4  2  0
  1  3  1  0
M  END

$$$$
No_1901-/export/home/yangzhenyu/potential_scad_32_flow//YTHDC2/2024-12-06-03-22-00/
     RDKit          3D

 18 19  0  0  1  0  0  0  0  0999 V2000
    1.1787   -8.0297    3.5154 C   0  0  0  0  0  0  0  0  0  0  0  0
    1.0491   -6.8434    2.9820 C   0  0  1  0  0  0  0  0  0  0  0  0
    1.9985   -8.9840    2.8958 C   0  0  0  0  0  0  0  0  0  0  0  0
    1.1815  -10.1889    2.5497 C   0  0  0  0  0  0  0  0  0  0  0  0
    0.3496  -10.1352    1.6536 C   0  0  0  0  0  0  0  0  0  0  0  0
   -0.8355  -10.5688    1.8958 C   0  0  0  0  0  0  0  0  0  0  0  0
   -1.0417  -11.4149    2.9972 C   0  0  0  0  0  0  0  0  0  0  0  0
    0.0973  -11.7237    3.8799 C   0  0  0  0  0  0  0  0  0  0  0  0
    1.2333  -10.9395    3.7501 C   0  0  0  0  0  0  0  0  0  0  0  0
    1.7731   -5.7931    3.0567 Br  0  0  0  0  0  0  0  0  0  0  0  0
    2.3203  -11.1711    4.4766 C   0  0  0  0  0  0  0  0  0  0  0  0
    0.0027   -6.7328    1.9192 C   0  0  0  0  0  0  0  0  0  0  0  0
   -0.5905   -5.7638    1.6310 N   0  0  0  0  0  0  0  0  0  0  0  0
   -1.5491   -5.8068    0.7409 C   0  0  0  0  0  0  0  0  0  0  0  0
   -1.8921   -6.9713    0.2058 C   0  0  0  0  0  0  0  0  0  0  0  0
   -1.1153   -8.0377    0.4972 C   0  0  0  0  0  0  0  0  0  0  0  0
   -0.1309   -8.0568    1.2786 C   0  0  0  0  0  0  0  0  0  0  0  0
   -2.3501   -4.5805    0.5563 C   0  0  0  0  0  0  0  0  0  0  0  0
  1  2  1  0
  1  3  1  0
  3  4  1  0
  2 10  1  6
  9 11  1  0
  2 12  1  0
 14 18  1  0
 12 13  2  0
 13 14  1  0
 14 15  2  0
 15 16  1  0
 16 17  2  0
 12 17  1  0
  4  5  2  0
  5  6  1  0
  6  7  2  0
  7  8  1  0
  8  9  2  0
  4  9  1  0
M  END

$$$$
No_1902-/export/home/yangzhenyu/potential_scad_32_flow//YTHDC2/2024-12-06-03-22-00/
     RDKit          3D

 21 22  0  0  0  0  0  0  0  0999 V2000
    1.1787   -8.0297    3.5154 C   0  0  0  0  0  0  0  0  0  0  0  0
    1.1048   -9.2215    3.2892 C   0  0  0  0  0  0  0  0  0  0  0  0
    1.3627  -10.1721    4.3044 C   0  0  0  0  0  0  0  0  0  0  0  0
    1.7354  -11.4730    3.9023 C   0  0  0  0  0  0  0  0  0  0  0  0
    1.8080  -11.8127    2.7216 C   0  0  0  0  0  0  0  0  0  0  0  0
    1.5854  -11.0021    1.7249 C   0  0  0  0  0  0  0  0  0  0  0  0
    1.3573   -9.7389    1.9287 C   0  0  0  0  0  0  0  0  0  0  0  0
    1.2865   -8.8078    0.9161 C   0  0  0  0  0  0  0  0  0  0  0  0
    0.9210   -7.5140    1.1674 C   0  0  0  0  0  0  0  0  0  0  0  0
    1.0097   -7.0192    2.4369 C   0  0  0  0  0  0  0  0  0  0  0  0
    0.9449   -5.6296    2.7100 C   0  0  0  0  0  0  0  0  0  0  0  0
    2.0493  -13.2614    2.4251 O   0  0  0  0  0  0  0  0  0  0  0  0
    0.2805   -4.8091    1.9457 C   0  0  0  0  0  0  0  0  0  0  0  0
    0.9516   -3.6892    1.4572 O   0  0  0  0  0  0  0  0  0  0  0  0
   -1.0554   -4.6345    2.0413 O   0  0  0  0  0  0  0  0  0  0  0  0
    2.0075  -13.8158    1.2576 C   0  0  0  0  0  0  0  0  0  0  0  0
    1.4496   -9.2583   -0.5138 C   0  0  0  0  0  0  0  0  0  0  0  0
    2.6661   -9.3707   -0.8969 O   0  0  0  0  0  0  0  0  0  0  0  0
    0.5366   -9.0092   -1.3601 O   0  0  0  0  0  0  0  0  0  0  0  0
    1.2727  -14.9467    1.3716 C   0  0  0  0  0  0  0  0  0  0  0  0
    1.5988  -15.9463    2.0271 O   0  0  0  0  0  0  0  0  0  0  0  0
 10 11  1  0
  5 12  1  0
 11 13  1  0
 13 14  1  0
 13 15  2  0
 12 16  1  0
  8 17  1  0
 17 18  1  0
 17 19  2  0
 16 20  1  0
 20 21  1  0
  1  2  2  0
  7  8  2  0
  8  9  1  0
  9 10  2  0
  1 10  1  0
  2  3  1  0
  3  4  2  0
  4  5  1  0
  5  6  2  0
  6  7  1  0
  2  7  1  0
M  END

$$$$
No_1903-/export/home/yangzhenyu/potential_scad_32_flow//YTHDC2/2024-12-06-03-22-00/
     RDKit          3D

 17 18  0  0  0  0  0  0  0  0999 V2000
    1.1787   -8.0297    3.5154 C   0  0  0  0  0  0  0  0  0  0  0  0
    1.1048   -9.2215    3.2892 C   0  0  0  0  0  0  0  0  0  0  0  0
    1.2339   -9.7611    2.0189 C   0  0  0  0  0  0  0  0  0  0  0  0
    1.3583   -9.0036    0.9764 C   0  0  0  0  0  0  0  0  0  0  0  0
    1.5996   -7.6362    1.1311 C   0  0  0  0  0  0  0  0  0  0  0  0
    1.4830   -7.0928    2.3626 C   0  0  0  0  0  0  0  0  0  0  0  0
    1.4898   -5.7274    2.6199 C   0  0  0  0  0  0  0  0  0  0  0  0
    1.1681  -11.2222    1.8390 C   0  0  0  0  0  0  0  0  0  0  0  0
    0.5014  -11.9760    2.2068 C   0  0  0  0  0  0  0  0  0  0  0  0
    0.4167  -13.3685    2.0527 C   0  0  0  0  0  0  0  0  0  0  0  0
   -0.6161  -14.0718    1.8701 C   0  0  0  0  0  0  0  0  0  0  0  0
   -1.8964  -13.5714    2.1813 C   0  0  0  0  0  0  0  0  0  0  0  0
   -3.0199  -14.3937    2.2353 C   0  0  0  0  0  0  0  0  0  0  0  0
   -4.2157  -13.7549    2.6021 C   0  0  0  0  0  0  0  0  0  0  0  0
   -4.2833  -12.4118    2.9532 C   0  0  0  0  0  0  0  0  0  0  0  0
   -3.2053  -11.6335    3.1001 C   0  0  0  0  0  0  0  0  0  0  0  0
   -1.9403  -12.1789    2.6741 C   0  0  0  0  0  0  0  0  0  0  0  0
  6  7  1  0
  3  8  1  0
  8  9  2  3
  9 10  1  0
 10 11  2  3
 11 12  1  0
 12 13  2  0
 13 14  1  0
 14 15  2  0
 15 16  1  0
 16 17  2  0
 12 17  1  0
  1  2  2  0
  2  3  1  0
  3  4  2  0
  4  5  1  0
  5  6  2  0
  1  6  1  0
M  END

$$$$
No_1904-/export/home/yangzhenyu/potential_scad_32_flow//YTHDC2/2024-12-06-03-22-00/
     RDKit          3D

 19 21  0  0  0  0  0  0  0  0999 V2000
    1.1787   -8.0297    3.5154 C   0  0  0  0  0  0  0  0  0  0  0  0
    1.0491   -6.8434    2.9820 C   0  0  0  0  0  0  0  0  0  0  0  0
    0.2462   -8.9560    3.0873 C   0  0  0  0  0  0  0  0  0  0  0  0
    0.3295   -6.5187    1.9069 C   0  0  0  0  0  0  0  0  0  0  0  0
   -0.5260   -8.7862    2.1368 C   0  0  0  0  0  0  0  0  0  0  0  0
   -0.5458   -7.5614    1.5054 C   0  0  0  0  0  0  0  0  0  0  0  0
    0.3663  -10.3301    3.7373 C   0  0  0  0  0  0  0  0  0  0  0  0
   -0.8414  -11.0073    3.8266 C   0  0  0  0  0  0  0  0  0  0  0  0
   -1.8073  -10.7830    2.9067 C   0  0  0  0  0  0  0  0  0  0  0  0
   -1.6751   -9.6316    2.0473 C   0  0  0  0  0  0  0  0  0  0  0  0
    0.3723   -5.1463    1.0710 O   0  0  0  0  0  0  0  0  0  0  0  0
    0.1247   -4.0566    1.8078 C   0  0  0  0  0  0  0  0  0  0  0  0
   -2.8593  -11.6626    2.6562 C   0  0  0  0  0  0  0  0  0  0  0  0
   -4.0111  -11.3856    3.2023 C   0  0  0  0  0  0  0  0  0  0  0  0
   -4.9866  -12.4694    3.2377 C   0  0  0  0  0  0  0  0  0  0  0  0
   -4.6696  -13.6162    2.5847 C   0  0  0  0  0  0  0  0  0  0  0  0
   -3.5285  -13.9231    2.1021 C   0  0  0  0  0  0  0  0  0  0  0  0
   -2.5118  -12.8816    2.1131 C   0  0  0  0  0  0  0  0  0  0  0  0
   -3.1940  -15.1587    1.6440 C   0  0  0  0  0  0  0  0  0  0  0  0
  4 11  1  0
 11 12  1  0
  9 13  1  0
 17 19  1  0
  5 10  2  0
  9 10  1  0
  8  9  2  0
  7  8  1  0
  3  7  2  0
 13 14  2  0
 14 15  1  0
 15 16  2  0
 16 17  1  0
 17 18  2  0
 13 18  1  0
  1  2  2  0
  2  4  1  0
  4  6  2  0
  5  6  1  0
  3  5  1  0
  1  3  1  0
M  END

$$$$
No_1905-/export/home/yangzhenyu/potential_scad_32_flow//YTHDC2/2024-12-06-03-22-00/
     RDKit          3D

 18 18  0  0  1  0  0  0  0  0999 V2000
    1.1787   -8.0297    3.5154 Cl  0  0  0  0  0  0  0  0  0  0  0  0
    0.6122   -7.9650    2.5747 C   0  0  0  0  0  0  0  0  0  0  0  0
    0.4809   -9.1882    1.8138 C   0  0  0  0  0  0  0  0  0  0  0  0
    0.0192   -9.0891    0.5546 C   0  0  0  0  0  0  0  0  0  0  0  0
   -0.4655   -7.9863   -0.1524 C   0  0  0  0  0  0  0  0  0  0  0  0
   -0.3636   -6.8187    0.6504 C   0  0  0  0  0  0  0  0  0  0  0  0
    0.1144   -6.8137    1.9877 C   0  0  0  0  0  0  0  0  0  0  0  0
    0.2341   -5.5482    2.5704 C   0  0  0  0  0  0  0  0  0  0  0  0
    0.6011   -4.4226    1.8022 C   0  0  0  0  0  0  0  0  0  0  0  0
    0.7575   -3.1098    2.4125 C   0  0  0  0  0  0  0  0  0  0  0  0
   -1.0096   -8.1330   -1.3505 O   0  0  0  0  0  0  0  0  0  0  0  0
   -0.8482   -8.9973   -2.2263 C   0  0  0  0  0  0  0  0  0  0  0  0
    0.9986  -10.6743    2.2801 C   0  0  2  0  0  0  0  0  0  0  0  0
    2.1633  -11.0038    1.9431 C   0  0  0  0  0  0  0  0  0  0  0  0
   -0.0023  -11.6652    1.9527 C   0  0  0  0  0  0  0  0  0  0  0  0
    0.3681  -12.8393    2.8424 C   0  0  0  0  0  0  0  0  0  0  0  0
    0.9674  -12.9304    3.7967 C   0  0  0  0  0  0  0  0  0  0  0  0
   -0.2438  -14.0418    2.2129 C   0  0  0  0  0  0  0  0  0  0  0  0
  1  2  1  0
  7  8  1  0
  8  9  2  3
  9 10  1  0
  5 11  1  0
 11 12  1  0
  3 13  1  0
 13 14  1  6
 13 15  1  0
 15 16  1  0
 16 17  1  0
 16 18  1  0
  2  3  2  0
  3  4  1  0
  4  5  2  0
  5  6  1  0
  6  7  2  0
  2  7  1  0
M  END

$$$$
No_1906-/export/home/yangzhenyu/potential_scad_32_flow//YTHDC2/2024-12-06-03-22-00/
     RDKit          3D

 14 14  0  0  0  0  0  0  0  0999 V2000
    1.1787   -8.0297    3.5154 C   0  0  0  0  0  0  0  0  0  0  0  0
    1.1048   -9.2215    3.2892 C   0  0  0  0  0  0  0  0  0  0  0  0
    1.2339   -9.7611    2.0189 C   0  0  0  0  0  0  0  0  0  0  0  0
    1.4306   -8.9466    1.1170 C   0  0  0  0  0  0  0  0  0  0  0  0
    1.6532   -7.5949    1.1786 C   0  0  0  0  0  0  0  0  0  0  0  0
    1.4973   -7.0739    2.4258 C   0  0  0  0  0  0  0  0  0  0  0  0
    1.6687   -9.4437   -0.3021 C   0  0  0  0  0  0  0  0  0  0  0  0
    1.1891  -10.5277   -0.5331 O   0  0  0  0  0  0  0  0  0  0  0  0
    2.2562   -8.7531   -1.2161 O   0  0  0  0  0  0  0  0  0  0  0  0
    0.8920  -10.2083    4.3761 Cl  0  0  0  0  0  0  0  0  0  0  0  0
    1.5841   -5.3410    2.8316 Cl  0  0  0  0  0  0  0  0  0  0  0  0
    1.1863  -11.1361    1.8598 C   0  0  0  0  0  0  0  0  0  0  0  0
    1.5089  -12.0382    2.2733 C   0  0  0  0  0  0  0  0  0  0  0  0
    1.5045  -13.6375    2.1573 C   0  0  0  0  0  0  0  0  0  0  0  0
  4  7  1  0
  7  8  2  0
  7  9  1  0
  2 10  1  0
  6 11  1  0
  3 12  1  0
 12 13  3  0
 13 14  1  0
  1  2  2  0
  2  3  1  0
  3  4  2  0
  4  5  1  0
  5  6  2  0
  1  6  1  0
M  END

$$$$
No_1907-/export/home/yangzhenyu/potential_scad_32_flow//YTHDC2/2024-12-06-03-22-00/
     RDKit          3D

 17 17  0  0  0  0  0  0  0  0999 V2000
    1.1787   -8.0297    3.5154 C   0  0  0  0  0  0  0  0  0  0  0  0
    1.1048   -9.2215    3.2892 C   0  0  0  0  0  0  0  0  0  0  0  0
    1.4683  -10.2314    4.1915 C   0  0  0  0  0  0  0  0  0  0  0  0
    0.8445   -6.9865    2.5175 C   0  0  0  0  0  0  0  0  0  0  0  0
    0.3587   -7.3973    1.3953 C   0  0  0  0  0  0  0  0  0  0  0  0
    0.1901   -8.6971    1.0711 C   0  0  0  0  0  0  0  0  0  0  0  0
    0.5759   -9.6648    1.9442 C   0  0  0  0  0  0  0  0  0  0  0  0
    0.6465  -11.4192    4.2286 O   0  0  0  0  0  0  0  0  0  0  0  0
    2.6078  -10.2574    4.8427 O   0  0  0  0  0  0  0  0  0  0  0  0
   -0.0386   -6.5070    0.3689 Cl  0  0  0  0  0  0  0  0  0  0  0  0
    1.0646   -5.6001    2.9201 O   0  0  0  0  0  0  0  0  0  0  0  0
   -0.3391   -9.2284   -0.1206 C   0  0  0  0  0  0  0  0  0  0  0  0
    0.3348   -9.2690   -1.2933 C   0  0  0  0  0  0  0  0  0  0  0  0
   -0.3678   -9.5544   -2.4156 O   0  0  0  0  0  0  0  0  0  0  0  0
    1.5855   -9.1044   -1.4580 O   0  0  0  0  0  0  0  0  0  0  0  0
   -1.7004   -9.4666   -0.1123 O   0  0  0  0  0  0  0  0  0  0  0  0
    0.3920   -4.6869    2.9819 C   0  0  0  0  0  0  0  0  0  0  0  0
  2  3  1  0
  3  8  1  0
  3  9  2  0
  5 10  1  0
  4 11  1  0
  6 12  1  0
 12 13  1  0
 13 14  2  0
 13 15  1  0
 12 16  2  0
 11 17  1  0
  1  2  2  0
  2  7  1  0
  6  7  2  0
  5  6  1  0
  4  5  2  0
  1  4  1  0
M  END

$$$$
No_1908-/export/home/yangzhenyu/potential_scad_32_flow//YTHDC2/2024-12-06-03-22-00/
     RDKit          3D

 18 20  0  0  1  0  0  0  0  0999 V2000
    1.1787   -8.0297    3.5154 C   0  0  0  0  0  0  0  0  0  0  0  0
    1.0491   -6.8434    2.9820 C   0  0  0  0  0  0  0  0  0  0  0  0
    0.9905   -9.0774    2.6527 C   0  0  0  0  0  0  0  0  0  0  0  0
    0.7897   -8.9519    1.3691 C   0  0  0  0  0  0  0  0  0  0  0  0
    0.7018   -7.7198    0.7892 C   0  0  0  0  0  0  0  0  0  0  0  0
    0.8918   -6.5957    1.6117 C   0  0  0  0  0  0  0  0  0  0  0  0
    1.0774  -10.6059    3.3145 C   0  0  0  0  0  0  0  0  0  0  0  0
   -0.1032  -11.1934    3.4585 C   0  0  2  0  0  0  0  0  0  0  0  0
   -0.6526  -11.6596    2.5137 C   0  0  2  0  0  0  0  0  0  0  0  0
   -1.9736  -11.4828    2.2730 C   0  0  1  0  0  0  0  0  0  0  0  0
   -2.7286  -10.6182    2.9794 C   0  0  0  0  0  0  0  0  0  0  0  0
   -2.1840  -10.1510    4.2601 C   0  0  0  0  0  0  0  0  0  0  0  0
   -0.7703  -10.2975    4.4892 C   0  0  0  0  0  0  0  0  0  0  0  0
   -2.5629  -11.7347    1.0026 C   0  0  0  0  0  0  0  0  0  0  0  0
   -2.3914  -13.0207    0.4846 C   0  0  0  0  0  0  0  0  0  0  0  0
   -1.8933  -13.9248    1.3845 C   0  0  0  0  0  0  0  0  0  0  0  0
   -0.7142  -14.0628    2.0936 C   0  0  0  0  0  0  0  0  0  0  0  0
   -0.0378  -12.9231    2.5004 C   0  0  0  0  0  0  0  0  0  0  0  0
  3  7  1  0
  8  7  1  6
  8  9  1  0
  9 10  1  0
 10 11  1  6
 11 12  1  0
  8 13  1  0
 12 13  1  0
 10 14  1  0
 14 15  2  0
 15 16  1  0
 16 17  2  0
  9 18  1  1
 17 18  1  0
  1  2  2  0
  2  6  1  0
  5  6  2  0
  4  5  1  0
  3  4  2  0
  1  3  1  0
M  END

$$$$
No_1909-/export/home/yangzhenyu/potential_scad_32_flow//YTHDC2/2024-12-06-03-22-00/
     RDKit          3D

 18 20  0  0  1  0  0  0  0  0999 V2000
    1.1787   -8.0297    3.5154 C   0  0  0  0  0  0  0  0  0  0  0  0
    1.1048   -9.2215    3.2892 N   0  0  0  0  0  0  0  0  0  0  0  0
    1.0346   -9.7785    2.1176 C   0  0  0  0  0  0  0  0  0  0  0  0
    1.2597   -9.0826    1.0431 C   0  0  0  0  0  0  0  0  0  0  0  0
    1.5530   -7.7656    1.0977 C   0  0  0  0  0  0  0  0  0  0  0  0
    1.5300   -7.1323    2.3379 C   0  0  0  0  0  0  0  0  0  0  0  0
    0.8242  -11.2361    2.0332 C   0  0  2  0  0  0  0  0  0  0  0  0
    1.8435  -12.0374    2.2086 C   0  0  0  0  0  0  0  0  0  0  0  0
    1.6375  -13.4226    1.9752 C   0  0  0  0  0  0  0  0  0  0  0  0
    0.5057  -13.8785    1.5462 C   0  0  0  0  0  0  0  0  0  0  0  0
   -0.3854  -12.4783    1.4064 C   0  0  0  0  0  0  0  0  0  0  0  0
   -0.1475  -14.8369    1.1994 C   0  0  0  0  0  0  0  0  0  0  0  0
    0.5202  -16.0160    1.6415 C   0  0  0  0  0  0  0  0  0  0  0  0
   -0.0837  -17.3239    1.3196 C   0  0  0  0  0  0  0  0  0  0  0  0
   -1.2996  -17.3281    0.7945 C   0  0  0  0  0  0  0  0  0  0  0  0
   -1.9380  -16.2409    0.3996 C   0  0  0  0  0  0  0  0  0  0  0  0
   -1.3978  -14.9621    0.7309 C   0  0  0  0  0  0  0  0  0  0  0  0
    1.6115   -5.6896    2.5934 Cl  0  0  0  0  0  0  0  0  0  0  0  0
  7  3  1  6
  7  8  1  0
  8  9  2  0
  9 10  1  0
  7 11  1  0
 10 11  1  0
 10 12  1  0
  6 18  1  0
 12 13  2  0
 13 14  1  0
 14 15  2  0
 15 16  1  0
 16 17  2  0
 12 17  1  0
  1  2  2  0
  2  3  1  0
  3  4  2  0
  4  5  1  0
  5  6  2  0
  1  6  1  0
M  END

$$$$
No_1910-/export/home/yangzhenyu/potential_scad_32_flow//YTHDC2/2024-12-06-03-22-00/
     RDKit          3D

 19 20  0  0  0  0  0  0  0  0999 V2000
    1.1787   -8.0297    3.5154 C   0  0  0  0  0  0  0  0  0  0  0  0
    1.0491   -6.8434    2.9820 C   0  0  0  0  0  0  0  0  0  0  0  0
    0.0950   -8.8404    3.2292 C   0  0  0  0  0  0  0  0  0  0  0  0
   -0.9173   -8.4596    2.5152 C   0  0  0  0  0  0  0  0  0  0  0  0
   -1.0331   -7.2162    2.0653 C   0  0  0  0  0  0  0  0  0  0  0  0
   -0.0105   -6.3168    2.3081 C   0  0  0  0  0  0  0  0  0  0  0  0
    0.1465  -10.2446    3.6981 C   0  0  0  0  0  0  0  0  0  0  0  0
   -1.0336  -10.8619    3.9439 C   0  0  0  0  0  0  0  0  0  0  0  0
   -0.8576  -12.3101    4.1964 C   0  0  0  0  0  0  0  0  0  0  0  0
    0.3452  -12.8753    3.9453 C   0  0  0  0  0  0  0  0  0  0  0  0
    1.4894  -12.1495    3.5975 C   0  0  0  0  0  0  0  0  0  0  0  0
    1.3815  -10.8365    3.4146 C   0  0  0  0  0  0  0  0  0  0  0  0
   -0.0400   -4.9984    1.8071 Cl  0  0  0  0  0  0  0  0  0  0  0  0
    0.4403  -14.2409    4.1333 O   0  0  0  0  0  0  0  0  0  0  0  0
    1.3162  -14.9460    3.2169 C   0  0  0  0  0  0  0  0  0  0  0  0
    1.7842  -14.3883    2.0566 O   0  0  0  0  0  0  0  0  0  0  0  0
    1.4299  -16.3492    3.3199 C   0  0  0  0  0  0  0  0  0  0  0  0
    2.3372  -17.0434    2.5337 C   0  0  0  0  0  0  0  0  0  0  0  0
    0.7007  -17.0348    4.2228 C   0  0  0  0  0  0  0  0  0  0  0  0
  3  7  1  0
  6 13  1  0
 10 14  1  0
 14 15  1  0
 15 16  2  0
 15 17  1  0
 17 18  1  0
 17 19  1  0
  1  2  2  0
  2  6  1  0
  5  6  2  0
  4  5  1  0
  3  4  2  0
  1  3  1  0
  7  8  2  0
  8  9  1  0
  9 10  2  0
 10 11  1  0
 11 12  2  0
  7 12  1  0
M  END

$$$$
No_1911-/export/home/yangzhenyu/potential_scad_32_flow//YTHDC2/2024-12-06-03-22-00/
     RDKit          3D

 19 19  0  0  0  0  0  0  0  0999 V2000
    1.1787   -8.0297    3.5154 C   0  0  0  0  0  0  0  0  0  0  0  0
    1.1048   -9.2215    3.2892 C   0  0  0  0  0  0  0  0  0  0  0  0
    1.2339   -9.7611    2.0189 C   0  0  0  0  0  0  0  0  0  0  0  0
    1.4306   -8.9466    1.1170 C   0  0  0  0  0  0  0  0  0  0  0  0
    1.6532   -7.5949    1.1786 C   0  0  0  0  0  0  0  0  0  0  0  0
    1.4973   -7.0739    2.4258 C   0  0  0  0  0  0  0  0  0  0  0  0
    1.6687   -9.4437   -0.3021 C   0  0  0  0  0  0  0  0  0  0  0  0
    2.3503   -8.9872   -1.1111 O   0  0  0  0  0  0  0  0  0  0  0  0
    0.8836  -10.3730   -0.6548 O   0  0  0  0  0  0  0  0  0  0  0  0
    0.8987  -10.1964    4.3874 Cl  0  0  0  0  0  0  0  0  0  0  0  0
    1.5530   -5.6175    2.7346 Cl  0  0  0  0  0  0  0  0  0  0  0  0
    1.2212  -11.1552    1.8661 C   0  0  0  0  0  0  0  0  0  0  0  0
    0.1894  -11.9548    1.6775 O   0  0  0  0  0  0  0  0  0  0  0  0
    2.2792  -11.9884    2.2574 N   0  0  0  0  0  0  0  0  0  0  0  0
    2.2993  -13.3783    2.0023 C   0  0  0  0  0  0  0  0  0  0  0  0
    1.4735  -14.0101    3.0488 C   0  0  0  0  0  0  0  0  0  0  0  0
    1.3266  -15.4748    2.9448 C   0  0  0  0  0  0  0  0  0  0  0  0
    2.3488  -16.1020    2.1943 C   0  0  0  0  0  0  0  0  0  0  0  0
    2.2062  -17.5169    2.2331 C   0  0  0  0  0  0  0  0  0  0  0  0
  4  7  1  0
  7  8  2  0
  7  9  1  0
  2 10  1  0
  6 11  1  0
  3 12  1  0
 12 13  2  0
 12 14  1  0
 14 15  1  0
 15 16  1  0
 16 17  1  0
 17 18  1  0
 18 19  2  0
  1  2  2  0
  2  3  1  0
  3  4  2  0
  4  5  1  0
  5  6  2  0
  1  6  1  0
M  END

$$$$
No_1912-/export/home/yangzhenyu/potential_scad_32_flow//YTHDC2/2024-12-06-03-22-00/
     RDKit          3D

 19 19  0  0  0  0  0  0  0  0999 V2000
    1.1787   -8.0297    3.5154 C   0  0  0  0  0  0  0  0  0  0  0  0
    1.1048   -9.2215    3.2892 C   0  0  0  0  0  0  0  0  0  0  0  0
    1.2339   -9.7611    2.0189 C   0  0  0  0  0  0  0  0  0  0  0  0
    1.3583   -9.0036    0.9764 C   0  0  0  0  0  0  0  0  0  0  0  0
    1.5996   -7.6362    1.1311 C   0  0  0  0  0  0  0  0  0  0  0  0
    1.4830   -7.0928    2.3626 C   0  0  0  0  0  0  0  0  0  0  0  0
    1.4898   -5.7274    2.6199 C   0  0  0  0  0  0  0  0  0  0  0  0
    1.1681  -11.2222    1.8390 C   0  0  0  0  0  0  0  0  0  0  0  0
    0.5014  -11.9760    2.2068 C   0  0  0  0  0  0  0  0  0  0  0  0
    0.4167  -13.3685    2.0527 C   0  0  0  0  0  0  0  0  0  0  0  0
    1.5984  -14.1574    2.4634 C   0  0  0  0  0  0  0  0  0  0  0  0
    1.8090  -15.4261    2.0927 C   0  0  0  0  0  0  0  0  0  0  0  0
    0.9603  -16.3545    2.3375 C   0  0  0  0  0  0  0  0  0  0  0  0
    1.3058  -17.7974    2.1140 C   0  0  0  0  0  0  0  0  0  0  0  0
    1.7019   -5.1723    3.8673 O   0  0  0  0  0  0  0  0  0  0  0  0
    1.6520   -4.8399    1.5994 O   0  0  0  0  0  0  0  0  0  0  0  0
    2.6743  -18.1902    2.6391 C   0  0  0  0  0  0  0  0  0  0  0  0
   -0.6074  -14.0421    1.5244 C   0  0  0  0  0  0  0  0  0  0  0  0
   -0.5543  -14.4615    0.0884 C   0  0  0  0  0  0  0  0  0  0  0  0
  6  7  1  0
  3  8  1  0
  8  9  2  3
  9 10  1  0
 10 11  1  0
 11 12  1  0
 12 13  1  0
 13 14  1  0
  7 15  1  0
  7 16  2  0
 14 17  1  0
 10 18  1  0
 18 19  1  0
  1  2  2  0
  2  3  1  0
  3  4  2  0
  4  5  1  0
  5  6  2  0
  1  6  1  0
M  END

$$$$
No_1913-/export/home/yangzhenyu/potential_scad_32_flow//YTHDC2/2024-12-06-03-22-00/
     RDKit          3D

 19 20  0  0  0  0  0  0  0  0999 V2000
    1.1787   -8.0297    3.5154 C   0  0  0  0  0  0  0  0  0  0  0  0
    1.1048   -9.2215    3.2892 C   0  0  0  0  0  0  0  0  0  0  0  0
    1.2339   -9.7611    2.0189 C   0  0  0  0  0  0  0  0  0  0  0  0
    1.3583   -9.0036    0.9764 C   0  0  0  0  0  0  0  0  0  0  0  0
    1.5996   -7.6362    1.1311 C   0  0  0  0  0  0  0  0  0  0  0  0
    1.4830   -7.0928    2.3626 C   0  0  0  0  0  0  0  0  0  0  0  0
    1.5395   -5.7300    2.6182 C   0  0  0  0  0  0  0  0  0  0  0  0
    1.1775  -11.2233    1.8407 C   0  0  0  0  0  0  0  0  0  0  0  0
    0.7252  -11.5870    0.5412 C   0  0  0  0  0  0  0  0  0  0  0  0
    0.5994  -13.0100    0.4511 C   0  0  0  0  0  0  0  0  0  0  0  0
    0.9545  -13.8873    1.4441 C   0  0  0  0  0  0  0  0  0  0  0  0
    1.4784  -13.3975    2.6594 C   0  0  0  0  0  0  0  0  0  0  0  0
    1.5766  -12.0395    2.8884 C   0  0  0  0  0  0  0  0  0  0  0  0
    2.1060  -11.5923    3.9798 O   0  0  0  0  0  0  0  0  0  0  0  0
    1.3177   -4.7937    1.6537 C   0  0  0  0  0  0  0  0  0  0  0  0
    1.2860   -3.3745    1.9335 C   0  0  0  0  0  0  0  0  0  0  0  0
    1.1056   -2.4753    1.0656 C   0  0  0  0  0  0  0  0  0  0  0  0
    0.7360   -2.8180   -0.3066 C   0  0  0  0  0  0  0  0  0  0  0  0
   -0.2966   -3.5934   -0.4715 C   0  0  0  0  0  0  0  0  0  0  0  0
  6  7  1  0
  3  8  1  0
  8  9  1  0
 10 11  1  0
  8 13  1  0
 12 13  1  0
 13 14  2  0
  7 15  2  3
 15 16  1  0
 16 17  2  3
 17 18  1  0
 18 19  2  0
  9 10  1  0
 11 12  1  0
  1  2  2  0
  2  3  1  0
  3  4  2  0
  4  5  1  0
  5  6  2  0
  1  6  1  0
M  END

$$$$
No_1914-/export/home/yangzhenyu/potential_scad_32_flow//YTHDC2/2024-12-06-03-22-00/
     RDKit          3D

 20 22  0  0  0  0  0  0  0  0999 V2000
    1.1787   -8.0297    3.5154 N   0  0  0  0  0  0  0  0  0  0  0  0
    1.0818   -9.0751    3.2053 C   0  0  0  0  0  0  0  0  0  0  0  0
    0.7576   -9.3725    1.9159 C   0  0  0  0  0  0  0  0  0  0  0  0
    0.7445  -10.8746    1.6491 C   0  0  0  0  0  0  0  0  0  0  0  0
    0.9910  -11.7526    2.6067 C   0  0  0  0  0  0  0  0  0  0  0  0
    1.4405  -11.4331    3.8064 C   0  0  0  0  0  0  0  0  0  0  0  0
    1.4304  -10.0463    4.1669 C   0  0  0  0  0  0  0  0  0  0  0  0
    1.1048   -6.8241    2.6625 C   0  0  0  0  0  0  0  0  0  0  0  0
    0.9671   -7.2362    1.3168 N   0  0  0  0  0  0  0  0  0  0  0  0
    0.8819   -8.4374    0.9256 C   0  0  0  0  0  0  0  0  0  0  0  0
    0.7158   -8.6680   -0.3420 C   0  0  0  0  0  0  0  0  0  0  0  0
    1.5579   -8.8770   -1.2148 O   0  0  0  0  0  0  0  0  0  0  0  0
   -0.5752   -8.5831   -0.9819 O   0  0  0  0  0  0  0  0  0  0  0  0
    0.9251  -13.3410    2.3024 C   0  0  0  0  0  0  0  0  0  0  0  0
    1.9842  -14.1166    2.5071 C   0  0  0  0  0  0  0  0  0  0  0  0
    1.7111  -15.4898    2.4998 C   0  0  0  0  0  0  0  0  0  0  0  0
    0.5657  -15.9983    2.2552 C   0  0  0  0  0  0  0  0  0  0  0  0
   -0.5200  -15.1593    2.0791 C   0  0  0  0  0  0  0  0  0  0  0  0
   -0.3369  -13.8227    2.1620 C   0  0  0  0  0  0  0  0  0  0  0  0
    1.2981   -5.4805    3.0241 C   0  0  0  0  0  0  0  0  0  0  0  0
 10 11  1  0
 11 12  2  0
 11 13  1  0
  5 14  1  0
  8 20  1  0
  3  4  1  0
  4  5  2  0
  5  6  1  0
  6  7  2  0
  2  7  1  0
  1  2  2  0
  2  3  1  0
  3 10  2  0
  9 10  1  0
  8  9  2  0
  1  8  1  0
 14 15  2  0
 15 16  1  0
 16 17  2  0
 17 18  1  0
 18 19  2  0
 14 19  1  0
M  END

$$$$
No_1915-/export/home/yangzhenyu/potential_scad_32_flow//YTHDC2/2024-12-06-03-22-00/
     RDKit          3D

 18 18  0  0  0  0  0  0  0  0999 V2000
    1.1787   -8.0297    3.5154 C   0  0  0  0  0  0  0  0  0  0  0  0
    1.1048   -9.2215    3.2892 C   0  0  0  0  0  0  0  0  0  0  0  0
    1.2339   -9.7611    2.0189 C   0  0  0  0  0  0  0  0  0  0  0  0
    1.3583   -9.0036    0.9764 C   0  0  0  0  0  0  0  0  0  0  0  0
    1.5996   -7.6362    1.1311 C   0  0  0  0  0  0  0  0  0  0  0  0
    1.4830   -7.0928    2.3626 C   0  0  0  0  0  0  0  0  0  0  0  0
    1.1008  -11.2372    1.8542 C   0  0  0  0  0  0  0  0  0  0  0  0
    0.4812  -11.6084    0.6459 O   0  0  0  0  0  0  0  0  0  0  0  0
    1.7073  -12.0515    2.5959 N   0  0  0  0  0  0  0  0  0  0  0  0
    1.6552  -13.4559    2.3464 C   0  0  0  0  0  0  0  0  0  0  0  0
    0.5717  -14.0516    3.0080 C   0  0  0  0  0  0  0  0  0  0  0  0
    0.6595  -15.5409    2.8561 O   0  0  0  0  0  0  0  0  0  0  0  0
    1.5582   -5.6485    2.6512 C   0  0  0  0  0  0  0  0  0  0  0  0
   -0.1598  -16.2276    3.3665 C   0  0  0  0  0  0  0  0  0  0  0  0
    1.7332   -5.1350    3.7830 O   0  0  0  0  0  0  0  0  0  0  0  0
    1.4355   -4.8039    1.6097 O   0  0  0  0  0  0  0  0  0  0  0  0
    0.2433  -17.0363    4.3626 C   0  0  0  0  0  0  0  0  0  0  0  0
   -0.6326  -17.6124    5.2340 O   0  0  0  0  0  0  0  0  0  0  0  0
  3  7  1  0
  7  8  2  0
  7  9  1  0
  9 10  1  0
 10 11  1  0
 11 12  1  0
  6 13  1  0
 12 14  1  0
 13 15  1  0
 13 16  2  0
 14 17  1  0
 17 18  1  0
  1  2  2  0
  2  3  1  0
  3  4  2  0
  4  5  1  0
  5  6  2  0
  1  6  1  0
M  END

$$$$
No_1916-/export/home/yangzhenyu/potential_scad_32_flow//YTHDC2/2024-12-06-03-22-00/
     RDKit          3D

 19 19  0  0  0  0  0  0  0  0999 V2000
    1.1787   -8.0297    3.5154 C   0  0  0  0  0  0  0  0  0  0  0  0
    1.0491   -6.8434    2.9820 C   0  0  0  0  0  0  0  0  0  0  0  0
    2.0004   -8.9805    3.0498 C   0  0  0  0  0  0  0  0  0  0  0  0
    2.3555   -9.0813    1.8033 C   0  0  0  0  0  0  0  0  0  0  0  0
    1.5516   -6.8448    1.5633 C   0  0  0  0  0  0  0  0  0  0  0  0
    2.2171   -7.9366    1.0002 C   0  0  0  0  0  0  0  0  0  0  0  0
    2.0828  -10.3102    3.8067 C   0  0  0  0  0  0  0  0  0  0  0  0
    1.9219  -11.4411    3.2239 O   0  0  0  0  0  0  0  0  0  0  0  0
    2.6390  -10.3315    4.9909 O   0  0  0  0  0  0  0  0  0  0  0  0
    2.6423   -7.8538   -0.2626 O   0  0  0  0  0  0  0  0  0  0  0  0
    0.5319   -5.7558    3.4569 O   0  0  0  0  0  0  0  0  0  0  0  0
   -0.4238   -5.0722    2.7184 C   0  0  0  0  0  0  0  0  0  0  0  0
   -1.5321   -5.6795    2.3336 C   0  0  0  0  0  0  0  0  0  0  0  0
   -2.2533   -6.3111    3.2751 O   0  0  0  0  0  0  0  0  0  0  0  0
   -2.0340   -5.5262    1.2184 O   0  0  0  0  0  0  0  0  0  0  0  0
   -0.0870   -3.7160    2.4988 C   0  0  0  0  0  0  0  0  0  0  0  0
    1.2153   -3.2262    2.8215 C   0  0  0  0  0  0  0  0  0  0  0  0
    1.4167   -2.3753    3.9305 C   0  0  0  0  0  0  0  0  0  0  0  0
    0.3201   -2.0761    4.5078 C   0  0  0  0  0  0  0  0  0  0  0  0
  3  7  1  0
  7  8  2  0
  7  9  1  0
  6 10  1  0
  2 11  1  0
 11 12  1  0
 12 13  1  0
 13 14  1  0
 13 15  2  0
 12 16  1  0
 16 17  1  0
 17 18  1  0
 18 19  1  0
  1  2  2  0
  2  5  1  0
  5  6  2  0
  4  6  1  0
  3  4  2  0
  1  3  1  0
M  END

$$$$
No_1917-/export/home/yangzhenyu/potential_scad_32_flow//YTHDC2/2024-12-06-03-22-00/
     RDKit          3D

 17 18  0  0  0  0  0  0  0  0999 V2000
    1.1787   -8.0297    3.5154 C   0  0  0  0  0  0  0  0  0  0  0  0
    1.1048   -9.2215    3.2892 C   0  0  0  0  0  0  0  0  0  0  0  0
    1.2339   -9.7611    2.0189 C   0  0  0  0  0  0  0  0  0  0  0  0
    1.3583   -9.0036    0.9764 C   0  0  0  0  0  0  0  0  0  0  0  0
    1.5996   -7.6362    1.1311 C   0  0  0  0  0  0  0  0  0  0  0  0
    1.4830   -7.0928    2.3626 C   0  0  0  0  0  0  0  0  0  0  0  0
    1.1008  -11.2372    1.8542 C   0  0  0  0  0  0  0  0  0  0  0  0
    0.5178  -11.9759    2.3445 C   0  0  0  0  0  0  0  0  0  0  0  0
    0.4575  -13.3705    2.1281 C   0  0  0  0  0  0  0  0  0  0  0  0
    1.1632  -14.1013    2.0451 C   0  0  0  0  0  0  0  0  0  0  0  0
    1.0401  -15.5542    1.9840 C   0  0  0  0  0  0  0  0  0  0  0  0
   -0.1527  -16.0372    1.9519 C   0  0  0  0  0  0  0  0  0  0  0  0
   -1.1928  -15.2536    2.0893 C   0  0  0  0  0  0  0  0  0  0  0  0
   -1.0069  -13.8556    2.3031 C   0  0  0  0  0  0  0  0  0  0  0  0
   -2.5368  -15.7169    2.3207 C   0  0  0  0  0  0  0  0  0  0  0  0
   -3.5591  -14.9469    2.0990 C   0  0  0  0  0  0  0  0  0  0  0  0
   -3.3255  -13.4670    2.1744 C   0  0  0  0  0  0  0  0  0  0  0  0
  3  7  1  0
  7  8  2  3
  8  9  1  0
 13 15  1  0
 15 16  2  3
 16 17  1  0
  1  2  2  0
  2  3  1  0
  3  4  2  0
  4  5  1  0
  5  6  2  0
  1  6  1  0
  9 10  2  0
 10 11  1  0
 11 12  2  0
 12 13  1  0
 13 14  2  0
  9 14  1  0
M  END

$$$$
No_1918-/export/home/yangzhenyu/potential_scad_32_flow//YTHDC2/2024-12-06-03-22-00/
     RDKit          3D

 19 21  0  0  0  0  0  0  0  0999 V2000
    1.1787   -8.0297    3.5154 C   0  0  0  0  0  0  0  0  0  0  0  0
    1.1048   -9.2215    3.2892 C   0  0  0  0  0  0  0  0  0  0  0  0
    1.3627  -10.1721    4.3044 C   0  0  0  0  0  0  0  0  0  0  0  0
    1.7354  -11.4730    3.9023 C   0  0  0  0  0  0  0  0  0  0  0  0
    1.8080  -11.8127    2.7216 C   0  0  0  0  0  0  0  0  0  0  0  0
    1.5854  -11.0021    1.7249 C   0  0  0  0  0  0  0  0  0  0  0  0
    1.3573   -9.7389    1.9287 C   0  0  0  0  0  0  0  0  0  0  0  0
    1.1102   -8.8712    0.9017 C   0  0  0  0  0  0  0  0  0  0  0  0
    0.5299   -7.6926    1.0325 C   0  0  0  0  0  0  0  0  0  0  0  0
    0.7526   -7.0802    2.3301 C   0  0  0  0  0  0  0  0  0  0  0  0
    2.0515  -13.2522    2.4284 C   0  0  0  0  0  0  0  0  0  0  0  0
    2.4197  -13.7233    1.3168 N   0  0  0  0  0  0  0  0  0  0  0  0
    1.9940  -14.1644    3.3737 O   0  0  0  0  0  0  0  0  0  0  0  0
    0.5246   -5.6567    2.5408 C   0  0  0  0  0  0  0  0  0  0  0  0
    1.6117   -4.9588    2.9901 C   0  0  0  0  0  0  0  0  0  0  0  0
    1.2344   -3.5021    3.0543 C   0  0  0  0  0  0  0  0  0  0  0  0
    0.0582   -3.0271    2.7652 C   0  0  0  0  0  0  0  0  0  0  0  0
   -0.9240   -3.7943    2.3031 C   0  0  0  0  0  0  0  0  0  0  0  0
   -0.7201   -5.1569    2.1203 C   0  0  0  0  0  0  0  0  0  0  0  0
  5 11  1  0
 11 12  1  0
 11 13  2  0
 10 14  1  0
  1  2  2  0
  7  8  2  0
  8  9  1  0
  9 10  2  0
  1 10  1  0
  2  3  1  0
  3  4  2  0
  4  5  1  0
  5  6  2  0
  6  7  1  0
  2  7  1  0
 14 15  2  0
 15 16  1  0
 16 17  2  0
 17 18  1  0
 18 19  2  0
 14 19  1  0
M  END

$$$$
No_1919-/export/home/yangzhenyu/potential_scad_32_flow//YTHDC2/2024-12-06-03-22-00/
     RDKit          3D

 17 18  0  0  0  0  0  0  0  0999 V2000
    1.1787   -8.0297    3.5154 C   0  0  0  0  0  0  0  0  0  0  0  0
    1.1048   -9.2215    3.2892 C   0  0  0  0  0  0  0  0  0  0  0  0
    1.2339   -9.7611    2.0189 C   0  0  0  0  0  0  0  0  0  0  0  0
    1.1954  -11.2312    1.8661 C   0  0  0  0  0  0  0  0  0  0  0  0
    1.5546  -12.1691    2.7931 C   0  0  0  0  0  0  0  0  0  0  0  0
    0.9527   -7.0669    2.3918 C   0  0  0  0  0  0  0  0  0  0  0  0
    1.0618   -7.6392    1.0692 C   0  0  0  0  0  0  0  0  0  0  0  0
    1.2060   -8.9530    0.8578 C   0  0  0  0  0  0  0  0  0  0  0  0
    1.5110  -13.5006    2.3856 C   0  0  0  0  0  0  0  0  0  0  0  0
    1.1461  -13.9087    1.2014 C   0  0  0  0  0  0  0  0  0  0  0  0
    0.9324  -13.0660    0.2177 C   0  0  0  0  0  0  0  0  0  0  0  0
    0.9275  -11.6786    0.5224 C   0  0  0  0  0  0  0  0  0  0  0  0
    1.0249   -5.4090    2.5055 C   0  0  0  0  0  0  0  0  0  0  0  0
    1.9100  -14.4144    3.4308 C   0  0  0  0  0  0  0  0  0  0  0  0
    1.4452  -15.8192    2.9847 N   0  0  0  0  0  0  0  0  0  0  0  0
    2.5280  -16.6440    2.6881 C   0  0  0  0  0  0  0  0  0  0  0  0
    0.3433  -16.3930    3.4852 C   0  0  0  0  0  0  0  0  0  0  0  0
  3  4  1  0
  6 13  1  0
  9 14  1  0
 14 15  1  0
 15 16  1  0
 15 17  1  0
  1  2  2  0
  2  3  1  0
  3  8  2  0
  7  8  1  0
  6  7  2  0
  1  6  1  0
  4  5  2  0
  5  9  1  0
  9 10  2  0
 10 11  1  0
 11 12  2  0
  4 12  1  0
M  END

$$$$
No_1920-/export/home/yangzhenyu/potential_scad_32_flow//YTHDC2/2024-12-06-03-22-00/
     RDKit          3D

 19 20  0  0  1  0  0  0  0  0999 V2000
    1.1787   -8.0297    3.5154 F   0  0  0  0  0  0  0  0  0  0  0  0
    0.5277   -7.9922    2.7193 C   0  0  0  0  0  0  0  0  0  0  0  0
   -0.0323   -9.1169    2.3714 N   0  0  0  0  0  0  0  0  0  0  0  0
    0.2071  -10.1933    2.8486 C   0  0  2  0  0  0  0  0  0  0  0  0
   -0.2344  -10.6080    3.7737 C   0  0  0  0  0  0  0  0  0  0  0  0
    0.3740   -6.7698    2.0747 C   0  0  0  0  0  0  0  0  0  0  0  0
    0.0900  -11.9381    4.4105 C   0  0  0  0  0  0  0  0  0  0  0  0
    1.3479  -11.0254    2.1742 C   0  0  1  0  0  0  0  0  0  0  0  0
    1.7403  -12.2332    2.6768 C   0  0  0  0  0  0  0  0  0  0  0  0
    1.0537  -12.6985    3.7530 C   0  0  0  0  0  0  0  0  0  0  0  0
    0.3177   -6.7465    0.8256 C   0  0  0  0  0  0  0  0  0  0  0  0
    0.8916   -5.5533    2.7708 C   0  0  0  0  0  0  0  0  0  0  0  0
    0.7555   -4.3688    2.2232 C   0  0  0  0  0  0  0  0  0  0  0  0
    0.4463   -4.4060    0.7676 C   0  0  0  0  0  0  0  0  0  0  0  0
    0.1854   -5.4414    0.1703 C   0  0  0  0  0  0  0  0  0  0  0  0
    1.3308  -13.8303    4.2494 O   0  0  0  0  0  0  0  0  0  0  0  0
    0.3498   -3.0556    0.2456 C   0  0  0  0  0  0  0  0  0  0  0  0
    2.0121  -10.4657    0.8255 N   0  0  0  0  0  0  0  0  0  0  0  0
    1.5775   -9.4062    0.2801 O   0  0  0  0  0  0  0  0  0  0  0  0
  1  2  1  0
  2  3  1  0
  4  3  1  1
  4  5  1  0
  2  6  1  0
  4  8  1  0
  7 10  1  0
  9 10  1  0
 10 16  2  0
 14 17  1  0
  8 18  1  6
 18 19  2  0
  5  7  1  0
  8  9  1  0
  6 11  2  0
 11 15  1  0
 14 15  2  0
 13 14  1  0
 12 13  2  0
  6 12  1  0
M  END

$$$$
No_1921-/export/home/yangzhenyu/potential_scad_32_flow//YTHDC2/2024-12-06-03-22-00/
     RDKit          3D

 19 20  0  0  1  0  0  0  0  0999 V2000
    1.1787   -8.0297    3.5154 C   0  0  0  0  0  0  0  0  0  0  0  0
    1.1048   -9.2215    3.2892 C   0  0  0  0  0  0  0  0  0  0  0  0
    1.2339   -9.7611    2.0189 C   0  0  0  0  0  0  0  0  0  0  0  0
    1.3583   -9.0036    0.9764 C   0  0  0  0  0  0  0  0  0  0  0  0
    1.5996   -7.6362    1.1311 C   0  0  0  0  0  0  0  0  0  0  0  0
    1.4830   -7.0928    2.3626 C   0  0  0  0  0  0  0  0  0  0  0  0
    1.1008  -11.2372    1.8542 C   0  0  1  0  0  0  0  0  0  0  0  0
    0.4812  -11.6084    0.6459 C   0  0  0  0  0  0  0  0  0  0  0  0
    0.5134  -13.0269    0.4830 C   0  0  0  0  0  0  0  0  0  0  0  0
    1.2057  -13.8685    1.2734 C   0  0  0  0  0  0  0  0  0  0  0  0
    1.9819  -13.3990    2.3594 C   0  0  1  0  0  0  0  0  0  0  0  0
    1.8610  -12.0988    2.6716 C   0  0  0  0  0  0  0  0  0  0  0  0
    1.8154  -11.7347    3.8906 O   0  0  0  0  0  0  0  0  0  0  0  0
    1.5545   -5.6497    2.6397 O   0  0  0  0  0  0  0  0  0  0  0  0
    0.8622   -4.7336    1.9679 C   0  0  0  0  0  0  0  0  0  0  0  0
    2.3745  -14.3440    3.1931 O   0  0  0  0  0  0  0  0  0  0  0  0
   -0.3633   -5.0432    1.6694 C   0  0  0  0  0  0  0  0  0  0  0  0
   -1.2781   -5.1817    2.5024 C   0  0  0  0  0  0  0  0  0  0  0  0
   -2.6088   -5.2087    2.2020 C   0  0  0  0  0  0  0  0  0  0  0  0
  7  3  1  6
  7  8  1  0
  9 10  1  0
  7 12  1  0
 11 12  1  0
 12 13  2  0
  6 14  1  0
 14 15  1  0
 11 16  1  1
 15 17  1  0
 17 18  1  0
 18 19  2  0
  8  9  1  0
 10 11  1  0
  1  2  2  0
  2  3  1  0
  3  4  2  0
  4  5  1  0
  5  6  2  0
  1  6  1  0
M  END

$$$$
No_1922-/export/home/yangzhenyu/potential_scad_32_flow//YTHDC2/2024-12-06-03-22-00/
     RDKit          3D

 18 18  0  0  0  0  0  0  0  0999 V2000
    1.1787   -8.0297    3.5154 I   0  0  0  0  0  0  0  0  0  0  0  0
    0.4528   -9.3028    2.7351 C   0  0  0  0  0  0  0  0  0  0  0  0
    1.1907  -10.6341    3.0061 C   0  0  0  0  0  0  0  0  0  0  0  0
    1.1935  -11.6015    2.1417 C   0  0  0  0  0  0  0  0  0  0  0  0
    0.5308  -11.5355    0.9362 C   0  0  0  0  0  0  0  0  0  0  0  0
   -0.0161  -10.4389    0.5383 C   0  0  0  0  0  0  0  0  0  0  0  0
   -0.0136   -9.2913    1.3581 C   0  0  0  0  0  0  0  0  0  0  0  0
   -0.7126   -8.2103    0.8685 C   0  0  0  0  0  0  0  0  0  0  0  0
   -0.0337   -7.1686    0.3670 C   0  0  0  0  0  0  0  0  0  0  0  0
   -0.8103   -5.9418    0.1891 F   0  0  0  0  0  0  0  0  0  0  0  0
    1.0356   -7.0001    0.2458 F   0  0  0  0  0  0  0  0  0  0  0  0
    1.7212  -12.9000    2.5861 C   0  0  0  0  0  0  0  0  0  0  0  0
    2.3337  -13.6649    1.5679 O   0  0  0  0  0  0  0  0  0  0  0  0
    1.8578  -13.3915    3.7388 O   0  0  0  0  0  0  0  0  0  0  0  0
   -2.0690   -8.2187    0.7923 O   0  0  0  0  0  0  0  0  0  0  0  0
    1.7421  -10.7011    4.3081 O   0  0  0  0  0  0  0  0  0  0  0  0
   -0.7389  -10.5183   -0.9002 O   0  0  0  0  0  0  0  0  0  0  0  0
   -1.6352  -11.4144   -0.9985 C   0  0  0  0  0  0  0  0  0  0  0  0
  1  2  1  0
  7  8  1  0
  8  9  1  0
  9 10  1  0
  9 11  1  0
  4 12  1  0
 12 13  2  0
 12 14  1  0
  8 15  2  0
  3 16  1  0
  6 17  1  0
 17 18  1  0
  2  3  2  0
  3  4  1  0
  4  5  2  0
  5  6  1  0
  6  7  2  0
  2  7  1  0
M  END

$$$$
No_1923-/export/home/yangzhenyu/potential_scad_32_flow//YTHDC2/2024-12-06-03-22-00/
     RDKit          3D

 17 17  0  0  1  0  0  0  0  0999 V2000
    1.1787   -8.0297    3.5154 C   0  0  0  0  0  0  0  0  0  0  0  0
    1.1048   -9.2215    3.2892 C   0  0  0  0  0  0  0  0  0  0  0  0
    1.3627  -10.1721    4.3044 C   0  0  0  0  0  0  0  0  0  0  0  0
    1.0682  -11.5187    4.0618 C   0  0  0  0  0  0  0  0  0  0  0  0
    0.6332  -11.9655    2.9682 C   0  0  0  0  0  0  0  0  0  0  0  0
    0.4776  -11.1308    1.9203 C   0  0  0  0  0  0  0  0  0  0  0  0
    0.7470   -9.8274    2.0368 C   0  0  0  0  0  0  0  0  0  0  0  0
    1.0387   -7.0301    2.5175 N   0  0  0  0  0  0  0  0  0  0  0  0
    1.0482   -5.6912    2.8349 C   0  0  0  0  0  0  0  0  0  0  0  0
    0.4271  -13.4280    2.7942 C   0  0  0  0  0  0  0  0  0  0  0  0
    0.8582  -14.0616    1.6937 C   0  0  1  0  0  0  0  0  0  0  0  0
    2.2645  -13.9021    1.3150 C   0  0  0  0  0  0  0  0  0  0  0  0
    1.6833   -5.2157    3.8766 O   0  0  0  0  0  0  0  0  0  0  0  0
    0.8657   -4.8082    1.6538 N   0  0  0  0  0  0  0  0  0  0  0  0
    0.5598  -15.4851    1.6004 C   0  0  0  0  0  0  0  0  0  0  0  0
    1.3987  -16.3299    2.3156 C   0  0  0  0  0  0  0  0  0  0  0  0
    2.6480  -16.2855    2.3334 O   0  0  0  0  0  0  0  0  0  0  0  0
  1  2  1  0
  1  8  1  0
  8  9  1  0
  5 10  1  0
 10 11  1  0
 11 12  1  1
  9 13  2  0
  9 14  1  0
 11 15  1  0
 15 16  1  0
 16 17  2  0
  2  3  2  0
  3  4  1  0
  4  5  2  0
  5  6  1  0
  6  7  2  0
  2  7  1  0
M  END

$$$$
No_1924-/export/home/yangzhenyu/potential_scad_32_flow//YTHDC2/2024-12-06-03-22-00/
     RDKit          3D

 12 13  0  0  1  0  0  0  0  0999 V2000
    1.1787   -8.0297    3.5154 C   0  0  0  0  0  0  0  0  0  0  0  0
    1.1048   -9.2215    3.2892 C   0  0  0  0  0  0  0  0  0  0  0  0
    1.3627  -10.1721    4.3044 C   0  0  0  0  0  0  0  0  0  0  0  0
    1.0682  -11.5187    4.0618 C   0  0  0  0  0  0  0  0  0  0  0  0
    0.6332  -11.9655    2.9682 C   0  0  0  0  0  0  0  0  0  0  0  0
    0.4776  -11.1308    1.9203 C   0  0  0  0  0  0  0  0  0  0  0  0
    0.7470   -9.8274    2.0368 C   0  0  0  0  0  0  0  0  0  0  0  0
    0.5536   -7.1314    2.6860 N   0  0  0  0  0  0  0  0  0  0  0  0
    0.4463   -7.5890    1.3163 C   0  0  0  0  0  0  0  0  0  0  0  0
    0.3167   -8.8396    1.0546 C   0  0  1  0  0  0  0  0  0  0  0  0
    0.0294   -9.1967   -0.1763 C   0  0  0  0  0  0  0  0  0  0  0  0
   -1.3284   -9.6598   -0.4094 O   0  0  0  0  0  0  0  0  0  0  0  0
  1  2  1  0
  1  8  1  0
  8  9  1  0
  7 10  1  0
  9 10  1  0
 10 11  1  6
 11 12  1  0
  2  3  2  0
  3  4  1  0
  4  5  2  0
  5  6  1  0
  6  7  2  0
  2  7  1  0
M  END

$$$$
No_1925-/export/home/yangzhenyu/potential_scad_32_flow//YTHDC2/2024-12-06-03-22-00/
     RDKit          3D

 18 18  0  0  0  0  0  0  0  0999 V2000
    1.1787   -8.0297    3.5154 C   0  0  0  0  0  0  0  0  0  0  0  0
    1.1048   -9.2215    3.2892 C   0  0  0  0  0  0  0  0  0  0  0  0
    1.2339   -9.7611    2.0189 C   0  0  0  0  0  0  0  0  0  0  0  0
    1.3583   -9.0036    0.9764 C   0  0  0  0  0  0  0  0  0  0  0  0
    1.5996   -7.6362    1.1311 C   0  0  0  0  0  0  0  0  0  0  0  0
    1.4830   -7.0928    2.3626 C   0  0  0  0  0  0  0  0  0  0  0  0
    1.4898   -5.7274    2.6199 C   0  0  0  0  0  0  0  0  0  0  0  0
    1.1882  -11.3736    1.8424 C   0  0  0  0  0  0  0  0  0  0  0  0
    1.0670  -11.6643    0.5390 N   0  0  0  0  0  0  0  0  0  0  0  0
    1.3150  -12.0787    2.7580 O   0  0  0  0  0  0  0  0  0  0  0  0
    1.6854   -5.1780    3.8634 O   0  0  0  0  0  0  0  0  0  0  0  0
    0.9786   -4.8477    1.7129 O   0  0  0  0  0  0  0  0  0  0  0  0
    1.0473  -13.1048    0.4179 C   0  0  0  0  0  0  0  0  0  0  0  0
    1.7163  -13.9168    0.9936 C   0  0  0  0  0  0  0  0  0  0  0  0
    1.3769  -15.1366    1.4250 C   0  0  0  0  0  0  0  0  0  0  0  0
   -0.0369  -15.4149    1.2744 C   0  0  0  0  0  0  0  0  0  0  0  0
   -0.5427  -16.6878    1.9007 C   0  0  0  0  0  0  0  0  0  0  0  0
   -1.7744  -16.7608    2.0686 C   0  0  0  0  0  0  0  0  0  0  0  0
  6  7  1  0
  3  8  1  0
  8  9  1  0
  8 10  2  0
  7 11  1  0
  7 12  2  0
  9 13  2  3
 13 14  1  0
 14 15  2  3
 15 16  1  0
 16 17  1  0
 17 18  2  0
  1  2  2  0
  2  3  1  0
  3  4  2  0
  4  5  1  0
  5  6  2  0
  1  6  1  0
M  END

$$$$
No_1926-/export/home/yangzhenyu/potential_scad_32_flow//YTHDC2/2024-12-06-03-22-00/
     RDKit          3D

 19 19  0  0  1  0  0  0  0  0999 V2000
    1.1787   -8.0297    3.5154 C   0  0  0  0  0  0  0  0  0  0  0  0
    1.1048   -9.2215    3.2892 C   0  0  0  0  0  0  0  0  0  0  0  0
    1.2339   -9.7611    2.0189 C   0  0  1  0  0  0  0  0  0  0  0  0
    1.1954  -11.2312    1.8661 C   0  0  1  0  0  0  0  0  0  0  0  0
    1.2996  -11.5815    0.5387 C   0  0  0  0  0  0  0  0  0  0  0  0
    0.9270   -7.0442    2.4967 C   0  0  2  0  0  0  0  0  0  0  0  0
    0.9803   -7.6034    1.0978 C   0  0  0  0  0  0  0  0  0  0  0  0
    1.1096   -8.9244    0.8670 C   0  0  0  0  0  0  0  0  0  0  0  0
    1.2635  -10.7284   -0.4571 O   0  0  0  0  0  0  0  0  0  0  0  0
    1.5303  -12.8509    0.2877 O   0  0  0  0  0  0  0  0  0  0  0  0
    1.0308   -5.6042    2.7109 C   0  0  0  0  0  0  0  0  0  0  0  0
    1.0689   -6.7791    0.1603 O   0  0  0  0  0  0  0  0  0  0  0  0
    1.4103  -12.0266    2.8472 C   0  0  0  0  0  0  0  0  0  0  0  0
    1.3543  -13.0059    3.0855 C   0  0  0  0  0  0  0  0  0  0  0  0
    0.1243  -13.6618    2.4826 C   0  0  0  0  0  0  0  0  0  0  0  0
    0.0200  -15.1418    2.5463 C   0  0  0  0  0  0  0  0  0  0  0  0
   -1.0415  -15.6999    1.9257 C   0  0  0  0  0  0  0  0  0  0  0  0
   -1.5183  -15.0430    0.8357 C   0  0  0  0  0  0  0  0  0  0  0  0
   -1.4707  -13.7006    0.7863 C   0  0  0  0  0  0  0  0  0  0  0  0
  1  2  1  0
  3  4  1  0
  4  5  1  6
  6  7  1  0
  3  8  1  6
  7  8  1  0
  5  9  2  0
  5 10  1  0
  6 11  1  6
  7 12  2  0
  4 13  1  0
 13 14  2  3
 14 15  1  0
 15 16  2  3
 16 17  1  0
 17 18  2  3
 18 19  1  0
  1  6  1  0
  2  3  1  0
M  END

$$$$
No_1927-/export/home/yangzhenyu/potential_scad_32_flow//YTHDC2/2024-12-06-03-22-00/
     RDKit          3D

 17 17  0  0  1  0  0  0  0  0999 V2000
    1.1787   -8.0297    3.5154 N   0  0  0  0  0  0  0  0  0  0  0  0
    0.8669   -7.0905    2.8589 C   0  0  0  0  0  0  0  0  0  0  0  0
    0.8842   -5.8387    3.2677 N   0  0  0  0  0  0  0  0  0  0  0  0
    1.1510   -7.3366    1.4030 C   0  0  0  0  0  0  0  0  0  0  0  0
    1.3012   -9.3170    2.9920 C   0  0  0  0  0  0  0  0  0  0  0  0
    1.4519   -9.4826    1.5539 N   0  0  0  0  0  0  0  0  0  0  0  0
    1.4330   -8.5202    0.8167 C   0  0  0  0  0  0  0  0  0  0  0  0
    1.5887   -8.5588   -0.4805 C   0  0  0  0  0  0  0  0  0  0  0  0
    1.5958  -10.5627    3.7768 C   0  0  2  0  0  0  0  0  0  0  0  0
    2.6346   -9.2793   -0.9759 O   0  0  0  0  0  0  0  0  0  0  0  0
    0.6649   -8.5279   -1.2847 O   0  0  0  0  0  0  0  0  0  0  0  0
    2.7013  -10.9767    4.1534 C   0  0  0  0  0  0  0  0  0  0  0  0
    0.4457  -11.3073    3.9854 C   0  0  0  0  0  0  0  0  0  0  0  0
   -0.7122  -10.4553    4.1832 C   0  0  0  0  0  0  0  0  0  0  0  0
   -0.8190   -9.5524    5.2529 C   0  0  0  0  0  0  0  0  0  0  0  0
   -2.0595   -8.7733    5.3112 C   0  0  0  0  0  0  0  0  0  0  0  0
   -3.0603   -9.0655    4.5512 C   0  0  0  0  0  0  0  0  0  0  0  0
  2  3  1  0
  7  8  1  0
  5  9  1  0
  8 10  1  0
  8 11  2  0
  9 12  1  6
  9 13  1  0
 13 14  1  0
 14 15  1  0
 15 16  2  3
 16 17  1  0
  1  2  2  0
  2  4  1  0
  4  7  2  0
  6  7  1  0
  5  6  2  0
  1  5  1  0
M  END

$$$$
No_1928-/export/home/yangzhenyu/potential_scad_32_flow//YTHDC2/2024-12-06-03-22-00/
     RDKit          3D

 19 20  0  0  1  0  0  0  0  0999 V2000
    1.1787   -8.0297    3.5154 C   0  0  0  0  0  0  0  0  0  0  0  0
    1.1048   -9.2215    3.2892 C   0  0  0  0  0  0  0  0  0  0  0  0
    1.3627  -10.1721    4.3044 C   0  0  0  0  0  0  0  0  0  0  0  0
    1.7354  -11.4730    3.9023 C   0  0  0  0  0  0  0  0  0  0  0  0
    1.6166  -11.5515    2.5159 C   0  0  0  0  0  0  0  0  0  0  0  0
    1.4172  -10.6242    1.6178 C   0  0  0  0  0  0  0  0  0  0  0  0
    1.2598   -9.4423    1.9811 C   0  0  0  0  0  0  0  0  0  0  0  0
    1.0996   -7.0633    2.5049 C   0  0  2  0  0  0  0  0  0  0  0  0
    1.2922   -7.2465    1.2567 C   0  0  0  0  0  0  0  0  0  0  0  0
    1.4274   -8.5086    0.9073 C   0  0  0  0  0  0  0  0  0  0  0  0
    1.6084   -8.7700   -0.3829 O   0  0  0  0  0  0  0  0  0  0  0  0
    1.8607  -13.0801    2.1142 C   0  0  0  0  0  0  0  0  0  0  0  0
    0.9897  -13.8500    1.7435 C   0  0  0  0  0  0  0  0  0  0  0  0
    1.4238  -15.1569    1.2827 C   0  0  0  0  0  0  0  0  0  0  0  0
    1.1634  -16.0584    1.7402 C   0  0  2  0  0  0  0  0  0  0  0  0
    0.4393  -16.2128    2.7936 C   0  0  0  0  0  0  0  0  0  0  0  0
    1.7484  -17.3835    1.4283 C   0  0  0  0  0  0  0  0  0  0  0  0
    1.0934   -5.5138    2.9565 C   0  0  0  0  0  0  0  0  0  0  0  0
    0.1794  -15.4547    3.7383 C   0  0  0  0  0  0  0  0  0  0  0  0
  1  2  1  0
  8  9  1  0
  7 10  1  0
  9 10  1  0
 10 11  2  0
  5 12  1  0
 12 13  1  0
 13 14  1  0
 14 15  1  0
 15 16  1  0
 15 17  1  1
  8 18  1  1
 16 19  1  0
  1  8  1  0
  2  3  2  0
  3  4  1  0
  4  5  2  0
  5  6  1  0
  6  7  2  0
  2  7  1  0
M  END

$$$$
No_1929-/export/home/yangzhenyu/potential_scad_32_flow//YTHDC2/2024-12-06-03-22-00/
     RDKit          3D

 17 17  0  0  0  0  0  0  0  0999 V2000
    1.1787   -8.0297    3.5154 C   0  0  0  0  0  0  0  0  0  0  0  0
    1.0491   -6.8434    2.9820 C   0  0  0  0  0  0  0  0  0  0  0  0
    1.9985   -8.9840    2.8958 C   0  0  0  0  0  0  0  0  0  0  0  0
    1.9135  -10.3404    3.6266 C   0  0  0  0  0  0  0  0  0  0  0  0
    1.3291  -11.3908    3.0222 C   0  0  0  0  0  0  0  0  0  0  0  0
    1.0344  -11.3281    1.7959 C   0  0  0  0  0  0  0  0  0  0  0  0
    0.5050   -6.6553    1.7492 O   0  0  0  0  0  0  0  0  0  0  0  0
    0.4927  -12.4296    1.1746 C   0  0  0  0  0  0  0  0  0  0  0  0
    0.4926  -13.5508    1.9830 C   0  0  0  0  0  0  0  0  0  0  0  0
    0.8507  -13.4908    3.3420 C   0  0  0  0  0  0  0  0  0  0  0  0
    1.2890  -12.3924    3.8867 N   0  0  0  0  0  0  0  0  0  0  0  0
    1.5141   -5.6774    3.5389 O   0  0  0  0  0  0  0  0  0  0  0  0
    0.1007  -14.9014    1.5395 Cl  0  0  0  0  0  0  0  0  0  0  0  0
    1.2677  -10.0957    0.7369 O   0  0  0  0  0  0  0  0  0  0  0  0
    2.7316  -10.3004    4.7585 O   0  0  0  0  0  0  0  0  0  0  0  0
    0.1969   -9.7065    0.0319 C   0  0  0  0  0  0  0  0  0  0  0  0
    0.5728   -8.8638   -0.9974 C   0  0  0  0  0  0  0  0  0  0  0  0
  1  2  1  0
  1  3  1  0
  3  4  1  0
  4  5  1  0
  2  7  2  0
  2 12  1  0
  9 13  1  0
  6 14  1  0
  4 15  2  0
 14 16  1  0
 16 17  1  0
  5  6  2  0
  6  8  1  0
  8  9  2  0
  9 10  1  0
 10 11  2  0
  5 11  1  0
M  END

$$$$
No_1930-/export/home/yangzhenyu/potential_scad_32_flow//YTHDC2/2024-12-06-03-22-00/
     RDKit          3D

 19 20  0  0  1  0  0  0  0  0999 V2000
    1.1787   -8.0297    3.5154 C   0  0  0  0  0  0  0  0  0  0  0  0
    1.1048   -9.2215    3.2892 C   0  0  0  0  0  0  0  0  0  0  0  0
    1.2339   -9.7611    2.0189 C   0  0  0  0  0  0  0  0  0  0  0  0
    1.3583   -9.0036    0.9764 C   0  0  0  0  0  0  0  0  0  0  0  0
    1.5996   -7.6362    1.1311 C   0  0  0  0  0  0  0  0  0  0  0  0
    1.4830   -7.0928    2.3626 C   0  0  0  0  0  0  0  0  0  0  0  0
    1.5395   -5.7300    2.6182 C   0  0  0  0  0  0  0  0  0  0  0  0
    1.1775  -11.2233    1.8407 C   0  0  0  0  0  0  0  0  0  0  0  0
    0.7252  -11.5870    0.5412 C   0  0  0  0  0  0  0  0  0  0  0  0
    0.5994  -13.0100    0.4511 C   0  0  0  0  0  0  0  0  0  0  0  0
    0.9545  -13.8873    1.4441 C   0  0  2  0  0  0  0  0  0  0  0  0
    1.4784  -13.3975    2.6594 C   0  0  0  0  0  0  0  0  0  0  0  0
    1.5766  -12.0395    2.8884 C   0  0  0  0  0  0  0  0  0  0  0  0
    2.1060  -11.5923    3.9798 O   0  0  0  0  0  0  0  0  0  0  0  0
    1.3177   -4.7937    1.6537 O   0  0  0  0  0  0  0  0  0  0  0  0
    1.7445   -5.1807    3.8405 N   0  0  0  0  0  0  0  0  0  0  0  0
    0.9374  -15.2408    1.2318 Cl  0  0  0  0  0  0  0  0  0  0  0  0
    1.6001   -9.4238   -0.3358 C   0  0  0  0  0  0  0  0  0  0  0  0
    2.6428   -9.8439   -0.8919 O   0  0  0  0  0  0  0  0  0  0  0  0
  6  7  1  0
  3  8  1  0
  8  9  1  0
 10 11  1  0
  8 13  1  0
 12 13  1  0
 13 14  2  0
  7 15  2  0
  7 16  1  0
 11 17  1  6
  4 18  1  0
 18 19  2  0
  9 10  1  0
 11 12  1  0
  1  2  2  0
  2  3  1  0
  3  4  2  0
  4  5  1  0
  5  6  2  0
  1  6  1  0
M  END

$$$$
No_1931-/export/home/yangzhenyu/potential_scad_32_flow//YTHDC2/2024-12-06-03-22-00/
     RDKit          3D

 17 18  0  0  1  0  0  0  0  0999 V2000
    1.1787   -8.0297    3.5154 C   0  0  0  0  0  0  0  0  0  0  0  0
    1.1048   -9.2215    3.2892 C   0  0  0  0  0  0  0  0  0  0  0  0
    1.2339   -9.7611    2.0189 C   0  0  0  0  0  0  0  0  0  0  0  0
    1.3583   -9.0036    0.9764 C   0  0  0  0  0  0  0  0  0  0  0  0
    1.5996   -7.6362    1.1311 C   0  0  0  0  0  0  0  0  0  0  0  0
    1.4830   -7.0928    2.3626 C   0  0  0  0  0  0  0  0  0  0  0  0
    1.1171  -11.3311    1.8661 C   0  0  1  0  0  0  0  0  0  0  0  0
    1.9975  -12.1095    2.2478 C   0  0  0  0  0  0  0  0  0  0  0  0
    1.5367  -13.3685    2.6023 C   0  0  0  0  0  0  0  0  0  0  0  0
    0.4103  -13.4688    3.3960 C   0  0  0  0  0  0  0  0  0  0  0  0
   -0.5551  -12.7716    2.8196 C   0  0  1  0  0  0  0  0  0  0  0  0
   -0.2109  -11.3858    2.2947 C   0  0  0  0  0  0  0  0  0  0  0  0
    1.5427   -5.4713    2.6846 C   0  0  0  0  0  0  0  0  0  0  0  0
    1.1873   -4.7962    1.6001 O   0  0  0  0  0  0  0  0  0  0  0  0
    1.8069   -5.0498    3.7399 Cl  0  0  0  0  0  0  0  0  0  0  0  0
   -1.6177  -13.4531    2.3739 C   0  0  0  0  0  0  0  0  0  0  0  0
   -2.9299  -12.8559    2.2316 O   0  0  0  0  0  0  0  0  0  0  0  0
  7  3  1  1
  7  8  1  0
  8  9  1  0
  9 10  1  0
 10 11  1  0
  7 12  1  0
 11 12  1  0
  6 13  1  0
 13 14  2  0
 13 15  1  0
 11 16  1  6
 16 17  2  0
  1  2  2  0
  2  3  1  0
  3  4  2  0
  4  5  1  0
  5  6  2  0
  1  6  1  0
M  END

$$$$
No_1932-/export/home/yangzhenyu/potential_scad_32_flow//YTHDC2/2024-12-06-03-22-00/
     RDKit          3D

 18 19  0  0  1  0  0  0  0  0999 V2000
    1.1787   -8.0297    3.5154 C   0  0  0  0  0  0  0  0  0  0  0  0
    1.1048   -9.2215    3.2892 C   0  0  1  0  0  0  0  0  0  0  0  0
    1.2339   -9.7611    2.0189 Br  0  0  0  0  0  0  0  0  0  0  0  0
    1.0281   -7.0658    2.4842 C   0  0  0  0  0  0  0  0  0  0  0  0
    1.0769   -5.5921    2.6710 C   0  0  0  0  0  0  0  0  0  0  0  0
    1.5770  -10.1009    4.4704 C   0  0  0  0  0  0  0  0  0  0  0  0
    0.7400   -4.7824    1.6487 C   0  0  0  0  0  0  0  0  0  0  0  0
    1.0912   -3.4929    1.5985 C   0  0  0  0  0  0  0  0  0  0  0  0
    2.0148   -3.0535    2.5861 C   0  0  0  0  0  0  0  0  0  0  0  0
    1.1499  -11.4781    4.4429 C   0  0  0  0  0  0  0  0  0  0  0  0
    2.0449  -12.4586    3.9769 C   0  0  0  0  0  0  0  0  0  0  0  0
    1.5715  -13.1976    2.7620 C   0  0  2  0  0  0  0  0  0  0  0  0
    1.2292  -14.4605    3.1003 C   0  0  0  0  0  0  0  0  0  0  0  0
    0.6679  -15.1986    2.1781 N   0  0  0  0  0  0  0  0  0  0  0  0
    2.4070   -3.8187    3.5849 C   0  0  0  0  0  0  0  0  0  0  0  0
    2.0643   -5.1539    3.6374 C   0  0  0  0  0  0  0  0  0  0  0  0
    0.6738  -14.5580    1.0073 C   0  0  0  0  0  0  0  0  0  0  0  0
    1.4109  -13.2376    1.4430 N   0  0  0  0  0  0  0  0  0  0  0  0
  1  2  1  0
  2  3  1  6
  1  4  2  3
  4  5  1  0
  2  6  1  0
  6 10  1  0
 10 11  1  0
 12 11  1  6
 12 13  1  0
 13 14  2  0
 14 17  1  0
 12 18  1  0
 17 18  1  0
  5  7  2  0
  7  8  1  0
  8  9  2  0
  9 15  1  0
 15 16  2  0
  5 16  1  0
M  END

$$$$
No_1933-/export/home/yangzhenyu/potential_scad_32_flow//YTHDC2/2024-12-06-03-22-00/
     RDKit          3D

 19 19  0  0  0  0  0  0  0  0999 V2000
    1.1787   -8.0297    3.5154 C   0  0  0  0  0  0  0  0  0  0  0  0
    1.1048   -9.2215    3.2892 C   0  0  0  0  0  0  0  0  0  0  0  0
    1.3627  -10.1721    4.3044 C   0  0  0  0  0  0  0  0  0  0  0  0
    2.3720  -10.8948    4.2468 C   0  0  0  0  0  0  0  0  0  0  0  0
    1.0579   -7.0441    2.4219 C   0  0  0  0  0  0  0  0  0  0  0  0
    0.8578   -7.4970    1.1686 C   0  0  0  0  0  0  0  0  0  0  0  0
    0.7382   -8.7683    0.8754 C   0  0  0  0  0  0  0  0  0  0  0  0
    0.8882   -9.7347    1.9238 C   0  0  0  0  0  0  0  0  0  0  0  0
    0.9437  -11.0299    1.7005 C   0  0  0  0  0  0  0  0  0  0  0  0
    1.9466  -11.5929    1.1835 O   0  0  0  0  0  0  0  0  0  0  0  0
   -0.1679  -11.7601    1.7357 N   0  0  0  0  0  0  0  0  0  0  0  0
   -1.4421  -11.2511    1.9987 C   0  0  0  0  0  0  0  0  0  0  0  0
   -2.2064  -11.0176    0.8261 C   0  0  0  0  0  0  0  0  0  0  0  0
   -2.6657   -9.8003    0.5522 C   0  0  0  0  0  0  0  0  0  0  0  0
   -2.9009   -8.9545    1.6980 C   0  0  0  0  0  0  0  0  0  0  0  0
   -2.4743   -9.3713    3.0146 C   0  0  0  0  0  0  0  0  0  0  0  0
   -2.8423   -8.4007    4.1645 C   0  0  0  0  0  0  0  0  0  0  0  0
   -2.3952   -8.8347    5.4166 C   0  0  0  0  0  0  0  0  0  0  0  0
   -1.5153   -9.9200    5.5087 C   0  0  0  0  0  0  0  0  0  0  0  0
  2  3  1  0
  3  4  1  0
  8  9  1  0
  9 10  2  0
  9 11  1  0
 11 12  1  0
 12 13  1  0
 13 14  2  3
 14 15  1  0
 15 16  2  3
 16 17  1  0
 17 18  2  3
 18 19  1  0
  1  2  2  0
  2  8  1  0
  7  8  2  0
  6  7  1  0
  5  6  2  0
  1  5  1  0
M  END

$$$$
No_1934-/export/home/yangzhenyu/potential_scad_32_flow//YTHDC2/2024-12-06-03-22-00/
     RDKit          3D

 17 18  0  0  1  0  0  0  0  0999 V2000
    1.1787   -8.0297    3.5154 C   0  0  0  0  0  0  0  0  0  0  0  0
    1.1048   -9.2215    3.2892 C   0  0  0  0  0  0  0  0  0  0  0  0
    1.3627  -10.1721    4.3044 C   0  0  0  0  0  0  0  0  0  0  0  0
    1.7354  -11.4730    3.9023 C   0  0  0  0  0  0  0  0  0  0  0  0
    1.8080  -11.8127    2.7216 C   0  0  0  0  0  0  0  0  0  0  0  0
    1.5854  -11.0021    1.7249 C   0  0  0  0  0  0  0  0  0  0  0  0
    1.3573   -9.7389    1.9287 C   0  0  0  0  0  0  0  0  0  0  0  0
    1.2865   -8.8078    0.9161 C   0  0  0  0  0  0  0  0  0  0  0  0
    0.9210   -7.5140    1.1674 C   0  0  0  0  0  0  0  0  0  0  0  0
    1.0097   -7.0192    2.4369 C   0  0  0  0  0  0  0  0  0  0  0  0
    0.8553   -5.6437    2.6966 C   0  0  0  0  0  0  0  0  0  0  0  0
    2.0476  -13.2622    2.4252 C   0  0  0  0  0  0  0  0  0  0  0  0
    1.1121  -14.0545    1.8957 C   0  0  0  0  0  0  0  0  0  0  0  0
    1.5496  -15.1921    1.3879 C   0  0  1  0  0  0  0  0  0  0  0  0
    2.8109  -15.5735    1.6499 C   0  0  0  0  0  0  0  0  0  0  0  0
    0.6113  -16.2920    1.5182 C   0  0  0  0  0  0  0  0  0  0  0  0
   -0.4741  -16.1099    1.7557 C   0  0  0  0  0  0  0  0  0  0  0  0
 10 11  1  0
  5 12  1  0
 12 13  1  0
 13 14  1  0
 14 15  1  1
 14 16  1  0
 16 17  1  0
  1  2  2  0
  7  8  2  0
  8  9  1  0
  9 10  2  0
  1 10  1  0
  2  3  1  0
  3  4  2  0
  4  5  1  0
  5  6  2  0
  6  7  1  0
  2  7  1  0
M  END

$$$$
No_1935-/export/home/yangzhenyu/potential_scad_32_flow//YTHDC2/2024-12-06-03-22-00/
     RDKit          3D

 18 19  0  0  0  0  0  0  0  0999 V2000
    1.1787   -8.0297    3.5154 C   0  0  0  0  0  0  0  0  0  0  0  0
    1.1048   -9.2215    3.2892 C   0  0  0  0  0  0  0  0  0  0  0  0
    1.2339   -9.7611    2.0189 C   0  0  0  0  0  0  0  0  0  0  0  0
    1.3583   -9.0036    0.9764 C   0  0  0  0  0  0  0  0  0  0  0  0
    1.5996   -7.6362    1.1311 C   0  0  0  0  0  0  0  0  0  0  0  0
    1.4830   -7.0928    2.3626 C   0  0  0  0  0  0  0  0  0  0  0  0
    1.1008  -11.2372    1.8542 C   0  0  0  0  0  0  0  0  0  0  0  0
    1.9749  -12.0938    2.2342 C   0  0  0  0  0  0  0  0  0  0  0  0
    1.5180  -13.3509    2.5910 C   0  0  0  0  0  0  0  0  0  0  0  0
    0.4120  -13.9272    2.2191 C   0  0  0  0  0  0  0  0  0  0  0  0
   -0.5860  -13.0563    1.8308 C   0  0  0  0  0  0  0  0  0  0  0  0
   -0.2264  -11.7453    1.4928 C   0  0  0  0  0  0  0  0  0  0  0  0
    1.6028   -5.4505    2.6854 Br  0  0  0  0  0  0  0  0  0  0  0  0
    0.0974  -15.2160    2.5389 C   0  0  0  0  0  0  0  0  0  0  0  0
   -1.1269  -15.7335    2.5342 N   0  0  0  0  0  0  0  0  0  0  0  0
    1.1700  -16.1056    3.0598 C   0  0  0  0  0  0  0  0  0  0  0  0
    0.7656  -17.3660    3.5333 C   0  0  0  0  0  0  0  0  0  0  0  0
   -1.9109  -15.1731    2.2319 H   0  0  0  0  0  0  0  0  0  0  0  0
  3  7  1  0
  6 13  1  0
 10 14  1  0
 14 15  2  0
 14 16  1  0
 16 17  2  0
  1  2  2  0
  2  3  1  0
  3  4  2  0
  4  5  1  0
  5  6  2  0
  1  6  1  0
  7  8  2  0
  8  9  1  0
  9 10  2  0
 10 11  1  0
 11 12  2  0
  7 12  1  0
 15 18  1  0
M  END

$$$$
No_1936-/export/home/yangzhenyu/potential_scad_32_flow//YTHDC2/2024-12-06-03-22-00/
     RDKit          3D

 17 18  0  0  0  0  0  0  0  0999 V2000
    1.1787   -8.0297    3.5154 C   0  0  0  0  0  0  0  0  0  0  0  0
    1.1048   -9.2215    3.2892 C   0  0  0  0  0  0  0  0  0  0  0  0
    1.2339   -9.7611    2.0189 C   0  0  0  0  0  0  0  0  0  0  0  0
    1.1954  -11.2312    1.8661 C   0  0  0  0  0  0  0  0  0  0  0  0
    1.5546  -12.1691    2.7931 C   0  0  0  0  0  0  0  0  0  0  0  0
    0.5849   -7.0929    2.5729 C   0  0  0  0  0  0  0  0  0  0  0  0
    0.5651   -5.6716    2.6680 C   0  0  0  0  0  0  0  0  0  0  0  0
    1.5967   -4.9664    3.3918 C   0  0  0  0  0  0  0  0  0  0  0  0
    1.4516  -13.4995    2.4920 C   0  0  0  0  0  0  0  0  0  0  0  0
    0.9791  -13.9176    1.3072 C   0  0  0  0  0  0  0  0  0  0  0  0
    0.5097  -13.1441    0.4168 C   0  0  0  0  0  0  0  0  0  0  0  0
    0.0361  -13.6112   -0.7150 C   0  0  0  0  0  0  0  0  0  0  0  0
    0.7260  -11.6996    0.6025 C   0  0  0  0  0  0  0  0  0  0  0  0
   -0.3144   -4.8980    1.9814 C   0  0  0  0  0  0  0  0  0  0  0  0
   -0.1703   -3.5895    1.8563 C   0  0  0  0  0  0  0  0  0  0  0  0
    0.7063   -2.9427    2.6838 C   0  0  0  0  0  0  0  0  0  0  0  0
    1.6374   -3.6549    3.4633 C   0  0  0  0  0  0  0  0  0  0  0  0
  1  2  1  0
  2  3  2  3
  3  4  1  0
  1  6  2  3
  6  7  1  0
 11 12  1  0
  7  8  2  0
  8 17  1  0
 16 17  2  0
 15 16  1  0
 14 15  2  0
  7 14  1  0
  4  5  2  0
  5  9  1  0
  9 10  2  0
 10 11  1  0
 11 13  2  0
  4 13  1  0
M  END

$$$$
No_1937-/export/home/yangzhenyu/potential_scad_32_flow//YTHDC2/2024-12-06-03-22-00/
     RDKit          3D

 17 19  0  0  0  0  0  0  0  0999 V2000
    1.1787   -8.0297    3.5154 C   0  0  0  0  0  0  0  0  0  0  0  0
    1.1048   -9.2215    3.2892 C   0  0  0  0  0  0  0  0  0  0  0  0
    1.0239   -9.7790    2.0239 C   0  0  0  0  0  0  0  0  0  0  0  0
    1.1393   -9.0211    0.9686 C   0  0  0  0  0  0  0  0  0  0  0  0
    1.4051   -7.6500    1.1251 C   0  0  0  0  0  0  0  0  0  0  0  0
    1.4868   -7.1041    2.3534 C   0  0  0  0  0  0  0  0  0  0  0  0
    0.9740  -10.2562    4.5561 C   0  0  0  0  0  0  0  0  0  0  0  0
    0.8495  -11.7039    4.0242 N   0  0  0  0  0  0  0  0  0  0  0  0
    0.8667  -12.0603    2.8690 C   0  0  0  0  0  0  0  0  0  0  0  0
    0.9188  -13.4931    2.6275 C   0  0  0  0  0  0  0  0  0  0  0  0
    0.9718  -11.1487    1.7987 N   0  0  0  0  0  0  0  0  0  0  0  0
    2.0161  -14.1408    2.9108 C   0  0  0  0  0  0  0  0  0  0  0  0
    2.0560  -15.5283    2.5143 C   0  0  0  0  0  0  0  0  0  0  0  0
    1.1067  -16.1396    1.9913 C   0  0  0  0  0  0  0  0  0  0  0  0
   -0.0822  -15.5536    1.8020 C   0  0  0  0  0  0  0  0  0  0  0  0
   -0.2136  -14.1913    2.1136 C   0  0  0  0  0  0  0  0  0  0  0  0
    1.1332   -9.4547   -0.3650 Cl  0  0  0  0  0  0  0  0  0  0  0  0
  9 10  1  0
  4 17  1  0
  3 11  1  0
  9 11  2  0
  8  9  1  0
  7  8  2  0
  2  7  1  0
  1  2  2  0
  2  3  1  0
  3  4  2  0
  4  5  1  0
  5  6  2  0
  1  6  1  0
 10 12  2  0
 12 13  1  0
 13 14  2  0
 14 15  1  0
 15 16  2  0
 10 16  1  0
M  END

$$$$
No_1938-/export/home/yangzhenyu/potential_scad_32_flow//YTHDC2/2024-12-06-03-22-00/
     RDKit          3D

 17 18  0  0  1  0  0  0  0  0999 V2000
    1.1787   -8.0297    3.5154 C   0  0  0  0  0  0  0  0  0  0  0  0
    1.1048   -9.2215    3.2892 C   0  0  0  0  0  0  0  0  0  0  0  0
    1.2339   -9.7611    2.0189 C   0  0  0  0  0  0  0  0  0  0  0  0
    1.1954  -11.2312    1.8661 C   0  0  2  0  0  0  0  0  0  0  0  0
    1.5546  -12.1691    2.7931 C   0  0  0  0  0  0  0  0  0  0  0  0
    0.9527   -7.0669    2.3918 C   0  0  0  0  0  0  0  0  0  0  0  0
    1.0618   -7.6392    1.0692 C   0  0  0  0  0  0  0  0  0  0  0  0
    1.2060   -8.9530    0.8578 C   0  0  0  0  0  0  0  0  0  0  0  0
    1.5110  -13.5006    2.3856 C   0  0  0  0  0  0  0  0  0  0  0  0
    1.1461  -13.9087    1.2014 C   0  0  0  0  0  0  0  0  0  0  0  0
    0.9324  -13.0660    0.2177 C   0  0  0  0  0  0  0  0  0  0  0  0
    0.9275  -11.6786    0.5224 C   0  0  0  0  0  0  0  0  0  0  0  0
    1.0249   -5.4090    2.5055 I   0  0  0  0  0  0  0  0  0  0  0  0
    1.9084  -14.4184    3.4302 O   0  0  0  0  0  0  0  0  0  0  0  0
    0.5329  -10.8421   -0.3989 O   0  0  0  0  0  0  0  0  0  0  0  0
    1.6421  -15.7288    3.0828 C   0  0  0  0  0  0  0  0  0  0  0  0
    0.4122  -16.3221    3.5007 C   0  0  0  0  0  0  0  0  0  0  0  0
  4  3  1  6
  4  5  1  0
  9 10  1  0
  4 12  1  0
 11 12  1  0
  6 13  1  0
  9 14  1  0
 12 15  2  0
 14 16  1  0
 16 17  1  0
  5  9  1  0
 10 11  1  0
  1  2  2  0
  2  3  1  0
  3  8  2  0
  7  8  1  0
  6  7  2  0
  1  6  1  0
M  END

$$$$
No_1939-/export/home/yangzhenyu/potential_scad_32_flow//YTHDC2/2024-12-06-03-22-00/
     RDKit          3D

 18 18  0  0  1  0  0  0  0  0999 V2000
    1.1787   -8.0297    3.5154 O   0  0  0  0  0  0  0  0  0  0  0  0
    0.9969   -8.9689    3.0048 C   0  0  0  0  0  0  0  0  0  0  0  0
    1.3055  -10.1056    3.6616 C   0  0  0  0  0  0  0  0  0  0  0  0
    1.1249  -11.3503    3.0941 C   0  0  0  0  0  0  0  0  0  0  0  0
    0.8216  -11.1570    1.7342 C   0  0  0  0  0  0  0  0  0  0  0  0
    0.7571  -10.1445    1.0354 C   0  0  0  0  0  0  0  0  0  0  0  0
    0.9105   -8.9825    1.6539 C   0  0  0  0  0  0  0  0  0  0  0  0
    0.7894   -7.6759    1.1359 C   0  0  0  0  0  0  0  0  0  0  0  0
    1.6577   -6.7736    1.4306 O   0  0  0  0  0  0  0  0  0  0  0  0
   -0.4582   -7.2578    0.7315 O   0  0  0  0  0  0  0  0  0  0  0  0
    1.1426  -12.6418    3.6558 C   0  0  0  0  0  0  0  0  0  0  0  0
    2.1647  -13.3713    3.4933 N   0  0  0  0  0  0  0  0  0  0  0  0
    2.5005  -13.9056    2.3726 C   0  0  2  0  0  0  0  0  0  0  0  0
    2.1308  -13.6394    1.2365 C   0  0  1  0  0  0  0  0  0  0  0  0
    3.1870  -15.3146    2.5176 C   0  0  0  0  0  0  0  0  0  0  0  0
    2.8635  -12.8033    0.5331 C   0  0  0  0  0  0  0  0  0  0  0  0
    1.6511  -14.7013    0.2426 C   0  0  0  0  0  0  0  0  0  0  0  0
    0.5808  -14.3952   -0.5194 O   0  0  0  0  0  0  0  0  0  0  0  0
  1  2  1  0
  7  8  1  0
  8  9  1  0
  8 10  2  0
  4 11  1  0
 11 12  1  0
 12 13  1  0
 13 14  1  0
 13 15  1  1
 14 16  1  6
 14 17  1  0
 17 18  2  0
  2  3  2  0
  3  4  1  0
  4  5  2  0
  5  6  1  0
  6  7  2  0
  2  7  1  0
M  END

$$$$
No_1940-/export/home/yangzhenyu/potential_scad_32_flow//YTHDC2/2024-12-06-03-22-00/
     RDKit          3D

 17 18  0  0  0  0  0  0  0  0999 V2000
    1.1787   -8.0297    3.5154 C   0  0  0  0  0  0  0  0  0  0  0  0
    1.0491   -6.8434    2.9820 C   0  0  0  0  0  0  0  0  0  0  0  0
    0.0950   -8.8404    3.2292 C   0  0  0  0  0  0  0  0  0  0  0  0
   -0.9173   -8.4596    2.5152 C   0  0  0  0  0  0  0  0  0  0  0  0
   -1.9974   -9.4009    2.4255 C   0  0  0  0  0  0  0  0  0  0  0  0
   -0.0636   -6.2856    2.3823 C   0  0  0  0  0  0  0  0  0  0  0  0
   -1.0542   -7.1300    2.2275 C   0  0  0  0  0  0  0  0  0  0  0  0
   -3.2038   -9.1712    2.8920 C   0  0  0  0  0  0  0  0  0  0  0  0
   -3.3457   -8.0081    3.7324 C   0  0  0  0  0  0  0  0  0  0  0  0
   -2.6572   -6.8697    3.1649 C   0  0  0  0  0  0  0  0  0  0  0  0
    0.4224  -10.3036    3.4840 C   0  0  0  0  0  0  0  0  0  0  0  0
   -0.0332  -10.8800    4.3922 C   0  0  0  0  0  0  0  0  0  0  0  0
    1.2695  -10.9212    2.5534 C   0  0  0  0  0  0  0  0  0  0  0  0
    1.0695  -11.6252    1.8080 C   0  0  0  0  0  0  0  0  0  0  0  0
    1.2838  -12.9355    1.5688 C   0  0  0  0  0  0  0  0  0  0  0  0
    1.0544  -13.6879    0.5711 C   0  0  0  0  0  0  0  0  0  0  0  0
   -0.0384  -12.8703   -0.1195 C   0  0  0  0  0  0  0  0  0  0  0  0
  3 11  1  0
 11 12  1  0
 11 13  1  0
 13 14  1  0
 14 15  1  0
 15 16  2  3
 16 17  1  0
  4  5  1  0
  5  8  2  0
  8  9  1  0
  9 10  2  0
  7 10  1  0
  1  2  2  0
  2  6  1  0
  6  7  2  0
  4  7  1  0
  3  4  2  0
  1  3  1  0
M  END

$$$$
No_1941-/export/home/yangzhenyu/potential_scad_32_flow//YTHDC2/2024-12-06-03-22-00/
     RDKit          3D

 21 23  0  0  1  0  0  0  0  0999 V2000
    1.1787   -8.0297    3.5154 C   0  0  0  0  0  0  0  0  0  0  0  0
    1.0491   -6.8434    2.9820 C   0  0  0  0  0  0  0  0  0  0  0  0
    1.9985   -8.9840    2.8958 C   0  0  0  0  0  0  0  0  0  0  0  0
    1.7297   -9.2108    1.6335 C   0  0  0  0  0  0  0  0  0  0  0  0
    1.5234   -8.1478    0.8618 C   0  0  0  0  0  0  0  0  0  0  0  0
    1.0558   -6.9632    1.4912 C   0  0  0  0  0  0  0  0  0  0  0  0
    1.6625   -8.1627   -0.5228 C   0  0  0  0  0  0  0  0  0  0  0  0
    0.7226   -8.4843   -1.2499 O   0  0  0  0  0  0  0  0  0  0  0  0
    2.8477   -8.0698   -1.0818 O   0  0  0  0  0  0  0  0  0  0  0  0
    2.2076  -10.5030    3.7186 C   0  0  0  0  0  0  0  0  0  0  0  0
    1.6131  -11.5021    3.6416 C   0  0  2  0  0  0  0  0  0  0  0  0
    2.1299  -12.6680    3.4306 C   0  0  0  0  0  0  0  0  0  0  0  0
    1.4022  -13.5228    2.5171 N   0  0  0  0  0  0  0  0  0  0  0  0
    0.3271  -13.0894    2.0658 C   0  0  0  0  0  0  0  0  0  0  0  0
   -0.5230  -13.7229    1.3103 N   0  0  0  0  0  0  0  0  0  0  0  0
   -0.0970  -11.7919    2.6515 C   0  0  2  0  0  0  0  0  0  0  0  0
    0.4555  -11.0700    3.4592 N   0  0  0  0  0  0  0  0  0  0  0  0
   -1.5409  -12.9250    1.1533 C   0  0  0  0  0  0  0  0  0  0  0  0
   -1.3816  -11.7755    2.0031 C   0  0  0  0  0  0  0  0  0  0  0  0
    2.0325  -14.8400    2.1768 C   0  0  0  0  0  0  0  0  0  0  0  0
    3.2682  -10.0686    4.6603 O   0  0  0  0  0  0  0  0  0  0  0  0
  5  7  1  0
  7  8  2  0
  7  9  1  0
  3 10  1  0
 11 10  1  6
 11 12  1  0
 12 13  1  0
 13 14  1  0
 14 15  2  0
 14 16  1  0
 11 17  1  0
 16 17  1  0
 15 18  1  0
 16 19  1  1
 18 19  1  0
 13 20  1  0
 10 21  2  0
  1  2  2  0
  2  6  1  0
  5  6  2  0
  4  5  1  0
  3  4  2  0
  1  3  1  0
M  END

$$$$
No_1942-/export/home/yangzhenyu/potential_scad_32_flow//YTHDC2/2024-12-06-03-22-00/
     RDKit          3D

 17 18  0  0  1  0  0  0  0  0999 V2000
    1.1787   -8.0297    3.5154 C   0  0  0  0  0  0  0  0  0  0  0  0
    1.0491   -6.8434    2.9820 C   0  0  0  0  0  0  0  0  0  0  0  0
    0.9905   -9.0774    2.6527 C   0  0  0  0  0  0  0  0  0  0  0  0
    0.7897   -8.9519    1.3691 C   0  0  0  0  0  0  0  0  0  0  0  0
    0.7018   -7.7198    0.7892 C   0  0  0  0  0  0  0  0  0  0  0  0
    0.8918   -6.5957    1.6117 C   0  0  0  0  0  0  0  0  0  0  0  0
    1.0711  -10.4814    3.2282 C   0  0  2  0  0  0  0  0  0  0  0  0
   -0.1055  -11.1328    3.5223 C   0  0  1  0  0  0  0  0  0  0  0  0
   -1.2061  -10.3495    3.8837 C   0  0  0  0  0  0  0  0  0  0  0  0
   -2.3575  -10.4930    3.2158 C   0  0  0  0  0  0  0  0  0  0  0  0
   -2.5329  -11.5833    2.4432 C   0  0  0  0  0  0  0  0  0  0  0  0
   -1.5078  -12.4581    2.2194 C   0  0  0  0  0  0  0  0  0  0  0  0
   -0.2392  -12.2464    2.6862 C   0  0  0  0  0  0  0  0  0  0  0  0
    2.1346  -10.4285    4.2433 C   0  0  0  0  0  0  0  0  0  0  0  0
    0.9048   -5.1074    1.0090 O   0  0  0  0  0  0  0  0  0  0  0  0
    0.7743  -13.1283    2.5756 O   0  0  0  0  0  0  0  0  0  0  0  0
    0.4821   -4.1733    1.8393 C   0  0  0  0  0  0  0  0  0  0  0  0
  3  7  1  0
  7  8  1  0
  8  9  1  6
 10 11  1  0
  8 13  1  0
 12 13  1  0
  7 14  1  1
  6 15  1  0
 13 16  2  0
 15 17  1  0
  9 10  1  0
 11 12  1  0
  1  2  2  0
  2  6  1  0
  5  6  2  0
  4  5  1  0
  3  4  2  0
  1  3  1  0
M  END

$$$$
No_1943-/export/home/yangzhenyu/potential_scad_32_flow//YTHDC2/2024-12-06-03-22-00/
     RDKit          3D

 19 19  0  0  1  0  0  0  0  0999 V2000
    1.1787   -8.0297    3.5154 C   0  0  0  0  0  0  0  0  0  0  0  0
    1.0491   -6.8434    2.9820 C   0  0  0  0  0  0  0  0  0  0  0  0
    0.9905   -9.0774    2.6527 C   0  0  1  0  0  0  0  0  0  0  0  0
    0.7897   -8.9519    1.3691 C   0  0  0  0  0  0  0  0  0  0  0  0
    0.7018   -7.7198    0.7892 C   0  0  0  0  0  0  0  0  0  0  0  0
    0.8918   -6.5957    1.6117 C   0  0  0  0  0  0  0  0  0  0  0  0
    1.0998  -10.4710    3.2437 Cl  0  0  0  0  0  0  0  0  0  0  0  0
    0.9387   -5.2795    1.1829 C   0  0  0  0  0  0  0  0  0  0  0  0
    0.6586  -10.0553    0.4319 C   0  0  0  0  0  0  0  0  0  0  0  0
    1.5553  -10.8686    0.2242 O   0  0  0  0  0  0  0  0  0  0  0  0
   -0.3214  -10.0848   -0.4906 N   0  0  0  0  0  0  0  0  0  0  0  0
    1.2998   -5.7675    3.7800 O   0  0  0  0  0  0  0  0  0  0  0  0
   -1.3064  -10.3097   -0.8241 C   0  0  0  0  0  0  0  0  0  0  0  0
   -1.9425  -10.1866   -1.9747 C   0  0  0  0  0  0  0  0  0  0  0  0
   -2.7330  -10.9127   -2.5523 O   0  0  0  0  0  0  0  0  0  0  0  0
   -1.3129   -9.2304   -2.7865 O   0  0  0  0  0  0  0  0  0  0  0  0
   -0.1807   -4.6751    0.8205 C   0  0  0  0  0  0  0  0  0  0  0  0
   -0.1353   -3.3025    0.3227 C   0  0  0  0  0  0  0  0  0  0  0  0
    0.7018   -2.3864    0.9618 C   0  0  0  0  0  0  0  0  0  0  0  0
  1  2  1  0
  3  4  1  0
  2  6  1  0
  5  6  1  0
  3  7  1  6
  6  8  1  0
  4  9  1  0
  9 10  2  0
  9 11  1  0
  2 12  2  0
 11 13  1  0
 13 14  1  0
 14 15  2  0
 14 16  1  0
  8 17  1  0
 17 18  1  0
 18 19  1  0
  1  3  1  0
  4  5  1  0
M  END

$$$$
No_1944-/export/home/yangzhenyu/potential_scad_32_flow//YTHDC2/2024-12-06-03-22-00/
     RDKit          3D

 19 20  0  0  1  0  0  0  0  0999 V2000
    1.1787   -8.0297    3.5154 N   0  0  0  0  0  0  0  0  0  0  0  0
    1.0818   -9.0751    3.2053 C   0  0  0  0  0  0  0  0  0  0  0  0
    1.5216  -10.1164    3.9747 C   0  0  0  0  0  0  0  0  0  0  0  0
    1.4420  -11.4363    3.6461 C   0  0  0  0  0  0  0  0  0  0  0  0
    0.5969  -11.7648    2.6785 C   0  0  0  0  0  0  0  0  0  0  0  0
    0.0096  -10.8332    1.9506 C   0  0  0  0  0  0  0  0  0  0  0  0
    0.3359   -9.5186    2.1388 C   0  0  0  0  0  0  0  0  0  0  0  0
    0.8819   -6.9011    2.6487 C   0  0  2  0  0  0  0  0  0  0  0  0
    0.4076   -7.2265    1.4607 N   0  0  0  0  0  0  0  0  0  0  0  0
    0.0633   -8.4448    1.1740 C   0  0  0  0  0  0  0  0  0  0  0  0
   -0.4997   -8.6880    0.0350 O   0  0  0  0  0  0  0  0  0  0  0  0
    1.2867   -5.5457    3.0370 N   0  0  0  0  0  0  0  0  0  0  0  0
    0.3434  -13.1871    2.4008 C   0  0  1  0  0  0  0  0  0  0  0  0
    1.2441  -14.1142    2.7954 C   0  0  0  0  0  0  0  0  0  0  0  0
    0.8552  -15.4905    2.8141 Cl  0  0  0  0  0  0  0  0  0  0  0  0
   -0.8666  -13.5796    2.5343 C   0  0  0  0  0  0  0  0  0  0  0  0
    2.6246  -13.8914    2.8122 O   0  0  0  0  0  0  0  0  0  0  0  0
   -1.4544  -14.0884    1.2496 C   0  0  0  0  0  0  0  0  0  0  0  0
   -2.5670  -13.6935    0.8523 C   0  0  0  0  0  0  0  0  0  0  0  0
  1  2  1  0
  8  9  1  0
  7 10  1  0
  9 10  1  0
 10 11  2  0
  8 12  1  6
  5 13  1  0
 13 14  1  0
 14 15  1  0
 13 16  1  1
 14 17  2  0
 16 18  1  0
 18 19  1  0
  1  8  1  0
  2  3  2  0
  3  4  1  0
  4  5  2  0
  5  6  1  0
  6  7  2  0
  2  7  1  0
M  END

$$$$
No_1945-/export/home/yangzhenyu/potential_scad_32_flow//YTHDC2/2024-12-06-03-22-00/
     RDKit          3D

 19 19  0  0  1  0  0  0  0  0999 V2000
    1.1787   -8.0297    3.5154 C   0  0  0  0  0  0  0  0  0  0  0  0
    1.0491   -6.8434    2.9820 C   0  0  0  0  0  0  0  0  0  0  0  0
    0.9905   -9.0774    2.6527 C   0  0  0  0  0  0  0  0  0  0  0  0
    1.1655  -10.4663    3.1286 C   0  0  2  0  0  0  0  0  0  0  0  0
    1.7409  -10.6480    4.4599 C   0  0  0  0  0  0  0  0  0  0  0  0
    1.0486   -6.3431    1.8833 C   0  0  0  0  0  0  0  0  0  0  0  0
    0.7847   -5.0364    1.4471 C   0  0  0  0  0  0  0  0  0  0  0  0
    1.1370  -11.5253    2.2824 C   0  0  0  0  0  0  0  0  0  0  0  0
    1.2832  -12.8467    2.9293 N   0  0  0  0  0  0  0  0  0  0  0  0
    1.2547  -14.0260    2.1407 C   0  0  0  0  0  0  0  0  0  0  0  0
    1.0507  -13.7828    0.8903 C   0  0  0  0  0  0  0  0  0  0  0  0
    0.9138  -12.5591    0.2373 C   0  0  0  0  0  0  0  0  0  0  0  0
    0.9619  -11.4729    0.9990 C   0  0  0  0  0  0  0  0  0  0  0  0
    1.4642  -15.3188    2.8949 C   0  0  0  0  0  0  0  0  0  0  0  0
    0.4509  -15.7317    3.6363 O   0  0  0  0  0  0  0  0  0  0  0  0
    2.5887  -15.8722    2.7482 O   0  0  0  0  0  0  0  0  0  0  0  0
   -0.3959   -4.7681    0.8205 C   0  0  0  0  0  0  0  0  0  0  0  0
   -0.5460   -3.3324    0.3817 C   0  0  0  0  0  0  0  0  0  0  0  0
    0.4690   -2.4366    0.7211 C   0  0  0  0  0  0  0  0  0  0  0  0
  1  2  1  0
  1  3  2  3
  3  4  1  0
  4  5  1  6
  2  6  2  3
  6  7  1  0
  4  8  1  0
 10 14  1  0
 14 15  1  0
 14 16  2  0
  7 17  1  0
 17 18  2  3
 18 19  1  0
  8  9  2  0
  9 10  1  0
 10 11  2  0
 11 12  1  0
 12 13  2  0
  8 13  1  0
M  END

$$$$
No_1946-/export/home/yangzhenyu/potential_scad_32_flow//YTHDC2/2024-12-06-03-22-00/
     RDKit          3D

 20 21  0  0  1  0  0  0  0  0999 V2000
    1.1787   -8.0297    3.5154 C   0  0  0  0  0  0  0  0  0  0  0  0
    1.0491   -6.8434    2.9820 C   0  0  0  0  0  0  0  0  0  0  0  0
    0.9905   -9.0774    2.6527 C   0  0  0  0  0  0  0  0  0  0  0  0
    0.7897   -8.9519    1.3691 C   0  0  0  0  0  0  0  0  0  0  0  0
    0.7018   -7.7198    0.7892 C   0  0  0  0  0  0  0  0  0  0  0  0
    0.8918   -6.5957    1.6117 C   0  0  0  0  0  0  0  0  0  0  0  0
    1.0711  -10.4814    3.2282 C   0  0  0  0  0  0  0  0  0  0  0  0
   -0.1055  -11.1328    3.5223 C   0  0  0  0  0  0  0  0  0  0  0  0
   -0.1824  -12.4513    3.3816 C   0  0  0  0  0  0  0  0  0  0  0  0
    0.9472  -13.2655    3.1726 C   0  0  0  0  0  0  0  0  0  0  0  0
    2.1715  -12.6012    2.9116 C   0  0  0  0  0  0  0  0  0  0  0  0
    2.2064  -11.2741    2.8264 C   0  0  0  0  0  0  0  0  0  0  0  0
    0.8996  -14.6381    3.2447 C   0  0  0  0  0  0  0  0  0  0  0  0
    1.9200  -15.4183    2.8055 F   0  0  0  0  0  0  0  0  0  0  0  0
   -0.0073  -15.2124    3.6963 F   0  0  0  0  0  0  0  0  0  0  0  0
    0.8448   -5.2741    1.1132 O   0  0  0  0  0  0  0  0  0  0  0  0
    0.4234   -4.1904    1.8250 C   0  0  1  0  0  0  0  0  0  0  0  0
    1.3714   -3.3902    2.1801 C   0  0  0  0  0  0  0  0  0  0  0  0
   -0.6499   -3.5471    0.9522 C   0  0  0  0  0  0  0  0  0  0  0  0
   -1.3008   -4.1471    0.2890 C   0  0  0  0  0  0  0  0  0  0  0  0
  3  7  1  0
 10 13  1  0
 13 14  1  0
 13 15  1  0
  6 16  1  0
 16 17  1  0
 17 18  1  6
 17 19  1  0
 19 20  1  0
  1  2  2  0
  2  6  1  0
  5  6  2  0
  4  5  1  0
  3  4  2  0
  1  3  1  0
  7  8  2  0
  8  9  1  0
  9 10  2  0
 10 11  1  0
 11 12  2  0
  7 12  1  0
M  END

$$$$
No_1947-/export/home/yangzhenyu/potential_scad_32_flow//YTHDC2/2024-12-06-03-22-00/
     RDKit          3D

 17 18  0  0  1  0  0  0  0  0999 V2000
    1.1787   -8.0297    3.5154 C   0  0  0  0  0  0  0  0  0  0  0  0
    1.0491   -6.8434    2.9820 C   0  0  0  0  0  0  0  0  0  0  0  0
    0.9905   -9.0774    2.6527 C   0  0  0  0  0  0  0  0  0  0  0  0
    0.7897   -8.9519    1.3691 C   0  0  0  0  0  0  0  0  0  0  0  0
    0.7018   -7.7198    0.7892 C   0  0  0  0  0  0  0  0  0  0  0  0
    0.8918   -6.5957    1.6117 C   0  0  0  0  0  0  0  0  0  0  0  0
    1.0711  -10.4814    3.2282 C   0  0  2  0  0  0  0  0  0  0  0  0
    2.1432  -11.0138    3.5962 C   0  0  0  0  0  0  0  0  0  0  0  0
   -0.0553  -11.2345    3.2841 C   0  0  0  0  0  0  0  0  0  0  0  0
   -1.2156  -10.5474    3.8659 C   0  0  0  0  0  0  0  0  0  0  0  0
   -2.4298  -10.5507    3.5126 C   0  0  0  0  0  0  0  0  0  0  0  0
   -2.7367  -11.5737    2.7091 C   0  0  0  0  0  0  0  0  0  0  0  0
   -1.7753  -12.3128    2.0548 C   0  0  0  0  0  0  0  0  0  0  0  0
   -0.4511  -12.1275    2.3307 C   0  0  0  0  0  0  0  0  0  0  0  0
    0.9132   -5.0824    1.0194 O   0  0  0  0  0  0  0  0  0  0  0  0
    2.1780  -11.7293    4.8692 O   0  0  0  0  0  0  0  0  0  0  0  0
   -0.2302   -4.4333    1.2414 C   0  0  0  0  0  0  0  0  0  0  0  0
  3  7  1  0
  7  8  1  6
  7  9  1  0
  6 15  1  0
  8 16  2  0
 15 17  1  0
  1  2  2  0
  2  6  1  0
  5  6  2  0
  4  5  1  0
  3  4  2  0
  1  3  1  0
  9 10  2  0
 10 11  1  0
 11 12  2  0
 12 13  1  0
 13 14  2  0
  9 14  1  0
M  END

$$$$
No_1948-/export/home/yangzhenyu/potential_scad_32_flow//YTHDC2/2024-12-06-03-22-00/
     RDKit          3D

 18 19  0  0  0  0  0  0  0  0999 V2000
    1.1787   -8.0297    3.5154 C   0  0  0  0  0  0  0  0  0  0  0  0
    1.1048   -9.2215    3.2892 C   0  0  0  0  0  0  0  0  0  0  0  0
    1.3627  -10.1721    4.3044 C   0  0  0  0  0  0  0  0  0  0  0  0
    1.7354  -11.4730    3.9023 C   0  0  0  0  0  0  0  0  0  0  0  0
    1.8080  -11.8127    2.7216 C   0  0  0  0  0  0  0  0  0  0  0  0
    2.0797  -13.2205    2.4264 C   0  0  0  0  0  0  0  0  0  0  0  0
    0.6896   -7.1170    2.5181 C   0  0  0  0  0  0  0  0  0  0  0  0
    0.2098   -7.5091    1.3948 C   0  0  0  0  0  0  0  0  0  0  0  0
    0.2153   -8.8244    1.0847 C   0  0  0  0  0  0  0  0  0  0  0  0
    0.6929   -9.7944    2.0142 C   0  0  0  0  0  0  0  0  0  0  0  0
    1.1816  -11.1385    1.6976 C   0  0  0  0  0  0  0  0  0  0  0  0
    1.8443  -14.1235    3.3565 O   0  0  0  0  0  0  0  0  0  0  0  0
    2.6156  -13.5656    1.3507 O   0  0  0  0  0  0  0  0  0  0  0  0
    0.7514   -5.3907    2.8353 O   0  0  0  0  0  0  0  0  0  0  0  0
   -0.1171   -9.2291   -0.3934 C   0  0  0  0  0  0  0  0  0  0  0  0
    0.5852   -8.9044   -1.3469 O   0  0  0  0  0  0  0  0  0  0  0  0
   -1.2782   -9.8193   -0.5382 N   0  0  0  0  0  0  0  0  0  0  0  0
   -1.7777  -10.1843   -1.8044 C   0  0  0  0  0  0  0  0  0  0  0  0
  5  6  1  0
  6 12  1  0
  6 13  2  0
  7 14  1  0
  9 15  1  0
 15 16  2  0
 15 17  1  0
 17 18  1  0
  1  2  2  0
  9 10  2  0
  8  9  1  0
  7  8  2  0
  1  7  1  0
  2  3  1  0
  3  4  2  0
  4  5  1  0
  5 11  2  0
 10 11  1  0
  2 10  1  0
M  END

$$$$
No_1949-/export/home/yangzhenyu/potential_scad_32_flow//YTHDC2/2024-12-06-03-22-00/
     RDKit          3D

 18 19  0  0  0  0  0  0  0  0999 V2000
    1.1787   -8.0297    3.5154 C   0  0  0  0  0  0  0  0  0  0  0  0
    1.0491   -6.8434    2.9820 C   0  0  0  0  0  0  0  0  0  0  0  0
    0.0950   -8.8404    3.2292 C   0  0  0  0  0  0  0  0  0  0  0  0
   -0.9173   -8.4596    2.5152 C   0  0  0  0  0  0  0  0  0  0  0  0
   -1.0331   -7.2162    2.0653 C   0  0  0  0  0  0  0  0  0  0  0  0
   -0.0105   -6.3168    2.3081 C   0  0  0  0  0  0  0  0  0  0  0  0
    0.1465  -10.2446    3.6981 C   0  0  0  0  0  0  0  0  0  0  0  0
   -1.0336  -10.8619    3.9439 C   0  0  0  0  0  0  0  0  0  0  0  0
   -0.8576  -12.3101    4.1964 C   0  0  0  0  0  0  0  0  0  0  0  0
   -1.6291  -13.0224    3.4124 C   0  0  0  0  0  0  0  0  0  0  0  0
   -2.2764  -12.9078    2.5744 C   0  0  0  0  0  0  0  0  0  0  0  0
   -2.7356  -11.4084    2.4359 C   0  0  0  0  0  0  0  0  0  0  0  0
   -2.0050  -10.4526    3.0282 C   0  0  0  0  0  0  0  0  0  0  0  0
    0.0083   -4.9658    1.8761 C   0  0  0  0  0  0  0  0  0  0  0  0
    0.8419   -4.0979    2.3687 C   0  0  0  0  0  0  0  0  0  0  0  0
    1.0144   -2.7572    1.9543 C   0  0  0  0  0  0  0  0  0  0  0  0
    0.2243   -2.4598    0.8820 C   0  0  0  0  0  0  0  0  0  0  0  0
   -0.6244   -3.2618    0.2645 C   0  0  0  0  0  0  0  0  0  0  0  0
  3  7  1  0
  6 14  1  0
 14 15  2  3
 15 16  1  0
 16 17  2  3
 17 18  1  0
  7  8  1  0
  1  2  2  0
  2  6  1  0
  5  6  2  0
  4  5  1  0
  3  4  2  0
  1  3  1  0
  8  9  2  0
  9 10  1  0
 10 11  2  0
 11 12  1  0
 12 13  2  0
  8 13  1  0
M  END

$$$$
No_1950-/export/home/yangzhenyu/potential_scad_32_flow//YTHDC2/2024-12-06-03-22-00/
     RDKit          3D

 19 19  0  0  1  0  0  0  0  0999 V2000
    1.1787   -8.0297    3.5154 C   0  0  0  0  0  0  0  0  0  0  0  0
    1.0491   -6.8434    2.9820 C   0  0  0  0  0  0  0  0  0  0  0  0
    0.2462   -8.9560    3.0873 C   0  0  0  0  0  0  0  0  0  0  0  0
    0.3295   -6.5187    1.9069 C   0  0  0  0  0  0  0  0  0  0  0  0
   -0.5260   -8.7862    2.1368 C   0  0  0  0  0  0  0  0  0  0  0  0
   -0.5458   -7.5614    1.5054 C   0  0  0  0  0  0  0  0  0  0  0  0
    0.3663  -10.3301    3.7373 O   0  0  0  0  0  0  0  0  0  0  0  0
    0.3146   -5.2925    1.3008 C   0  0  0  0  0  0  0  0  0  0  0  0
    0.7528  -11.4809    3.2431 C   0  0  0  0  0  0  0  0  0  0  0  0
   -0.2293  -12.2196    2.6442 C   0  0  2  0  0  0  0  0  0  0  0  0
   -1.4088  -12.0662    2.7729 C   0  0  0  0  0  0  0  0  0  0  0  0
    0.2640  -13.3550    1.9740 C   0  0  0  0  0  0  0  0  0  0  0  0
    1.5977  -13.6227    1.8700 C   0  0  0  0  0  0  0  0  0  0  0  0
   -0.6064   -4.8236    0.5600 O   0  0  0  0  0  0  0  0  0  0  0  0
    1.4838   -4.6536    1.1316 O   0  0  0  0  0  0  0  0  0  0  0  0
   -0.6271  -14.1919    1.4807 C   0  0  0  0  0  0  0  0  0  0  0  0
    2.4209  -12.7329    1.1363 C   0  0  0  0  0  0  0  0  0  0  0  0
   -1.8268  -13.6940    0.8903 O   0  0  0  0  0  0  0  0  0  0  0  0
   -0.5945  -15.5628    1.5723 N   0  0  0  0  0  0  0  0  0  0  0  0
  3  7  1  0
  4  8  1  0
  7  9  1  0
  9 10  1  0
 10 11  1  1
 10 12  1  0
 12 13  1  0
  8 14  2  0
  8 15  1  0
 12 16  1  0
 13 17  1  0
 16 18  2  0
 16 19  1  0
  1  2  2  0
  2  4  1  0
  4  6  2  0
  5  6  1  0
  3  5  2  0
  1  3  1  0
M  END

$$$$
No_1951-/export/home/yangzhenyu/potential_scad_32_flow//YTHDC2/2024-12-06-03-22-00/
     RDKit          3D

 15 15  0  0  0  0  0  0  0  0999 V2000
    1.1787   -8.0297    3.5154 C   0  0  0  0  0  0  0  0  0  0  0  0
    1.1048   -9.2215    3.2892 C   0  0  0  0  0  0  0  0  0  0  0  0
    1.3627  -10.1721    4.3044 C   0  0  0  0  0  0  0  0  0  0  0  0
    1.7354  -11.4730    3.9023 C   0  0  0  0  0  0  0  0  0  0  0  0
    1.8080  -11.8127    2.7216 C   0  0  0  0  0  0  0  0  0  0  0  0
    1.5854  -11.0021    1.7249 C   0  0  0  0  0  0  0  0  0  0  0  0
    1.3573   -9.7389    1.9287 C   0  0  0  0  0  0  0  0  0  0  0  0
    1.2865   -8.8078    0.9161 C   0  0  0  0  0  0  0  0  0  0  0  0
    0.9210   -7.5140    1.1674 O   0  0  0  0  0  0  0  0  0  0  0  0
    1.5321   -9.1645   -0.3432 O   0  0  0  0  0  0  0  0  0  0  0  0
    2.1365  -13.4134    2.2803 C   0  0  0  0  0  0  0  0  0  0  0  0
    2.2482  -13.6566    1.0182 O   0  0  0  0  0  0  0  0  0  0  0  0
    2.2836  -14.3083    3.1702 O   0  0  0  0  0  0  0  0  0  0  0  0
    0.1244   -7.2148    3.6618 N   0  0  0  0  0  0  0  0  0  0  0  0
    0.0349   -5.9696    3.1753 O   0  0  0  0  0  0  0  0  0  0  0  0
  1  2  1  0
  7  8  1  0
  8  9  2  0
  8 10  1  0
  5 11  1  0
 11 12  2  0
 11 13  1  0
  1 14  1  0
 14 15  2  0
  2  3  2  0
  3  4  1  0
  4  5  2  0
  5  6  1  0
  6  7  2  0
  2  7  1  0
M  END

$$$$
No_1952-/export/home/yangzhenyu/potential_scad_32_flow//YTHDC2/2024-12-06-03-22-00/
     RDKit          3D

 18 19  0  0  0  0  0  0  0  0999 V2000
    1.1787   -8.0297    3.5154 C   0  0  0  0  0  0  0  0  0  0  0  0
    1.1048   -9.2215    3.2892 C   0  0  0  0  0  0  0  0  0  0  0  0
    1.2339   -9.7611    2.0189 C   0  0  0  0  0  0  0  0  0  0  0  0
    1.3583   -9.0036    0.9764 C   0  0  0  0  0  0  0  0  0  0  0  0
    1.5996   -7.6362    1.1311 C   0  0  0  0  0  0  0  0  0  0  0  0
    1.4830   -7.0928    2.3626 C   0  0  0  0  0  0  0  0  0  0  0  0
    1.1008  -11.2372    1.8542 N   0  0  0  0  0  0  0  0  0  0  0  0
    1.9253  -12.1082    2.1966 C   0  0  0  0  0  0  0  0  0  0  0  0
    1.6496  -13.4126    1.7623 C   0  0  0  0  0  0  0  0  0  0  0  0
    2.0318  -14.4736    2.4916 C   0  0  0  0  0  0  0  0  0  0  0  0
    2.0611  -15.8293    2.0657 C   0  0  0  0  0  0  0  0  0  0  0  0
    1.3338  -16.0663    1.0691 C   0  0  0  0  0  0  0  0  0  0  0  0
    0.7126  -15.1705    0.3128 C   0  0  0  0  0  0  0  0  0  0  0  0
    0.9074  -13.8314    0.6009 C   0  0  0  0  0  0  0  0  0  0  0  0
    1.5643   -9.4814   -0.4817 O   0  0  0  0  0  0  0  0  0  0  0  0
    1.4874   -5.6413    2.5833 C   0  0  0  0  0  0  0  0  0  0  0  0
    1.7127   -5.1660    3.7663 C   0  0  0  0  0  0  0  0  0  0  0  0
    1.2404   -4.8515    1.5135 C   0  0  0  0  0  0  0  0  0  0  0  0
  3  7  1  0
  7  8  1  0
  8  9  1  0
  4 15  1  0
  6 16  1  0
 16 17  1  0
 16 18  1  0
  1  2  2  0
  2  3  1  0
  3  4  2  0
  4  5  1  0
  5  6  2  0
  1  6  1  0
  9 10  2  0
 10 11  1  0
 11 12  2  0
 12 13  1  0
 13 14  2  0
  9 14  1  0
M  END

$$$$
No_1953-/export/home/yangzhenyu/potential_scad_32_flow//YTHDC2/2024-12-06-03-22-00/
     RDKit          3D

 19 20  0  0  1  0  0  0  0  0999 V2000
    1.1787   -8.0297    3.5154 C   0  0  0  0  0  0  0  0  0  0  0  0
    1.1048   -9.2215    3.2892 C   0  0  0  0  0  0  0  0  0  0  0  0
    1.0239   -9.7790    2.0239 C   0  0  0  0  0  0  0  0  0  0  0  0
    1.1393   -9.0211    0.9686 C   0  0  0  0  0  0  0  0  0  0  0  0
    1.4051   -7.6500    1.1251 C   0  0  0  0  0  0  0  0  0  0  0  0
    1.4868   -7.1041    2.3534 C   0  0  0  0  0  0  0  0  0  0  0  0
    1.5562   -5.7208    2.5782 N   0  0  0  0  0  0  0  0  0  0  0  0
    0.8735  -11.3572    1.9331 C   0  0  1  0  0  0  0  0  0  0  0  0
   -0.2132  -11.6885    1.2357 C   0  0  0  0  0  0  0  0  0  0  0  0
   -1.2967  -11.0132    1.1878 C   0  0  0  0  0  0  0  0  0  0  0  0
   -2.3618  -11.3951    0.3029 C   0  0  0  0  0  0  0  0  0  0  0  0
   -3.4317  -10.5123    0.2214 C   0  0  0  0  0  0  0  0  0  0  0  0
   -4.3852  -10.7513   -0.5874 C   0  0  0  0  0  0  0  0  0  0  0  0
   -5.3769   -9.8565   -0.6919 C   0  0  0  0  0  0  0  0  0  0  0  0
   -5.3305   -8.7145    0.1221 C   0  0  0  0  0  0  0  0  0  0  0  0
   -4.3346   -8.4354    0.9936 C   0  0  0  0  0  0  0  0  0  0  0  0
   -3.2298   -9.3724    1.1048 C   0  0  0  0  0  0  0  0  0  0  0  0
    1.8657  -12.0190    2.3432 C   0  0  0  0  0  0  0  0  0  0  0  0
    1.9805  -12.3358    3.6789 C   0  0  0  0  0  0  0  0  0  0  0  0
  6  7  1  0
  3  8  1  0
  8  9  1  0
  9 10  2  3
 10 11  1  0
  8 18  1  6
 18 19  1  0
 11 12  1  0
 12 13  2  0
 13 14  1  0
 14 15  2  0
 15 16  1  0
 16 17  2  0
 12 17  1  0
  1  2  2  0
  2  3  1  0
  3  4  2  0
  4  5  1  0
  5  6  2  0
  1  6  1  0
M  END

$$$$
No_1954-/export/home/yangzhenyu/potential_scad_32_flow//YTHDC2/2024-12-06-03-22-00/
     RDKit          3D

 17 18  0  0  0  0  0  0  0  0999 V2000
    1.1787   -8.0297    3.5154 O   0  0  0  0  0  0  0  0  0  0  0  0
    0.9969   -8.9689    3.0048 C   0  0  0  0  0  0  0  0  0  0  0  0
    1.3055  -10.1056    3.6616 C   0  0  0  0  0  0  0  0  0  0  0  0
    1.1249  -11.3503    3.0941 C   0  0  0  0  0  0  0  0  0  0  0  0
    1.4907  -12.5554    3.7266 C   0  0  0  0  0  0  0  0  0  0  0  0
    0.6645   -9.1181    1.7007 C   0  0  0  0  0  0  0  0  0  0  0  0
    0.5373  -10.2813    1.0793 C   0  0  0  0  0  0  0  0  0  0  0  0
    0.7999  -11.4155    1.6986 C   0  0  0  0  0  0  0  0  0  0  0  0
    0.7762  -12.6137    1.0230 C   0  0  0  0  0  0  0  0  0  0  0  0
    1.2005  -13.8029    3.1858 C   0  0  0  0  0  0  0  0  0  0  0  0
    0.9661  -13.8733    1.8640 C   0  0  0  0  0  0  0  0  0  0  0  0
    0.3981   -7.6482    0.9571 C   0  0  0  0  0  0  0  0  0  0  0  0
   -0.5685   -7.7485    0.1812 C   0  0  0  0  0  0  0  0  0  0  0  0
   -1.4710   -8.8258    0.1570 C   0  0  0  0  0  0  0  0  0  0  0  0
   -2.5528   -8.9956    0.9018 C   0  0  0  0  0  0  0  0  0  0  0  0
   -3.4003   -9.9857    0.8611 C   0  0  0  0  0  0  0  0  0  0  0  0
   -3.4116  -10.7557   -0.2584 C   0  0  0  0  0  0  0  0  0  0  0  0
  1  2  1  0
  6 12  1  0
 12 13  2  3
 13 14  1  0
 14 15  2  3
 15 16  1  0
 16 17  2  0
  4  5  2  0
  5 10  1  0
 10 11  2  0
  9 11  1  0
  8  9  2  0
  2  3  2  0
  3  4  1  0
  4  8  1  0
  7  8  1  0
  6  7  2  0
  2  6  1  0
M  END

$$$$
No_1955-/export/home/yangzhenyu/potential_scad_32_flow//YTHDC2/2024-12-06-03-22-00/
     RDKit          3D

 18 19  0  0  0  0  0  0  0  0999 V2000
    1.1787   -8.0297    3.5154 C   0  0  0  0  0  0  0  0  0  0  0  0
    1.0491   -6.8434    2.9820 C   0  0  0  0  0  0  0  0  0  0  0  0
    0.9905   -9.0774    2.6527 C   0  0  0  0  0  0  0  0  0  0  0  0
    0.7897   -8.9519    1.3691 C   0  0  0  0  0  0  0  0  0  0  0  0
    0.7018   -7.7198    0.7892 C   0  0  0  0  0  0  0  0  0  0  0  0
    0.8918   -6.5957    1.6117 C   0  0  0  0  0  0  0  0  0  0  0  0
    1.0711  -10.4814    3.2282 C   0  0  0  0  0  0  0  0  0  0  0  0
    1.1227  -11.5770    2.4616 C   0  0  0  0  0  0  0  0  0  0  0  0
    1.1500  -12.9052    3.0782 C   0  0  0  0  0  0  0  0  0  0  0  0
    1.8689  -13.5339    3.4230 C   0  0  0  0  0  0  0  0  0  0  0  0
    1.8363  -14.9944    3.5816 C   0  0  0  0  0  0  0  0  0  0  0  0
    1.3275  -15.7932    2.6399 C   0  0  0  0  0  0  0  0  0  0  0  0
    0.4548  -15.0313    1.7926 C   0  0  0  0  0  0  0  0  0  0  0  0
    0.3441  -13.6288    1.8874 C   0  0  0  0  0  0  0  0  0  0  0  0
    0.8428   -5.2754    1.1521 C   0  0  0  0  0  0  0  0  0  0  0  0
    0.1367   -4.2664    1.9230 O   0  0  0  0  0  0  0  0  0  0  0  0
   -1.0837   -4.1600    1.4826 C   0  0  0  0  0  0  0  0  0  0  0  0
    1.1814  -17.1421    2.5802 C   0  0  0  0  0  0  0  0  0  0  0  0
  3  7  1  0
  7  8  2  3
  8  9  1  0
  6 15  1  0
 15 16  1  0
 16 17  1  0
 12 18  1  0
  1  2  2  0
  2  6  1  0
  5  6  2  0
  4  5  1  0
  3  4  2  0
  1  3  1  0
  9 10  2  0
 10 11  1  0
 11 12  2  0
 12 13  1  0
 13 14  2  0
  9 14  1  0
M  END

$$$$
No_1956-/export/home/yangzhenyu/potential_scad_32_flow//YTHDC2/2024-12-06-03-22-00/
     RDKit          3D

 20 20  0  0  1  0  0  0  0  0999 V2000
    1.1787   -8.0297    3.5154 C   0  0  0  0  0  0  0  0  0  0  0  0
    1.0491   -6.8434    2.9820 C   0  0  0  0  0  0  0  0  0  0  0  0
    1.9985   -8.9840    2.8958 C   0  0  0  0  0  0  0  0  0  0  0  0
    1.1815  -10.1889    2.5497 C   0  0  2  0  0  0  0  0  0  0  0  0
    0.3496  -10.1352    1.6537 C   0  0  1  0  0  0  0  0  0  0  0  0
   -0.8355  -10.5689    1.8958 C   0  0  0  0  0  0  0  0  0  0  0  0
   -1.0417  -11.4150    2.9972 C   0  0  0  0  0  0  0  0  0  0  0  0
    0.0974  -11.7238    3.8799 C   0  0  0  0  0  0  0  0  0  0  0  0
    1.2333  -10.9395    3.7501 C   0  0  0  0  0  0  0  0  0  0  0  0
    0.1347   -6.7823    1.8963 O   0  0  0  0  0  0  0  0  0  0  0  0
    1.8782   -5.7828    2.9308 N   0  0  0  0  0  0  0  0  0  0  0  0
    2.3339  -11.1299    4.4389 O   0  0  0  0  0  0  0  0  0  0  0  0
    1.5807   -4.5773    2.3966 C   0  0  0  0  0  0  0  0  0  0  0  0
    1.0774   -3.4765    3.1226 C   0  0  0  0  0  0  0  0  0  0  0  0
    0.4799   -9.3243    0.4491 C   0  0  0  0  0  0  0  0  0  0  0  0
    1.7057   -9.2363   -0.1859 C   0  0  0  0  0  0  0  0  0  0  0  0
    2.6905   -9.9364   -0.0289 O   0  0  0  0  0  0  0  0  0  0  0  0
    1.8719   -8.1752   -1.1008 N   0  0  0  0  0  0  0  0  0  0  0  0
    0.2511   -2.6511    2.6630 C   0  0  0  0  0  0  0  0  0  0  0  0
    0.1385   -2.5461    1.3339 C   0  0  0  0  0  0  0  0  0  0  0  0
  1  2  1  0
  1  3  1  0
  4  3  1  1
  4  5  1  0
  6  7  1  0
  4  9  1  0
  8  9  1  0
  2 10  2  0
  2 11  1  0
  9 12  2  0
 11 13  1  0
 13 14  1  0
  5 15  1  1
 15 16  1  0
 16 17  2  0
 16 18  1  0
 14 19  2  3
 19 20  1  0
  5  6  1  0
  7  8  1  0
M  END

$$$$
No_1957-/export/home/yangzhenyu/potential_scad_32_flow//YTHDC2/2024-12-06-03-22-00/
     RDKit          3D

 20 21  0  0  1  0  0  0  0  0999 V2000
    1.1787   -8.0297    3.5154 C   0  0  0  0  0  0  0  0  0  0  0  0
    1.0491   -6.8434    2.9820 C   0  0  0  0  0  0  0  0  0  0  0  0
    0.9905   -9.0774    2.6527 C   0  0  0  0  0  0  0  0  0  0  0  0
    0.7897   -8.9519    1.3691 C   0  0  0  0  0  0  0  0  0  0  0  0
    0.7018   -7.7198    0.7892 C   0  0  0  0  0  0  0  0  0  0  0  0
    0.8918   -6.5957    1.6117 C   0  0  0  0  0  0  0  0  0  0  0  0
    1.0711  -10.4814    3.2282 C   0  0  1  0  0  0  0  0  0  0  0  0
   -0.1055  -11.1328    3.5223 C   0  0  0  0  0  0  0  0  0  0  0  0
   -1.2061  -10.3495    3.8837 C   0  0  0  0  0  0  0  0  0  0  0  0
   -1.2715   -9.5949    5.0137 C   0  0  0  0  0  0  0  0  0  0  0  0
   -2.3226   -8.7872    5.3499 C   0  0  0  0  0  0  0  0  0  0  0  0
   -3.3409   -8.6873    4.5477 C   0  0  0  0  0  0  0  0  0  0  0  0
   -3.3662   -9.3023    3.3561 C   0  0  0  0  0  0  0  0  0  0  0  0
   -2.3177  -10.1277    2.9760 C   0  0  0  0  0  0  0  0  0  0  0  0
    2.2846  -11.0838    3.2457 C   0  0  0  0  0  0  0  0  0  0  0  0
    2.3560  -12.3129    3.8612 N   0  0  0  0  0  0  0  0  0  0  0  0
    0.8462   -5.2796    1.1364 O   0  0  0  0  0  0  0  0  0  0  0  0
   -2.3328  -10.7573    1.7924 C   0  0  0  0  0  0  0  0  0  0  0  0
   -0.0892  -12.3565    3.6807 O   0  0  0  0  0  0  0  0  0  0  0  0
    1.5282  -12.7213    4.2711 H   0  0  0  0  0  0  0  0  0  0  0  0
  3  7  1  0
  7  8  1  6
  8  9  1  0
  7 15  1  0
 15 16  2  0
  6 17  1  0
 14 18  1  0
  8 19  2  0
  1  2  2  0
  2  6  1  0
  5  6  2  0
  4  5  1  0
  3  4  2  0
  1  3  1  0
  9 10  2  0
 10 11  1  0
 11 12  2  0
 12 13  1  0
 13 14  2  0
  9 14  1  0
 16 20  1  0
M  END

$$$$
No_1958-/export/home/yangzhenyu/potential_scad_32_flow//YTHDC2/2024-12-06-03-22-00/
     RDKit          3D

 19 20  0  0  0  0  0  0  0  0999 V2000
    1.1787   -8.0297    3.5154 C   0  0  0  0  0  0  0  0  0  0  0  0
    1.1048   -9.2215    3.2892 C   0  0  0  0  0  0  0  0  0  0  0  0
    1.2339   -9.7611    2.0189 C   0  0  0  0  0  0  0  0  0  0  0  0
    1.3583   -9.0036    0.9764 C   0  0  0  0  0  0  0  0  0  0  0  0
    1.5996   -7.6362    1.1311 C   0  0  0  0  0  0  0  0  0  0  0  0
    1.4830   -7.0928    2.3626 C   0  0  0  0  0  0  0  0  0  0  0  0
    1.5395   -5.7300    2.6182 C   0  0  0  0  0  0  0  0  0  0  0  0
    1.1775  -11.2233    1.8407 C   0  0  0  0  0  0  0  0  0  0  0  0
    1.9057  -12.1147    2.3397 C   0  0  0  0  0  0  0  0  0  0  0  0
    1.6867  -13.4551    2.0621 C   0  0  0  0  0  0  0  0  0  0  0  0
    0.7025  -13.8511    1.3021 C   0  0  0  0  0  0  0  0  0  0  0  0
   -0.1111  -12.9140    0.6527 C   0  0  0  0  0  0  0  0  0  0  0  0
    0.1535  -11.5434    0.9240 C   0  0  0  0  0  0  0  0  0  0  0  0
    1.6688   -5.1779    3.8866 N   0  0  0  0  0  0  0  0  0  0  0  0
    1.1872   -4.8238    1.6004 N   0  0  0  0  0  0  0  0  0  0  0  0
    2.6247  -14.5803    2.8671 Cl  0  0  0  0  0  0  0  0  0  0  0  0
   -0.6990  -10.6699    0.3346 C   0  0  0  0  0  0  0  0  0  0  0  0
   -1.8520  -10.3186    1.0155 C   0  0  0  0  0  0  0  0  0  0  0  0
    1.8330   -5.7763    4.6835 H   0  0  0  0  0  0  0  0  0  0  0  0
  6  7  1  0
  3  8  1  0
  7 14  2  0
  7 15  1  0
 10 16  1  0
 13 17  1  0
 17 18  1  0
  1  2  2  0
  2  3  1  0
  3  4  2  0
  4  5  1  0
  5  6  2  0
  1  6  1  0
  8  9  2  0
  9 10  1  0
 10 11  2  0
 11 12  1  0
 12 13  2  0
  8 13  1  0
 14 19  1  0
M  END

$$$$
No_1959-/export/home/yangzhenyu/potential_scad_32_flow//YTHDC2/2024-12-06-03-22-00/
     RDKit          3D

 18 19  0  0  0  0  0  0  0  0999 V2000
    1.1787   -8.0297    3.5154 C   0  0  0  0  0  0  0  0  0  0  0  0
    1.0491   -6.8434    2.9820 C   0  0  0  0  0  0  0  0  0  0  0  0
    0.0950   -8.8404    3.2292 C   0  0  0  0  0  0  0  0  0  0  0  0
   -0.9173   -8.4596    2.5152 C   0  0  0  0  0  0  0  0  0  0  0  0
   -1.0331   -7.2162    2.0653 C   0  0  0  0  0  0  0  0  0  0  0  0
   -0.0105   -6.3168    2.3081 C   0  0  0  0  0  0  0  0  0  0  0  0
    0.1465  -10.2446    3.6981 C   0  0  0  0  0  0  0  0  0  0  0  0
    1.2433  -10.8239    4.0166 C   0  0  0  0  0  0  0  0  0  0  0  0
    1.0790  -12.2885    4.3779 C   0  0  0  0  0  0  0  0  0  0  0  0
    0.8834  -12.9822    3.2583 C   0  0  0  0  0  0  0  0  0  0  0  0
    0.0265  -12.5445    2.3035 C   0  0  0  0  0  0  0  0  0  0  0  0
   -0.3056  -11.1111    2.4912 C   0  0  0  0  0  0  0  0  0  0  0  0
    1.1104  -14.4324    3.2943 F   0  0  0  0  0  0  0  0  0  0  0  0
   -0.1095   -4.9942    1.8810 O   0  0  0  0  0  0  0  0  0  0  0  0
   -0.1658   -3.9801    2.3952 C   0  0  0  0  0  0  0  0  0  0  0  0
    1.0521   -3.4273    2.8998 C   0  0  0  0  0  0  0  0  0  0  0  0
   -0.4668  -13.1799    1.3416 C   0  0  0  0  0  0  0  0  0  0  0  0
   -1.2104  -12.6963    0.5250 C   0  0  0  0  0  0  0  0  0  0  0  0
  3  7  1  0
 10 13  1  0
  6 14  1  0
 14 15  1  0
 15 16  1  0
 11 17  1  0
 17 18  2  0
  1  2  2  0
  2  6  1  0
  5  6  2  0
  4  5  1  0
  3  4  2  0
  1  3  1  0
  7  8  2  0
  8  9  1  0
  9 10  2  0
 10 11  1  0
 11 12  2  0
  7 12  1  0
M  END

$$$$
No_1960-/export/home/yangzhenyu/potential_scad_32_flow//YTHDC2/2024-12-06-03-22-00/
     RDKit          3D

 20 22  0  0  1  0  0  0  0  0999 V2000
    1.1787   -8.0297    3.5154 C   0  0  0  0  0  0  0  0  0  0  0  0
    1.1048   -9.2215    3.2892 C   0  0  0  0  0  0  0  0  0  0  0  0
    1.2339   -9.7611    2.0189 C   0  0  0  0  0  0  0  0  0  0  0  0
    1.3583   -9.0036    0.9764 C   0  0  0  0  0  0  0  0  0  0  0  0
    1.5996   -7.6362    1.1311 C   0  0  0  0  0  0  0  0  0  0  0  0
    1.4830   -7.0928    2.3626 C   0  0  0  0  0  0  0  0  0  0  0  0
    1.3121   -5.7497    2.5440 C   0  0  0  0  0  0  0  0  0  0  0  0
    1.1998  -11.2296    1.8484 C   0  0  2  0  0  0  0  0  0  0  0  0
    1.9234  -12.0592    2.4966 C   0  0  0  0  0  0  0  0  0  0  0  0
    1.7208  -13.4431    2.1386 C   0  0  2  0  0  0  0  0  0  0  0  0
    0.8859  -13.8405    1.2219 C   0  0  0  0  0  0  0  0  0  0  0  0
    0.1825  -12.8574    0.4489 C   0  0  0  0  0  0  0  0  0  0  0  0
    0.4014  -11.5086    0.7430 C   0  0  0  0  0  0  0  0  0  0  0  0
    0.6858   -4.9685    1.6612 C   0  0  0  0  0  0  0  0  0  0  0  0
    0.6049   -3.5432    1.8372 C   0  0  0  0  0  0  0  0  0  0  0  0
    2.3718  -14.4412    2.9234 Cl  0  0  0  0  0  0  0  0  0  0  0  0
    1.5707   -2.8901    2.7198 C   0  0  0  0  0  0  0  0  0  0  0  0
    2.1413   -3.7140    3.7523 C   0  0  0  0  0  0  0  0  0  0  0  0
    2.1092   -5.0562    3.6534 C   0  0  0  0  0  0  0  0  0  0  0  0
   -0.3445  -10.6852    0.0153 O   0  0  0  0  0  0  0  0  0  0  0  0
  6  7  1  0
  8  3  1  6
  8  9  1  0
 10 11  1  0
  8 13  1  0
 12 13  1  0
 10 16  1  1
 13 20  2  0
  9 10  1  0
 11 12  1  0
  1  2  2  0
  2  3  1  0
  3  4  2  0
  4  5  1  0
  5  6  2  0
  1  6  1  0
  7 14  2  0
 14 15  1  0
 15 17  2  0
 17 18  1  0
 18 19  2  0
  7 19  1  0
M  END

$$$$
No_1961-/export/home/yangzhenyu/potential_scad_32_flow//YTHDC2/2024-12-06-03-22-00/
     RDKit          3D

 20 21  0  0  1  0  0  0  0  0999 V2000
    1.1787   -8.0297    3.5154 C   0  0  0  0  0  0  0  0  0  0  0  0
    1.1048   -9.2215    3.2892 C   0  0  0  0  0  0  0  0  0  0  0  0
    1.2339   -9.7611    2.0189 C   0  0  0  0  0  0  0  0  0  0  0  0
    1.3583   -9.0036    0.9764 C   0  0  0  0  0  0  0  0  0  0  0  0
    1.5996   -7.6362    1.1311 C   0  0  0  0  0  0  0  0  0  0  0  0
    1.4830   -7.0928    2.3626 C   0  0  0  0  0  0  0  0  0  0  0  0
    1.1008  -11.2372    1.8542 C   0  0  0  0  0  0  0  0  0  0  0  0
    0.4812  -11.6084    0.6459 O   0  0  0  0  0  0  0  0  0  0  0  0
    2.0292  -12.0272    2.3781 N   0  0  0  0  0  0  0  0  0  0  0  0
    1.9096  -13.4150    2.1965 C   0  0  1  0  0  0  0  0  0  0  0  0
    1.0730  -14.0939    3.2414 C   0  0  0  0  0  0  0  0  0  0  0  0
    1.0287  -15.4946    3.0658 C   0  0  2  0  0  0  0  0  0  0  0  0
    1.5310  -16.1988    2.0527 C   0  0  0  0  0  0  0  0  0  0  0  0
    2.2718  -15.4453    1.0869 C   0  0  0  0  0  0  0  0  0  0  0  0
    2.3731  -14.0714    1.2181 C   0  0  0  0  0  0  0  0  0  0  0  0
    1.5497   -5.6487    2.6555 Cl  0  0  0  0  0  0  0  0  0  0  0  0
    3.1751  -13.4213    0.3621 O   0  0  0  0  0  0  0  0  0  0  0  0
    1.5888   -9.4377   -0.3541 O   0  0  0  0  0  0  0  0  0  0  0  0
    0.2913  -16.2352    4.0871 Br  0  0  0  0  0  0  0  0  0  0  0  0
    1.4425  -17.5283    1.8369 Cl  0  0  0  0  0  0  0  0  0  0  0  0
  3  7  1  0
  7  8  2  0
  7  9  1  0
 10  9  1  6
 10 11  1  0
 12 13  1  0
 10 15  1  0
 14 15  1  0
  6 16  1  0
 15 17  2  0
  4 18  1  0
 12 19  1  6
 13 20  1  0
 11 12  1  0
 13 14  1  0
  1  2  2  0
  2  3  1  0
  3  4  2  0
  4  5  1  0
  5  6  2  0
  1  6  1  0
M  END

$$$$
No_1962-/export/home/yangzhenyu/potential_scad_32_flow//YTHDC2/2024-12-06-03-22-00/
     RDKit          3D

 20 21  0  0  0  0  0  0  0  0999 V2000
    1.1787   -8.0297    3.5154 C   0  0  0  0  0  0  0  0  0  0  0  0
    1.0491   -6.8434    2.9820 C   0  0  0  0  0  0  0  0  0  0  0  0
    0.9905   -9.0774    2.6527 C   0  0  0  0  0  0  0  0  0  0  0  0
    0.7897   -8.9519    1.3691 C   0  0  0  0  0  0  0  0  0  0  0  0
    0.7018   -7.7198    0.7892 C   0  0  0  0  0  0  0  0  0  0  0  0
    0.8918   -6.5957    1.6117 C   0  0  0  0  0  0  0  0  0  0  0  0
    1.0600  -10.5680    3.3321 C   0  0  0  0  0  0  0  0  0  0  0  0
   -0.1041  -11.1772    3.5150 C   0  0  0  0  0  0  0  0  0  0  0  0
   -0.1608  -12.4876    3.3268 C   0  0  0  0  0  0  0  0  0  0  0  0
    0.9865  -13.2841    3.1741 C   0  0  0  0  0  0  0  0  0  0  0  0
    2.2316  -12.5817    3.0045 C   0  0  0  0  0  0  0  0  0  0  0  0
    2.2290  -11.2587    2.9229 C   0  0  0  0  0  0  0  0  0  0  0  0
    0.9652  -14.6598    3.2128 O   0  0  0  0  0  0  0  0  0  0  0  0
    0.8565   -5.2742    1.1203 C   0  0  0  0  0  0  0  0  0  0  0  0
    1.5235   -4.2571    1.7656 C   0  0  0  0  0  0  0  0  0  0  0  0
    1.4673   -2.9154    1.3336 C   0  0  0  0  0  0  0  0  0  0  0  0
    1.9398  -15.3638    2.6260 C   0  0  0  0  0  0  0  0  0  0  0  0
    1.8144   -1.9116    1.9297 C   0  0  0  0  0  0  0  0  0  0  0  0
    1.1781   -2.7656   -0.0752 C   0  0  0  0  0  0  0  0  0  0  0  0
    1.0414   -1.3820   -0.5014 C   0  0  0  0  0  0  0  0  0  0  0  0
  3  7  1  0
 10 13  1  0
  6 14  1  0
 14 15  2  3
 15 16  1  0
 13 17  1  0
 16 18  2  0
 16 19  1  0
 19 20  2  0
  1  2  2  0
  2  6  1  0
  5  6  2  0
  4  5  1  0
  3  4  2  0
  1  3  1  0
  7  8  2  0
  8  9  1  0
  9 10  2  0
 10 11  1  0
 11 12  2  0
  7 12  1  0
M  END

$$$$
No_1963-/export/home/yangzhenyu/potential_scad_32_flow//YTHDC2/2024-12-06-03-22-00/
     RDKit          3D

 21 22  0  0  0  0  0  0  0  0999 V2000
    1.1787   -8.0297    3.5154 C   0  0  0  0  0  0  0  0  0  0  0  0
    1.1048   -9.2215    3.2892 C   0  0  0  0  0  0  0  0  0  0  0  0
    1.2339   -9.7611    2.0189 C   0  0  0  0  0  0  0  0  0  0  0  0
    1.3583   -9.0036    0.9764 C   0  0  0  0  0  0  0  0  0  0  0  0
    1.5996   -7.6362    1.1311 C   0  0  0  0  0  0  0  0  0  0  0  0
    1.4830   -7.0928    2.3626 C   0  0  0  0  0  0  0  0  0  0  0  0
    1.4898   -5.7274    2.6199 C   0  0  0  0  0  0  0  0  0  0  0  0
    1.1681  -11.2222    1.8390 C   0  0  0  0  0  0  0  0  0  0  0  0
    0.5014  -11.9760    2.2068 C   0  0  0  0  0  0  0  0  0  0  0  0
    0.4167  -13.3685    2.0527 C   0  0  0  0  0  0  0  0  0  0  0  0
    1.5984  -14.1574    2.4634 C   0  0  0  0  0  0  0  0  0  0  0  0
    1.8283  -15.3606    2.3190 C   0  0  0  0  0  0  0  0  0  0  0  0
    0.9181  -16.1655    1.7275 C   0  0  0  0  0  0  0  0  0  0  0  0
   -0.2543  -15.6194    1.3332 C   0  0  0  0  0  0  0  0  0  0  0  0
   -0.4812  -14.2719    1.4803 C   0  0  0  0  0  0  0  0  0  0  0  0
    1.7010   -5.1716    3.8674 N   0  0  0  0  0  0  0  0  0  0  0  0
    1.3513   -4.8354    1.6328 O   0  0  0  0  0  0  0  0  0  0  0  0
   -1.6304  -13.7181    0.9370 N   0  0  0  0  0  0  0  0  0  0  0  0
    1.0372  -17.5753    1.6936 C   0  0  0  0  0  0  0  0  0  0  0  0
    2.1139  -18.1827    2.4707 C   0  0  0  0  0  0  0  0  0  0  0  0
    2.3774  -19.5732    2.4064 C   0  0  0  0  0  0  0  0  0  0  0  0
  6  7  1  0
  3  8  1  0
  8  9  2  3
  9 10  1  0
  7 16  1  0
  7 17  2  0
 13 19  1  0
 19 20  2  3
 20 21  1  0
 15 18  1  0
  1  2  2  0
  2  3  1  0
  3  4  2  0
  4  5  1  0
  5  6  2  0
  1  6  1  0
 10 11  2  0
 11 12  1  0
 12 13  2  0
 13 14  1  0
 14 15  2  0
 10 15  1  0
M  END

$$$$
No_1964-/export/home/yangzhenyu/potential_scad_32_flow//YTHDC2/2024-12-06-03-22-00/
     RDKit          3D

 17 19  0  0  0  0  0  0  0  0999 V2000
    1.1787   -8.0297    3.5154 C   0  0  0  0  0  0  0  0  0  0  0  0
    1.1048   -9.2215    3.2892 C   0  0  0  0  0  0  0  0  0  0  0  0
    1.3627  -10.1721    4.3044 C   0  0  0  0  0  0  0  0  0  0  0  0
    1.0682  -11.5187    4.0618 C   0  0  0  0  0  0  0  0  0  0  0  0
    0.6332  -11.9655    2.9682 C   0  0  0  0  0  0  0  0  0  0  0  0
    0.4776  -11.1308    1.9203 C   0  0  0  0  0  0  0  0  0  0  0  0
    0.7470   -9.8274    2.0368 C   0  0  0  0  0  0  0  0  0  0  0  0
    0.5535   -7.1314    2.6861 C   0  0  0  0  0  0  0  0  0  0  0  0
    0.7497   -5.5830    2.7890 C   0  0  0  0  0  0  0  0  0  0  0  0
    1.6474   -5.1091    3.6117 C   0  0  0  0  0  0  0  0  0  0  0  0
   -0.3008   -5.0637    2.1858 C   0  0  0  0  0  0  0  0  0  0  0  0
    0.3674  -13.3404    2.7102 Cl  0  0  0  0  0  0  0  0  0  0  0  0
   -0.1484   -3.5710    2.0472 C   0  0  0  0  0  0  0  0  0  0  0  0
    0.8290   -2.9039    2.7658 C   0  0  0  0  0  0  0  0  0  0  0  0
    1.6950   -3.6629    3.6139 N   0  0  0  0  0  0  0  0  0  0  0  0
    0.7487   -8.9630    0.9672 C   0  0  0  0  0  0  0  0  0  0  0  0
    0.4742   -7.5452    1.2136 C   0  0  0  0  0  0  0  0  0  0  0  0
  8  9  1  0
  5 12  1  0
  2  3  1  0
  3  4  2  0
  4  5  1  0
  5  6  2  0
  6  7  1  0
  1  2  2  0
  2  7  1  0
  7 16  2  0
 16 17  1  0
  8 17  2  0
  1  8  1  0
  9 10  2  0
 10 15  1  0
 14 15  2  0
 13 14  1  0
 11 13  2  0
  9 11  1  0
M  END

$$$$
No_1965-/export/home/yangzhenyu/potential_scad_32_flow//YTHDC2/2024-12-06-03-22-00/
     RDKit          3D

 19 20  0  0  1  0  0  0  0  0999 V2000
    1.1787   -8.0297    3.5154 N   0  0  0  0  0  0  0  0  0  0  0  0
    0.8669   -7.0905    2.8589 C   0  0  1  0  0  0  0  0  0  0  0  0
    0.8842   -5.8387    3.2677 N   0  0  0  0  0  0  0  0  0  0  0  0
    0.7046   -7.3396    1.4853 C   0  0  0  0  0  0  0  0  0  0  0  0
    1.3141   -9.3038    3.0097 C   0  0  0  0  0  0  0  0  0  0  0  0
    1.1146   -9.5822    1.7111 N   0  0  0  0  0  0  0  0  0  0  0  0
    1.2795  -10.9893    1.2407 C   0  0  0  0  0  0  0  0  0  0  0  0
    0.3409   -6.3072    0.7243 C   0  0  0  0  0  0  0  0  0  0  0  0
    0.8723   -8.6495    0.8368 C   0  0  0  0  0  0  0  0  0  0  0  0
    0.2636  -11.5668    0.8228 C   0  0  0  0  0  0  0  0  0  0  0  0
    0.0837  -12.9115    0.7252 C   0  0  0  0  0  0  0  0  0  0  0  0
    1.3250  -13.7183    0.9369 C   0  0  0  0  0  0  0  0  0  0  0  0
    2.5217  -13.0231    1.3080 C   0  0  0  0  0  0  0  0  0  0  0  0
    2.4789  -11.6577    1.5051 C   0  0  0  0  0  0  0  0  0  0  0  0
    0.9856   -8.6803   -0.4622 O   0  0  0  0  0  0  0  0  0  0  0  0
   -0.7191   -5.6680    0.9866 F   0  0  0  0  0  0  0  0  0  0  0  0
    1.3396  -15.0434    0.7588 C   0  0  0  0  0  0  0  0  0  0  0  0
    0.6411  -15.5767   -0.3194 N   0  0  0  0  0  0  0  0  0  0  0  0
    0.1378  -14.9660   -0.9469 H   0  0  0  0  0  0  0  0  0  0  0  0
  1  2  1  0
  2  3  1  6
  2  4  1  0
  5  6  1  0
  6  7  1  0
  4  8  1  0
  4  9  1  0
  6  9  1  0
  9 15  2  0
  8 16  1  0
 12 17  1  0
 17 18  2  0
  1  5  1  0
  7 10  2  0
 10 11  1  0
 11 12  2  0
 12 13  1  0
 13 14  2  0
  7 14  1  0
 18 19  1  0
M  END

$$$$
No_1966-/export/home/yangzhenyu/potential_scad_32_flow//YTHDC2/2024-12-06-03-22-00/
     RDKit          3D

 18 19  0  0  1  0  0  0  0  0999 V2000
    1.1787   -8.0297    3.5154 C   0  0  0  0  0  0  0  0  0  0  0  0
    1.1048   -9.2215    3.2892 C   0  0  0  0  0  0  0  0  0  0  0  0
    1.0239   -9.7790    2.0239 C   0  0  0  0  0  0  0  0  0  0  0  0
    1.1393   -9.0211    0.9686 C   0  0  0  0  0  0  0  0  0  0  0  0
    1.4051   -7.6500    1.1251 C   0  0  0  0  0  0  0  0  0  0  0  0
    1.4868   -7.1041    2.3534 C   0  0  0  0  0  0  0  0  0  0  0  0
    0.9659  -10.1420    4.4543 C   0  0  0  0  0  0  0  0  0  0  0  0
   -0.2019  -11.0061    4.5153 C   0  0  1  0  0  0  0  0  0  0  0  0
   -1.3805  -10.3185    4.2378 C   0  0  0  0  0  0  0  0  0  0  0  0
   -2.3997  -10.8985    3.4802 C   0  0  1  0  0  0  0  0  0  0  0  0
   -2.0609  -12.3134    3.0591 C   0  0  2  0  0  0  0  0  0  0  0  0
   -0.8455  -12.8850    3.2110 C   0  0  0  0  0  0  0  0  0  0  0  0
    0.1106  -12.2576    3.9485 C   0  0  0  0  0  0  0  0  0  0  0  0
    1.1245   -9.5276   -0.5575 Cl  0  0  0  0  0  0  0  0  0  0  0  0
    1.2772  -12.7742    4.1765 O   0  0  0  0  0  0  0  0  0  0  0  0
    1.6143   -5.6662    2.5834 F   0  0  0  0  0  0  0  0  0  0  0  0
   -3.0799  -13.0090    2.3726 Cl  0  0  0  0  0  0  0  0  0  0  0  0
   -3.6129  -10.4114    3.3235 Cl  0  0  0  0  0  0  0  0  0  0  0  0
  2  7  1  0
  8  7  1  6
  8  9  1  0
 10 11  1  0
  8 13  1  0
 12 13  1  0
  4 14  1  0
 13 15  2  0
  6 16  1  0
 11 17  1  6
 10 18  1  1
  9 10  1  0
 11 12  1  0
  1  2  2  0
  2  3  1  0
  3  4  2  0
  4  5  1  0
  5  6  2  0
  1  6  1  0
M  END

$$$$
No_1967-/export/home/yangzhenyu/potential_scad_32_flow//YTHDC2/2024-12-06-03-22-00/
     RDKit          3D

 18 19  0  0  0  0  0  0  0  0999 V2000
    1.1787   -8.0297    3.5154 C   0  0  0  0  0  0  0  0  0  0  0  0
    1.1048   -9.2215    3.2892 C   0  0  0  0  0  0  0  0  0  0  0  0
    1.2339   -9.7611    2.0189 C   0  0  0  0  0  0  0  0  0  0  0  0
    1.3583   -9.0036    0.9764 C   0  0  0  0  0  0  0  0  0  0  0  0
    1.7077   -9.6100   -0.3010 C   0  0  0  0  0  0  0  0  0  0  0  0
    1.3637   -7.1087    2.3226 C   0  0  0  0  0  0  0  0  0  0  0  0
    1.4257   -7.6645    1.0231 C   0  0  0  0  0  0  0  0  0  0  0  0
    1.9364   -8.8976   -1.3212 O   0  0  0  0  0  0  0  0  0  0  0  0
    1.2853  -10.8201   -0.4625 O   0  0  0  0  0  0  0  0  0  0  0  0
    1.1242  -10.1671    4.3962 C   0  0  0  0  0  0  0  0  0  0  0  0
    0.0047  -11.0217    4.6067 O   0  0  0  0  0  0  0  0  0  0  0  0
    2.1891  -10.5426    5.1036 O   0  0  0  0  0  0  0  0  0  0  0  0
    1.3326   -5.6111    2.5171 C   0  0  0  0  0  0  0  0  0  0  0  0
    1.0138   -4.8222    1.5598 O   0  0  0  0  0  0  0  0  0  0  0  0
    1.7476   -5.1386    3.6585 O   0  0  0  0  0  0  0  0  0  0  0  0
    1.2824  -11.1920    1.8283 C   0  0  0  0  0  0  0  0  0  0  0  0
    1.1126  -11.6957    0.4167 C   0  0  0  0  0  0  0  0  0  0  0  0
    0.7942  -12.9120    0.2483 C   0  0  0  0  0  0  0  0  0  0  0  0
  4  5  1  0
  5  8  2  0
  5  9  1  0
  2 10  1  0
 10 11  1  0
 10 12  2  0
  6 13  1  0
 13 14  2  0
 13 15  1  0
  3 16  1  0
  9 17  1  0
 16 17  1  0
 17 18  1  0
  1  2  2  0
  2  3  1  0
  3  4  2  0
  4  7  1  0
  6  7  2  0
  1  6  1  0
M  END

$$$$
No_1968-/export/home/yangzhenyu/potential_scad_32_flow//YTHDC2/2024-12-06-03-22-00/
     RDKit          3D

 18 18  0  0  1  0  0  0  0  0999 V2000
    1.1787   -8.0297    3.5154 C   0  0  0  0  0  0  0  0  0  0  0  0
    1.0491   -6.8434    2.9820 C   0  0  0  0  0  0  0  0  0  0  0  0
    0.9905   -9.0774    2.6527 C   0  0  0  0  0  0  0  0  0  0  0  0
    0.7897   -8.9519    1.3691 C   0  0  0  0  0  0  0  0  0  0  0  0
    0.7018   -7.7198    0.7892 C   0  0  0  0  0  0  0  0  0  0  0  0
    0.8918   -6.5957    1.6117 C   0  0  0  0  0  0  0  0  0  0  0  0
    1.0711  -10.4814    3.2282 C   0  0  2  0  0  0  0  0  0  0  0  0
    2.1432  -11.0138    3.5962 C   0  0  0  0  0  0  0  0  0  0  0  0
   -0.0553  -11.2345    3.2841 C   0  0  0  0  0  0  0  0  0  0  0  0
   -1.2156  -10.5474    3.8659 O   0  0  0  0  0  0  0  0  0  0  0  0
    2.3787  -11.6300    4.5954 C   0  0  0  0  0  0  0  0  0  0  0  0
   -0.2759  -12.3784    2.8515 O   0  0  0  0  0  0  0  0  0  0  0  0
    0.8602   -5.0703    1.0734 Cl  0  0  0  0  0  0  0  0  0  0  0  0
    0.6193  -10.0095    0.3475 C   0  0  0  0  0  0  0  0  0  0  0  0
   -0.5034  -10.3554   -0.0066 O   0  0  0  0  0  0  0  0  0  0  0  0
    1.6945  -10.6113   -0.0604 O   0  0  0  0  0  0  0  0  0  0  0  0
    1.3025   -5.7700    3.8495 Cl  0  0  0  0  0  0  0  0  0  0  0  0
   -2.4790  -10.6950    3.5114 C   0  0  0  0  0  0  0  0  0  0  0  0
  3  7  1  0
  7  8  1  6
  7  9  1  0
  9 10  1  0
  8 11  2  0
  9 12  2  0
  6 13  1  0
  4 14  1  0
 14 15  2  0
 14 16  1  0
  2 17  1  0
 10 18  1  0
  1  2  2  0
  2  6  1  0
  5  6  2  0
  4  5  1  0
  3  4  2  0
  1  3  1  0
M  END

$$$$
No_1969-/export/home/yangzhenyu/potential_scad_32_flow//YTHDC2/2024-12-06-03-22-00/
     RDKit          3D

 18 18  0  0  1  0  0  0  0  0999 V2000
    1.1787   -8.0297    3.5154 N   0  0  0  0  0  0  0  0  0  0  0  0
    1.0818   -9.0751    3.2053 C   0  0  0  0  0  0  0  0  0  0  0  0
    1.5216  -10.1164    3.9747 C   0  0  0  0  0  0  0  0  0  0  0  0
    1.4420  -11.4363    3.6461 C   0  0  0  0  0  0  0  0  0  0  0  0
    0.5969  -11.7648    2.6785 C   0  0  2  0  0  0  0  0  0  0  0  0
    0.0096  -10.8332    1.9506 Br  0  0  0  0  0  0  0  0  0  0  0  0
    0.9452   -6.9747    2.5428 C   0  0  0  0  0  0  0  0  0  0  0  0
    1.0580   -5.6658    2.6288 N   0  0  0  0  0  0  0  0  0  0  0  0
    1.0243   -7.5050    1.2032 C   0  0  0  0  0  0  0  0  0  0  0  0
    1.2475   -8.7180    0.9337 C   0  0  0  0  0  0  0  0  0  0  0  0
    1.4097   -9.5793    1.8893 C   0  0  0  0  0  0  0  0  0  0  0  0
    1.5264   -9.0544   -0.4394 C   0  0  0  0  0  0  0  0  0  0  0  0
    0.6614   -8.8683   -1.2870 O   0  0  0  0  0  0  0  0  0  0  0  0
    2.5954   -9.6420   -0.8192 O   0  0  0  0  0  0  0  0  0  0  0  0
    0.3448  -13.3196    2.7415 C   0  0  0  0  0  0  0  0  0  0  0  0
    0.6791  -14.0810    1.7741 O   0  0  0  0  0  0  0  0  0  0  0  0
    0.5007  -14.0911    3.8714 O   0  0  0  0  0  0  0  0  0  0  0  0
    1.6597   -5.2340    3.8898 C   0  0  0  0  0  0  0  0  0  0  0  0
  2  3  1  0
  3  4  2  3
  4  5  1  0
  5  6  1  1
  7  8  1  0
 10 12  1  0
 12 13  2  0
 12 14  1  0
  5 15  1  0
 15 16  2  0
 15 17  1  0
  8 18  1  0
  1  2  2  0
  2 11  1  0
 10 11  2  0
  9 10  1  0
  7  9  2  0
  1  7  1  0
M  END

$$$$
No_1970-/export/home/yangzhenyu/potential_scad_32_flow//YTHDC2/2024-12-06-03-22-00/
     RDKit          3D

 18 20  0  0  0  0  0  0  0  0999 V2000
    1.1787   -8.0297    3.5154 N   0  0  0  0  0  0  0  0  0  0  0  0
    1.0818   -9.0751    3.2053 C   0  0  0  0  0  0  0  0  0  0  0  0
    0.7576   -9.3725    1.9159 C   0  0  0  0  0  0  0  0  0  0  0  0
    0.7445  -10.8746    1.6491 C   0  0  0  0  0  0  0  0  0  0  0  0
    0.9910  -11.7526    2.6067 C   0  0  0  0  0  0  0  0  0  0  0  0
    1.4405  -11.4331    3.8064 C   0  0  0  0  0  0  0  0  0  0  0  0
    1.4304  -10.0463    4.1669 C   0  0  0  0  0  0  0  0  0  0  0  0
    1.1410   -6.8244    2.7961 C   0  0  0  0  0  0  0  0  0  0  0  0
    1.2730   -7.1327    1.3540 C   0  0  0  0  0  0  0  0  0  0  0  0
    1.0725   -8.4200    0.9385 C   0  0  0  0  0  0  0  0  0  0  0  0
    0.8792  -13.1844    2.2830 C   0  0  0  0  0  0  0  0  0  0  0  0
    1.7958  -14.0367    2.4729 C   0  0  0  0  0  0  0  0  0  0  0  0
    1.5728  -15.4127    2.5027 C   0  0  0  0  0  0  0  0  0  0  0  0
    0.3866  -15.8877    2.3735 C   0  0  0  0  0  0  0  0  0  0  0  0
   -0.6780  -15.0381    2.2276 C   0  0  0  0  0  0  0  0  0  0  0  0
   -0.4470  -13.6947    2.2682 C   0  0  0  0  0  0  0  0  0  0  0  0
    0.8230   -8.6600   -0.4018 C   0  0  0  0  0  0  0  0  0  0  0  0
    1.6696   -8.8538   -1.2464 O   0  0  0  0  0  0  0  0  0  0  0  0
  5 11  1  0
 10 17  1  0
 17 18  2  0
 11 12  2  0
 12 13  1  0
 13 14  2  0
 14 15  1  0
 15 16  2  0
 11 16  1  0
  3  4  1  0
  4  5  2  0
  5  6  1  0
  6  7  2  0
  2  7  1  0
  1  2  2  0
  2  3  1  0
  3 10  2  0
  9 10  1  0
  8  9  2  0
  1  8  1  0
M  END

$$$$
No_1971-/export/home/yangzhenyu/potential_scad_32_flow//YTHDC2/2024-12-06-03-22-00/
     RDKit          3D

 18 18  0  0  0  0  0  0  0  0999 V2000
    1.1787   -8.0297    3.5154 C   0  0  0  0  0  0  0  0  0  0  0  0
    1.0491   -6.8434    2.9820 C   0  0  0  0  0  0  0  0  0  0  0  0
    0.2462   -8.9560    3.0873 C   0  0  0  0  0  0  0  0  0  0  0  0
    0.3295   -6.5187    1.9069 C   0  0  0  0  0  0  0  0  0  0  0  0
   -0.5260   -8.7862    2.1368 N   0  0  0  0  0  0  0  0  0  0  0  0
   -0.4953   -7.5378    1.5445 C   0  0  0  0  0  0  0  0  0  0  0  0
    0.3371  -10.3362    3.6903 C   0  0  0  0  0  0  0  0  0  0  0  0
   -0.8604  -11.0179    3.6922 C   0  0  0  0  0  0  0  0  0  0  0  0
    1.2595  -10.6809    4.6726 C   0  0  0  0  0  0  0  0  0  0  0  0
    2.5852  -10.2798    4.5298 C   0  0  0  0  0  0  0  0  0  0  0  0
    0.3283   -5.3144    1.2487 C   0  0  0  0  0  0  0  0  0  0  0  0
    3.3668  -11.5312    4.5691 N   0  0  0  0  0  0  0  0  0  0  0  0
   -0.6802   -4.8115    0.6569 O   0  0  0  0  0  0  0  0  0  0  0  0
    1.2446   -4.3135    1.8298 O   0  0  0  0  0  0  0  0  0  0  0  0
   -0.7493  -12.3756    3.1682 C   0  0  0  0  0  0  0  0  0  0  0  0
   -1.8505  -13.1194    2.8908 C   0  0  0  0  0  0  0  0  0  0  0  0
   -1.7288  -14.3908    2.4584 C   0  0  0  0  0  0  0  0  0  0  0  0
   -0.4419  -14.8147    2.0266 C   0  0  0  0  0  0  0  0  0  0  0  0
  3  7  1  0
  7  8  2  3
  7  9  1  0
  9 10  1  0
  4 11  1  0
 10 12  1  0
 11 13  1  0
 11 14  2  0
  8 15  1  0
 15 16  2  3
 16 17  1  0
 17 18  2  0
  1  2  2  0
  2  4  1  0
  4  6  2  0
  5  6  1  0
  3  5  2  0
  1  3  1  0
M  END

$$$$
No_1972-/export/home/yangzhenyu/potential_scad_32_flow//YTHDC2/2024-12-06-03-22-00/
     RDKit          3D

 19 19  0  0  1  0  0  0  0  0999 V2000
    1.1787   -8.0297    3.5154 C   0  0  0  0  0  0  0  0  0  0  0  0
    1.0491   -6.8434    2.9820 C   0  0  0  0  0  0  0  0  0  0  0  0
    1.9985   -8.9840    2.8958 C   0  0  0  0  0  0  0  0  0  0  0  0
    1.9135  -10.3404    3.6266 C   0  0  0  0  0  0  0  0  0  0  0  0
    0.9460  -10.6347    4.5748 C   0  0  0  0  0  0  0  0  0  0  0  0
   -0.0977   -9.6850    4.6652 C   0  0  0  0  0  0  0  0  0  0  0  0
   -0.0465   -8.4791    4.1040 C   0  0  0  0  0  0  0  0  0  0  0  0
    1.1124   -5.6985    3.4928 N   0  0  0  0  0  0  0  0  0  0  0  0
    1.1601   -6.6720    1.5806 O   0  0  0  0  0  0  0  0  0  0  0  0
    1.3208   -4.4423    3.0100 C   0  0  0  0  0  0  0  0  0  0  0  0
    0.8831  -12.0380    4.8929 O   0  0  0  0  0  0  0  0  0  0  0  0
    0.0291   -3.7016    2.9298 C   0  0  0  0  0  0  0  0  0  0  0  0
    0.0659   -2.4707    3.2242 C   0  0  0  0  0  0  0  0  0  0  0  0
    0.4429   -1.4493    2.5926 C   0  0  1  0  0  0  0  0  0  0  0  0
    1.3180   -0.7105    3.3777 C   0  0  0  0  0  0  0  0  0  0  0  0
    0.2448   -1.3346    1.2758 C   0  0  0  0  0  0  0  0  0  0  0  0
    1.1420   -1.9307    0.4482 C   0  0  0  0  0  0  0  0  0  0  0  0
    0.7112   -2.0624   -0.9728 C   0  0  0  0  0  0  0  0  0  0  0  0
   -0.4680   -2.8225   -1.1407 C   0  0  0  0  0  0  0  0  0  0  0  0
  1  2  1  0
  2  8  1  0
  2  9  2  0
  8 10  1  0
  5 11  1  0
 10 12  1  0
 12 13  1  0
 13 14  1  0
 14 15  1  6
 14 16  1  0
 16 17  1  0
 17 18  1  0
 18 19  1  0
  1  3  2  0
  3  4  1  0
  4  5  2  0
  5  6  1  0
  6  7  2  0
  1  7  1  0
M  END

$$$$
No_1973-/export/home/yangzhenyu/potential_scad_32_flow//YTHDC2/2024-12-06-03-22-00/
     RDKit          3D

 21 22  0  0  1  0  0  0  0  0999 V2000
    1.1787   -8.0297    3.5154 C   0  0  0  0  0  0  0  0  0  0  0  0
    1.1048   -9.2215    3.2892 C   0  0  0  0  0  0  0  0  0  0  0  0
    1.2339   -9.7611    2.0189 C   0  0  0  0  0  0  0  0  0  0  0  0
    1.1954  -11.2312    1.8661 F   0  0  0  0  0  0  0  0  0  0  0  0
    1.7160   -9.0411    1.0139 C   0  0  0  0  0  0  0  0  0  0  0  0
    1.8660   -7.7274    1.0822 C   0  0  0  0  0  0  0  0  0  0  0  0
    1.5770   -7.1216    2.3763 C   0  0  0  0  0  0  0  0  0  0  0  0
    1.5971   -5.7437    2.6167 C   0  0  0  0  0  0  0  0  0  0  0  0
    1.6802   -5.1629    3.8750 O   0  0  0  0  0  0  0  0  0  0  0  0
    1.0572   -4.8728    1.6766 O   0  0  0  0  0  0  0  0  0  0  0  0
    2.0022   -9.6640   -0.4008 P   0  0  2  0  0  0  0  0  0  0  0  0
    2.8916   -9.0002   -1.1903 O   0  0  0  0  0  0  0  0  0  0  0  0
    0.6253   -9.4708   -1.2472 O   0  0  0  0  0  0  0  0  0  0  0  0
    0.7859  -10.1731    4.3737 O   0  0  0  0  0  0  0  0  0  0  0  0
   -0.6141  -10.3889    4.5546 C   0  0  0  0  0  0  0  0  0  0  0  0
   -1.1514  -11.3169    3.7173 C   0  0  0  0  0  0  0  0  0  0  0  0
   -2.4391  -11.2045    3.2725 C   0  0  0  0  0  0  0  0  0  0  0  0
   -3.2726  -10.5534    4.2289 C   0  0  0  0  0  0  0  0  0  0  0  0
   -2.7409   -9.6756    5.2188 C   0  0  0  0  0  0  0  0  0  0  0  0
   -1.3208   -9.6064    5.3307 C   0  0  0  0  0  0  0  0  0  0  0  0
   -4.6658  -10.4745    4.1153 O   0  0  0  0  0  0  0  0  0  0  0  0
  3  4  1  0
  7  8  1  0
  8  9  1  0
  8 10  2  0
  5 11  1  0
 11 12  1  6
 11 13  2  0
  2 14  1  0
 14 15  1  0
 18 21  1  0
 15 16  2  0
 16 17  1  0
 17 18  2  0
 18 19  1  0
 19 20  2  0
 15 20  1  0
  1  2  2  0
  2  3  1  0
  3  5  2  0
  5  6  1  0
  6  7  2  0
  1  7  1  0
M  END

$$$$
No_1974-/export/home/yangzhenyu/potential_scad_32_flow//YTHDC2/2024-12-06-03-22-00/
     RDKit          3D

 19 19  0  0  1  0  0  0  0  0999 V2000
    1.1787   -8.0297    3.5154 C   0  0  0  0  0  0  0  0  0  0  0  0
    1.0491   -6.8434    2.9820 C   0  0  0  0  0  0  0  0  0  0  0  0
    0.0950   -8.8404    3.2292 C   0  0  0  0  0  0  0  0  0  0  0  0
   -0.9173   -8.4596    2.5152 C   0  0  0  0  0  0  0  0  0  0  0  0
   -1.0331   -7.2162    2.0653 C   0  0  0  0  0  0  0  0  0  0  0  0
   -0.0105   -6.3168    2.3081 C   0  0  0  0  0  0  0  0  0  0  0  0
    0.1150   -4.9910    1.8495 C   0  0  0  0  0  0  0  0  0  0  0  0
    0.9121   -4.1017    2.4010 N   0  0  0  0  0  0  0  0  0  0  0  0
   -0.4254   -4.5568    0.7581 O   0  0  0  0  0  0  0  0  0  0  0  0
    0.1599  -10.2769    3.6481 C   0  0  0  0  0  0  0  0  0  0  0  0
   -1.0554  -10.9612    3.8054 C   0  0  0  0  0  0  0  0  0  0  0  0
    1.2703  -10.7795    4.5159 C   0  0  0  0  0  0  0  0  0  0  0  0
    2.4886  -10.2890    4.5240 C   0  0  0  0  0  0  0  0  0  0  0  0
    3.2741  -11.2126    5.4547 C   0  0  0  0  0  0  0  0  0  0  0  0
    3.6265  -10.3744    6.4670 N   0  0  0  0  0  0  0  0  0  0  0  0
    1.1858   -2.7818    1.9771 C   0  0  2  0  0  0  0  0  0  0  0  0
    2.2046   -2.6651    0.9819 C   0  0  0  0  0  0  0  0  0  0  0  0
    1.5363   -1.8777    3.2304 C   0  0  0  0  0  0  0  0  0  0  0  0
    0.4075   -1.9939    4.2183 C   0  0  0  0  0  0  0  0  0  0  0  0
  6  7  1  0
  7  8  1  0
  7  9  2  0
  3 10  1  0
 10 11  2  0
 10 12  1  0
 12 13  1  0
 13 14  1  0
 14 15  1  0
  8 16  1  0
 16 17  1  6
 16 18  1  0
 18 19  1  0
  1  2  2  0
  2  6  1  0
  5  6  2  0
  4  5  1  0
  3  4  2  0
  1  3  1  0
M  END

$$$$
No_1975-/export/home/yangzhenyu/potential_scad_32_flow//YTHDC2/2024-12-06-03-22-00/
     RDKit          3D

 19 21  0  0  0  0  0  0  0  0999 V2000
    1.1787   -8.0297    3.5154 N   0  0  0  0  0  0  0  0  0  0  0  0
    1.0818   -9.0751    3.2053 C   0  0  0  0  0  0  0  0  0  0  0  0
    0.7576   -9.3725    1.9159 C   0  0  0  0  0  0  0  0  0  0  0  0
    0.7445  -10.8746    1.6491 C   0  0  0  0  0  0  0  0  0  0  0  0
    0.9910  -11.7526    2.6067 C   0  0  0  0  0  0  0  0  0  0  0  0
    1.4405  -11.4331    3.8064 C   0  0  0  0  0  0  0  0  0  0  0  0
    1.4304  -10.0463    4.1669 C   0  0  0  0  0  0  0  0  0  0  0  0
    1.1303   -6.7964    2.6709 C   0  0  0  0  0  0  0  0  0  0  0  0
    0.9712   -7.2207    1.3238 C   0  0  0  0  0  0  0  0  0  0  0  0
    0.8818   -8.4651    0.9438 C   0  0  0  0  0  0  0  0  0  0  0  0
    1.3151   -5.4675    3.1311 Cl  0  0  0  0  0  0  0  0  0  0  0  0
    0.9220  -13.1604    2.2445 C   0  0  0  0  0  0  0  0  0  0  0  0
   -0.2738  -13.7137    2.3297 C   0  0  0  0  0  0  0  0  0  0  0  0
   -0.4372  -14.6664    1.9473 C   0  0  0  0  0  0  0  0  0  0  0  0
    0.4915  -15.7190    1.4768 C   0  0  0  0  0  0  0  0  0  0  0  0
    1.8406  -15.2301    1.5138 C   0  0  0  0  0  0  0  0  0  0  0  0
    2.0120  -13.8516    1.8628 C   0  0  0  0  0  0  0  0  0  0  0  0
    0.6269   -8.7826   -0.4107 O   0  0  0  0  0  0  0  0  0  0  0  0
    0.3721  -17.2204    1.0827 C   0  0  0  0  0  0  0  0  0  0  0  0
  8 11  1  0
  5 12  1  0
 10 18  1  0
 15 19  1  0
 12 13  2  0
 13 14  1  0
 14 15  2  0
 15 16  1  0
 16 17  2  0
 12 17  1  0
  3  4  1  0
  4  5  2  0
  5  6  1  0
  6  7  2  0
  2  7  1  0
  1  2  2  0
  2  3  1  0
  3 10  2  0
  9 10  1  0
  8  9  2  0
  1  8  1  0
M  END

$$$$
No_1976-/export/home/yangzhenyu/potential_scad_32_flow//YTHDC2/2024-12-06-03-22-00/
     RDKit          3D

 19 20  0  0  0  0  0  0  0  0999 V2000
    1.1787   -8.0297    3.5154 C   0  0  0  0  0  0  0  0  0  0  0  0
    1.1048   -9.2215    3.2892 C   0  0  0  0  0  0  0  0  0  0  0  0
    1.3627  -10.1721    4.3044 N   0  0  0  0  0  0  0  0  0  0  0  0
    0.9525   -6.9720    2.5932 C   0  0  0  0  0  0  0  0  0  0  0  0
    0.7500   -7.4173    1.3424 C   0  0  0  0  0  0  0  0  0  0  0  0
    0.6609   -8.6866    0.9881 C   0  0  0  0  0  0  0  0  0  0  0  0
    0.8627   -9.6609    1.9163 C   0  0  0  0  0  0  0  0  0  0  0  0
    1.7818  -11.3937    4.0397 C   0  0  0  0  0  0  0  0  0  0  0  0
    1.5080  -11.9003    2.7499 N   0  0  0  0  0  0  0  0  0  0  0  0
    1.1858  -11.0536    1.7583 C   0  0  0  0  0  0  0  0  0  0  0  0
    1.1760  -11.5831    0.5816 O   0  0  0  0  0  0  0  0  0  0  0  0
    1.0232   -5.5607    2.8653 C   0  0  0  0  0  0  0  0  0  0  0  0
    1.8782  -13.3379    2.4730 C   0  0  0  0  0  0  0  0  0  0  0  0
    0.8132  -14.1476    2.8191 C   0  0  0  0  0  0  0  0  0  0  0  0
    1.2578  -15.5338    3.1368 C   0  0  0  0  0  0  0  0  0  0  0  0
    1.1501  -16.3885    2.2846 C   0  0  0  0  0  0  0  0  0  0  0  0
    0.5521  -16.2114    1.1633 C   0  0  0  0  0  0  0  0  0  0  0  0
    0.4826  -17.2431    0.2076 N   0  0  0  0  0  0  0  0  0  0  0  0
    0.9073  -18.1391    0.3999 H   0  0  0  0  0  0  0  0  0  0  0  0
  2  3  1  0
  8  9  1  0
  7 10  1  0
  9 10  1  0
 10 11  2  0
  4 12  1  0
  9 13  1  0
 13 14  1  0
 14 15  1  0
 15 16  1  0
 16 17  1  0
 17 18  2  0
  3  8  1  0
  1  2  2  0
  2  7  1  0
  6  7  2  0
  5  6  1  0
  4  5  2  0
  1  4  1  0
 18 19  1  0
M  END

$$$$
No_1977-/export/home/yangzhenyu/potential_scad_32_flow//YTHDC2/2024-12-06-03-22-00/
     RDKit          3D

 19 21  0  0  1  0  0  0  0  0999 V2000
    1.1787   -8.0297    3.5154 C   0  0  0  0  0  0  0  0  0  0  0  0
    1.0491   -6.8434    2.9820 C   0  0  0  0  0  0  0  0  0  0  0  0
    1.9985   -8.9840    2.8958 C   0  0  2  0  0  0  0  0  0  0  0  0
    1.7297   -9.2108    1.6335 C   0  0  0  0  0  0  0  0  0  0  0  0
    1.7343   -8.0566    0.8408 C   0  0  1  0  0  0  0  0  0  0  0  0
    1.0269   -6.8892    1.4456 C   0  0  0  0  0  0  0  0  0  0  0  0
    2.4114   -7.8399   -0.2028 C   0  0  0  0  0  0  0  0  0  0  0  0
    1.9539  -10.3659    3.6022 C   0  0  0  0  0  0  0  0  0  0  0  0
    1.1532  -11.2983    3.3285 C   0  0  2  0  0  0  0  0  0  0  0  0
    1.4491  -12.6217    3.4555 C   0  0  0  0  0  0  0  0  0  0  0  0
    0.4535  -13.5214    2.9525 C   0  0  0  0  0  0  0  0  0  0  0  0
   -0.6145  -12.6782    2.3840 C   0  0  0  0  0  0  0  0  0  0  0  0
   -0.1009  -11.3316    2.6577 C   0  0  0  0  0  0  0  0  0  0  0  0
    0.5224  -14.8651    2.9529 C   0  0  0  0  0  0  0  0  0  0  0  0
    1.7336  -15.5107    2.9152 C   0  0  0  0  0  0  0  0  0  0  0  0
    1.8364  -16.9458    2.9052 C   0  0  0  0  0  0  0  0  0  0  0  0
    0.8907  -17.8061    3.0664 C   0  0  0  0  0  0  0  0  0  0  0  0
   -0.3071  -17.2785    3.2514 C   0  0  0  0  0  0  0  0  0  0  0  0
   -0.5032  -15.8864    3.2402 C   0  0  0  0  0  0  0  0  0  0  0  0
  1  2  1  0
  1  3  1  0
  3  4  1  0
  4  5  1  0
  2  6  1  0
  5  6  1  0
  5  7  1  1
  3  8  1  1
  9  8  1  6
  9 10  1  0
 10 11  2  0
 11 12  1  0
  9 13  1  0
 12 13  1  0
 11 14  1  0
 14 15  2  0
 15 16  1  0
 16 17  2  0
 17 18  1  0
 18 19  2  0
 14 19  1  0
M  END

$$$$
No_1978-/export/home/yangzhenyu/potential_scad_32_flow//YTHDC2/2024-12-06-03-22-00/
     RDKit          3D

 18 20  0  0  0  0  0  0  0  0999 V2000
    1.1787   -8.0297    3.5154 C   0  0  0  0  0  0  0  0  0  0  0  0
    1.1048   -9.2215    3.2892 C   0  0  0  0  0  0  0  0  0  0  0  0
    1.2339   -9.7611    2.0189 C   0  0  0  0  0  0  0  0  0  0  0  0
    1.1954  -11.2312    1.8661 C   0  0  0  0  0  0  0  0  0  0  0  0
    1.2996  -11.5815    0.5387 C   0  0  0  0  0  0  0  0  0  0  0  0
    0.9270   -7.0442    2.4967 C   0  0  0  0  0  0  0  0  0  0  0  0
    0.9803   -7.6034    1.0978 C   0  0  0  0  0  0  0  0  0  0  0  0
    1.1096   -8.9244    0.8670 C   0  0  0  0  0  0  0  0  0  0  0  0
    1.0761  -11.9547    2.9012 C   0  0  0  0  0  0  0  0  0  0  0  0
    0.5875  -12.9955    2.7625 C   0  0  0  0  0  0  0  0  0  0  0  0
    0.5865  -14.0660    3.8493 C   0  0  0  0  0  0  0  0  0  0  0  0
    1.0151   -5.5936    2.6836 C   0  0  0  0  0  0  0  0  0  0  0  0
    0.9288  -15.5040    3.3599 C   0  0  0  0  0  0  0  0  0  0  0  0
    1.9100  -15.7312    2.2894 C   0  0  0  0  0  0  0  0  0  0  0  0
    2.6675  -14.6760    1.8179 N   0  0  0  0  0  0  0  0  0  0  0  0
    0.7872  -12.8394    0.3837 C   0  0  0  0  0  0  0  0  0  0  0  0
    0.5777  -13.7362    1.5008 C   0  0  0  0  0  0  0  0  0  0  0  0
    1.8584  -14.0093    1.0365 N   0  0  0  0  0  0  0  0  0  0  0  0
  3  4  1  0
 10 11  1  0
  6 12  1  0
 11 13  1  0
 13 14  1  0
 14 15  2  0
 15 18  1  0
 17 18  1  0
  1  2  2  0
  2  3  1  0
  3  8  2  0
  7  8  1  0
  6  7  2  0
  1  6  1  0
  4  5  2  0
  5 16  1  0
 16 17  2  0
 10 17  1  0
  9 10  2  0
  4  9  1  0
M  END

$$$$
No_1979-/export/home/yangzhenyu/potential_scad_32_flow//YTHDC2/2024-12-06-03-22-00/
     RDKit          3D

 17 18  0  0  0  0  0  0  0  0999 V2000
    1.1787   -8.0297    3.5154 C   0  0  0  0  0  0  0  0  0  0  0  0
    1.0491   -6.8434    2.9820 C   0  0  0  0  0  0  0  0  0  0  0  0
    0.0950   -8.8404    3.2292 C   0  0  0  0  0  0  0  0  0  0  0  0
   -0.9173   -8.4596    2.5152 C   0  0  0  0  0  0  0  0  0  0  0  0
   -1.0331   -7.2162    2.0653 C   0  0  0  0  0  0  0  0  0  0  0  0
   -0.0105   -6.3168    2.3081 C   0  0  0  0  0  0  0  0  0  0  0  0
    0.1465  -10.2446    3.6981 C   0  0  0  0  0  0  0  0  0  0  0  0
   -1.0336  -10.8619    3.9439 O   0  0  0  0  0  0  0  0  0  0  0  0
    1.1753  -10.7254    4.5024 N   0  0  0  0  0  0  0  0  0  0  0  0
    1.3526  -12.0618    4.6515 O   0  0  0  0  0  0  0  0  0  0  0  0
   -0.0525   -5.0150    1.7803 C   0  0  0  0  0  0  0  0  0  0  0  0
    0.7421   -4.0381    2.3298 C   0  0  0  0  0  0  0  0  0  0  0  0
    0.9119   -2.7042    1.8634 C   0  0  0  0  0  0  0  0  0  0  0  0
   -0.9636   -4.4797    0.8475 N   0  0  0  0  0  0  0  0  0  0  0  0
    0.4613   -2.4230    0.8571 C   0  0  0  0  0  0  0  0  0  0  0  0
   -0.6881   -3.3319    0.2958 N   0  0  0  0  0  0  0  0  0  0  0  0
    0.2758   -1.1448    0.1179 Cl  0  0  0  0  0  0  0  0  0  0  0  0
  3  7  1  0
  7  8  2  0
  7  9  1  0
  9 10  2  0
  6 11  1  0
 15 17  1  0
 11 12  2  0
 12 13  1  0
 13 15  2  0
 15 16  1  0
 14 16  2  0
 11 14  1  0
  1  2  2  0
  2  6  1  0
  5  6  2  0
  4  5  1  0
  3  4  2  0
  1  3  1  0
M  END

$$$$
No_1980-/export/home/yangzhenyu/potential_scad_32_flow//YTHDC2/2024-12-06-03-22-00/
     RDKit          3D

 18 20  0  0  0  0  0  0  0  0999 V2000
    1.1787   -8.0297    3.5154 C   0  0  0  0  0  0  0  0  0  0  0  0
    1.1048   -9.2215    3.2892 C   0  0  0  0  0  0  0  0  0  0  0  0
    1.2339   -9.7611    2.0189 C   0  0  0  0  0  0  0  0  0  0  0  0
    1.3583   -9.0036    0.9764 C   0  0  0  0  0  0  0  0  0  0  0  0
    1.5996   -7.6362    1.1311 C   0  0  0  0  0  0  0  0  0  0  0  0
    1.4830   -7.0928    2.3626 C   0  0  0  0  0  0  0  0  0  0  0  0
    1.4898   -5.7274    2.6199 N   0  0  0  0  0  0  0  0  0  0  0  0
    1.1600  -11.2248    1.8597 C   0  0  0  0  0  0  0  0  0  0  0  0
    1.9280  -12.0518    2.4838 C   0  0  0  0  0  0  0  0  0  0  0  0
    1.7182  -13.4419    2.1496 C   0  0  0  0  0  0  0  0  0  0  0  0
    2.2545  -14.4574    2.8134 C   0  0  0  0  0  0  0  0  0  0  0  0
    1.8553  -15.7190    2.6147 C   0  0  0  0  0  0  0  0  0  0  0  0
    0.9604  -16.0444    1.6702 C   0  0  0  0  0  0  0  0  0  0  0  0
    0.4858  -15.1496    0.9065 C   0  0  0  0  0  0  0  0  0  0  0  0
    0.8208  -13.8195    1.0971 C   0  0  0  0  0  0  0  0  0  0  0  0
    0.1690  -12.7533    0.5249 N   0  0  0  0  0  0  0  0  0  0  0  0
    0.3566  -11.5474    0.7821 N   0  0  0  0  0  0  0  0  0  0  0  0
    1.1559   -4.8884    1.6869 O   0  0  0  0  0  0  0  0  0  0  0  0
  6  7  1  0
  3  8  1  0
  7 18  2  0
  8  9  2  0
  9 10  1  0
 15 16  1  0
 16 17  2  0
  8 17  1  0
  1  2  2  0
  2  3  1  0
  3  4  2  0
  4  5  1  0
  5  6  2  0
  1  6  1  0
 10 11  2  0
 11 12  1  0
 12 13  2  0
 13 14  1  0
 14 15  2  0
 10 15  1  0
M  END

$$$$
No_1981-/export/home/yangzhenyu/potential_scad_32_flow//YTHDC2/2024-12-06-03-22-00/
     RDKit          3D

 19 20  0  0  0  0  0  0  0  0999 V2000
    1.1787   -8.0297    3.5154 C   0  0  0  0  0  0  0  0  0  0  0  0
    1.0491   -6.8434    2.9820 C   0  0  0  0  0  0  0  0  0  0  0  0
    0.0950   -8.8404    3.2292 C   0  0  0  0  0  0  0  0  0  0  0  0
   -0.9173   -8.4596    2.5152 C   0  0  0  0  0  0  0  0  0  0  0  0
   -1.0331   -7.2162    2.0653 C   0  0  0  0  0  0  0  0  0  0  0  0
   -0.0105   -6.3168    2.3081 C   0  0  0  0  0  0  0  0  0  0  0  0
    0.1465  -10.2446    3.6981 C   0  0  0  0  0  0  0  0  0  0  0  0
    0.1907  -11.3369    2.8651 C   0  0  0  0  0  0  0  0  0  0  0  0
    0.7661  -12.5788    3.2923 C   0  0  0  0  0  0  0  0  0  0  0  0
    1.3881  -13.3018    2.4169 C   0  0  0  0  0  0  0  0  0  0  0  0
    1.4359  -13.1470    1.1819 C   0  0  0  0  0  0  0  0  0  0  0  0
    0.9983  -11.9492    0.5983 C   0  0  0  0  0  0  0  0  0  0  0  0
    0.3676  -11.0296    1.5003 C   0  0  0  0  0  0  0  0  0  0  0  0
    1.9466  -14.6827    2.8709 C   0  0  0  0  0  0  0  0  0  0  0  0
   -0.0866   -5.0329    1.7852 C   0  0  0  0  0  0  0  0  0  0  0  0
    0.7023   -4.0245    2.3674 C   0  0  0  0  0  0  0  0  0  0  0  0
    0.7865   -2.6617    1.9869 C   0  0  0  0  0  0  0  0  0  0  0  0
   -0.2058  -10.4250    4.9885 O   0  0  0  0  0  0  0  0  0  0  0  0
    1.2040  -15.6684    3.2669 O   0  0  0  0  0  0  0  0  0  0  0  0
  3  7  1  0
  7  8  1  0
 10 14  1  0
  6 15  1  0
 15 16  2  3
 16 17  1  0
  7 18  2  0
 14 19  2  0
  1  2  2  0
  2  6  1  0
  5  6  2  0
  4  5  1  0
  3  4  2  0
  1  3  1  0
  8  9  2  0
  9 10  1  0
 10 11  2  0
 11 12  1  0
 12 13  2  0
  8 13  1  0
M  END

$$$$
No_1982-/export/home/yangzhenyu/potential_scad_32_flow//YTHDC2/2024-12-06-03-22-00/
     RDKit          3D

 18 18  0  0  1  0  0  0  0  0999 V2000
    1.1787   -8.0297    3.5154 C   0  0  0  0  0  0  0  0  0  0  0  0
    1.0491   -6.8434    2.9820 C   0  0  0  0  0  0  0  0  0  0  0  0
    0.9905   -9.0774    2.6527 C   0  0  0  0  0  0  0  0  0  0  0  0
    1.1655  -10.4663    3.1286 C   0  0  2  0  0  0  0  0  0  0  0  0
    1.7409  -10.6480    4.4599 C   0  0  0  0  0  0  0  0  0  0  0  0
    0.4783   -6.4688    1.7590 C   0  0  0  0  0  0  0  0  0  0  0  0
    0.2119   -7.5787    0.9640 C   0  0  0  0  0  0  0  0  0  0  0  0
    0.4248   -8.8744    1.3136 C   0  0  0  0  0  0  0  0  0  0  0  0
    1.0420  -11.5352    2.2989 C   0  0  0  0  0  0  0  0  0  0  0  0
    1.9456  -11.7272    1.3640 C   0  0  0  0  0  0  0  0  0  0  0  0
    0.2982   -5.2147    1.2578 C   0  0  0  0  0  0  0  0  0  0  0  0
    1.3214   -4.2729    1.6307 C   0  0  0  0  0  0  0  0  0  0  0  0
    1.0776   -2.8797    1.3324 C   0  0  0  0  0  0  0  0  0  0  0  0
    2.0169  -12.9733    0.8154 O   0  0  0  0  0  0  0  0  0  0  0  0
    1.6180   -1.9289    1.9964 C   0  0  0  0  0  0  0  0  0  0  0  0
    0.3992   -2.6063    0.1243 C   0  0  0  0  0  0  0  0  0  0  0  0
    0.3327   -1.1941   -0.3063 C   0  0  0  0  0  0  0  0  0  0  0  0
    0.9360   -0.2684    0.5128 C   0  0  0  0  0  0  0  0  0  0  0  0
  3  4  1  0
  4  5  1  6
  4  9  1  0
  9 10  1  0
  6 11  1  0
 11 12  2  3
 12 13  1  0
 10 14  1  0
 13 15  2  0
 13 16  1  0
 16 17  2  3
 17 18  1  0
  1  2  2  0
  2  6  1  0
  6  7  2  0
  7  8  1  0
  3  8  2  0
  1  3  1  0
M  END

$$$$
No_1983-/export/home/yangzhenyu/potential_scad_32_flow//YTHDC2/2024-12-06-03-22-00/
     RDKit          3D

 18 18  0  0  0  0  0  0  0  0999 V2000
    1.1787   -8.0297    3.5154 C   0  0  0  0  0  0  0  0  0  0  0  0
    1.0491   -6.8434    2.9820 C   0  0  0  0  0  0  0  0  0  0  0  0
    0.0950   -8.8404    3.2292 C   0  0  0  0  0  0  0  0  0  0  0  0
    0.0602  -10.1764    3.8231 C   0  0  0  0  0  0  0  0  0  0  0  0
    0.2248   -6.3830    2.0648 C   0  0  0  0  0  0  0  0  0  0  0  0
   -0.6745   -7.2322    1.6857 C   0  0  0  0  0  0  0  0  0  0  0  0
   -0.7374   -8.4992    2.1291 C   0  0  0  0  0  0  0  0  0  0  0  0
    1.0517  -10.8728    4.0967 C   0  0  0  0  0  0  0  0  0  0  0  0
    2.3550  -10.7132    3.6249 C   0  0  0  0  0  0  0  0  0  0  0  0
    0.3906   -4.9718    1.3520 O   0  0  0  0  0  0  0  0  0  0  0  0
    2.4782  -10.6064    2.2327 O   0  0  0  0  0  0  0  0  0  0  0  0
    3.4484  -11.2322    4.2954 O   0  0  0  0  0  0  0  0  0  0  0  0
   -1.2167  -10.4126    4.4387 C   0  0  0  0  0  0  0  0  0  0  0  0
   -0.5571   -4.2068    1.3071 C   0  0  0  0  0  0  0  0  0  0  0  0
   -1.9429  -11.4922    3.9748 C   0  0  0  0  0  0  0  0  0  0  0  0
   -2.6978  -11.3021    3.1568 C   0  0  0  0  0  0  0  0  0  0  0  0
   -3.4704  -12.4013    2.5481 C   0  0  0  0  0  0  0  0  0  0  0  0
   -2.9954  -13.5094    1.9238 C   0  0  0  0  0  0  0  0  0  0  0  0
  3  4  1  0
  4  8  2  3
  8  9  1  0
  5 10  1  0
  9 11  2  0
  9 12  1  0
  4 13  1  0
 10 14  1  0
 13 15  1  0
 15 16  2  3
 16 17  1  0
 17 18  1  0
  1  2  2  0
  2  5  1  0
  5  6  2  0
  6  7  1  0
  3  7  2  0
  1  3  1  0
M  END

$$$$
No_1984-/export/home/yangzhenyu/potential_scad_32_flow//YTHDC2/2024-12-06-03-22-00/
     RDKit          3D

 18 19  0  0  0  0  0  0  0  0999 V2000
    1.1787   -8.0297    3.5154 C   0  0  0  0  0  0  0  0  0  0  0  0
    1.1048   -9.2215    3.2892 C   0  0  0  0  0  0  0  0  0  0  0  0
    1.3627  -10.1721    4.3044 C   0  0  0  0  0  0  0  0  0  0  0  0
    1.0682  -11.5187    4.0618 C   0  0  0  0  0  0  0  0  0  0  0  0
    0.6332  -11.9655    2.9682 C   0  0  0  0  0  0  0  0  0  0  0  0
    0.4776  -11.1308    1.9203 C   0  0  0  0  0  0  0  0  0  0  0  0
    0.7470   -9.8274    2.0368 C   0  0  0  0  0  0  0  0  0  0  0  0
    0.5535   -7.1314    2.6861 N   0  0  0  0  0  0  0  0  0  0  0  0
    0.8107   -5.6615    2.8397 C   0  0  0  0  0  0  0  0  0  0  0  0
    0.4049   -4.7863    1.8175 C   0  0  0  0  0  0  0  0  0  0  0  0
   -0.3749   -5.3687    0.9331 C   0  0  0  0  0  0  0  0  0  0  0  0
   -0.5523   -6.6753    0.7747 C   0  0  0  0  0  0  0  0  0  0  0  0
   -0.0903   -7.6474    1.6272 C   0  0  0  0  0  0  0  0  0  0  0  0
    0.3455  -13.4782    2.7312 C   0  0  0  0  0  0  0  0  0  0  0  0
    0.9229  -14.1050    1.7657 C   0  0  0  0  0  0  0  0  0  0  0  0
    2.2439  -13.8318    1.4353 C   0  0  0  0  0  0  0  0  0  0  0  0
   -1.0634   -4.5050    0.1007 C   0  0  0  0  0  0  0  0  0  0  0  0
   -0.9329   -3.1386    0.0765 O   0  0  0  0  0  0  0  0  0  0  0  0
  1  2  1  0
  1  8  1  0
  8  9  1  0
  9 10  1  0
 10 11  1  0
 11 12  1  0
  8 13  1  0
 12 13  1  0
  5 14  1  0
 14 15  1  0
 15 16  1  0
 11 17  1  0
 17 18  2  0
  2  3  2  0
  3  4  1  0
  4  5  2  0
  5  6  1  0
  6  7  2  0
  2  7  1  0
M  END

$$$$
No_1985-/export/home/yangzhenyu/potential_scad_32_flow//YTHDC2/2024-12-06-03-22-00/
     RDKit          3D

 18 19  0  0  1  0  0  0  0  0999 V2000
    1.1787   -8.0297    3.5154 C   0  0  0  0  0  0  0  0  0  0  0  0
    1.1048   -9.2215    3.2892 C   0  0  0  0  0  0  0  0  0  0  0  0
    1.2339   -9.7611    2.0189 C   0  0  0  0  0  0  0  0  0  0  0  0
    1.3583   -9.0036    0.9764 C   0  0  0  0  0  0  0  0  0  0  0  0
    1.5996   -7.6362    1.1311 C   0  0  0  0  0  0  0  0  0  0  0  0
    1.4830   -7.0928    2.3626 C   0  0  0  0  0  0  0  0  0  0  0  0
    1.1171  -11.3311    1.8661 C   0  0  1  0  0  0  0  0  0  0  0  0
    0.5022  -11.6388    0.6531 C   0  0  0  0  0  0  0  0  0  0  0  0
    0.5683  -13.0838    0.5424 C   0  0  0  0  0  0  0  0  0  0  0  0
    1.2665  -13.8887    1.3003 C   0  0  0  0  0  0  0  0  0  0  0  0
    1.9989  -13.3977    2.4029 C   0  0  1  0  0  0  0  0  0  0  0  0
    1.8520  -12.0917    2.7212 C   0  0  0  0  0  0  0  0  0  0  0  0
    2.5585  -11.5789    3.7298 O   0  0  0  0  0  0  0  0  0  0  0  0
    1.5635   -5.4529    2.6943 C   0  0  0  0  0  0  0  0  0  0  0  0
    1.1887   -4.7747    1.6069 O   0  0  0  0  0  0  0  0  0  0  0  0
    1.8112   -5.0441    3.7421 N   0  0  0  0  0  0  0  0  0  0  0  0
    1.6023   -9.4103   -0.3393 O   0  0  0  0  0  0  0  0  0  0  0  0
    2.5736  -14.3089    3.2662 O   0  0  0  0  0  0  0  0  0  0  0  0
  7  3  1  6
  7  8  1  0
  9 10  1  0
  7 12  1  0
 11 12  1  0
 12 13  2  0
  6 14  1  0
 14 15  2  0
 14 16  1  0
  4 17  1  0
 11 18  1  1
  8  9  1  0
 10 11  1  0
  1  2  2  0
  2  3  1  0
  3  4  2  0
  4  5  1  0
  5  6  2  0
  1  6  1  0
M  END

$$$$
No_1986-/export/home/yangzhenyu/potential_scad_32_flow//YTHDC2/2024-12-06-03-22-00/
     RDKit          3D

 17 18  0  0  0  0  0  0  0  0999 V2000
    1.1787   -8.0297    3.5154 C   0  0  0  0  0  0  0  0  0  0  0  0
    1.1048   -9.2215    3.2892 C   0  0  0  0  0  0  0  0  0  0  0  0
    1.2339   -9.7611    2.0189 C   0  0  0  0  0  0  0  0  0  0  0  0
    1.3583   -9.0036    0.9764 C   0  0  0  0  0  0  0  0  0  0  0  0
    1.5996   -7.6362    1.1311 C   0  0  0  0  0  0  0  0  0  0  0  0
    1.4830   -7.0928    2.3626 C   0  0  0  0  0  0  0  0  0  0  0  0
    1.5395   -5.7300    2.6182 C   0  0  0  0  0  0  0  0  0  0  0  0
    1.1775  -11.2233    1.8407 C   0  0  0  0  0  0  0  0  0  0  0  0
    0.5085  -11.9762    2.1989 C   0  0  0  0  0  0  0  0  0  0  0  0
    0.4247  -13.3704    2.0465 N   0  0  0  0  0  0  0  0  0  0  0  0
    1.6174  -13.8939    1.7533 C   0  0  0  0  0  0  0  0  0  0  0  0
   -0.6978  -14.0976    2.1695 C   0  0  0  0  0  0  0  0  0  0  0  0
   -1.8338  -13.6450    2.3625 C   0  0  0  0  0  0  0  0  0  0  0  0
   -0.4962  -15.6080    2.2979 C   0  0  0  0  0  0  0  0  0  0  0  0
   -2.9567  -14.4652    2.6120 C   0  0  0  0  0  0  0  0  0  0  0  0
   -2.7394  -15.7929    2.8464 C   0  0  0  0  0  0  0  0  0  0  0  0
   -1.5470  -16.3264    2.6856 C   0  0  0  0  0  0  0  0  0  0  0  0
  6  7  1  0
  3  8  1  0
  8  9  2  3
  9 10  1  0
 10 11  1  0
 10 12  1  0
  1  2  2  0
  2  3  1  0
  3  4  2  0
  4  5  1  0
  5  6  2  0
  1  6  1  0
 12 13  2  0
 13 15  1  0
 15 16  2  0
 16 17  1  0
 14 17  2  0
 12 14  1  0
M  END

$$$$
No_1987-/export/home/yangzhenyu/potential_scad_32_flow//YTHDC2/2024-12-06-03-22-00/
     RDKit          3D

 18 19  0  0  0  0  0  0  0  0999 V2000
    1.1787   -8.0297    3.5154 Cl  0  0  0  0  0  0  0  0  0  0  0  0
    0.7279   -9.0023    2.8722 C   0  0  0  0  0  0  0  0  0  0  0  0
    1.3852  -10.2194    3.0621 C   0  0  0  0  0  0  0  0  0  0  0  0
    1.4545  -11.1895    2.1693 C   0  0  0  0  0  0  0  0  0  0  0  0
    0.8014  -11.1600    1.0315 C   0  0  0  0  0  0  0  0  0  0  0  0
    0.2687  -10.0102    0.6759 C   0  0  0  0  0  0  0  0  0  0  0  0
    0.1996   -8.9577    1.5191 C   0  0  0  0  0  0  0  0  0  0  0  0
   -0.5305   -7.8263    1.1578 C   0  0  0  0  0  0  0  0  0  0  0  0
    0.0929   -6.7772    0.9182 C   0  0  0  0  0  0  0  0  0  0  0  0
   -0.6243   -5.5114    0.6519 N   0  0  0  0  0  0  0  0  0  0  0  0
   -1.8531   -5.6809    0.5199 C   0  0  0  0  0  0  0  0  0  0  0  0
   -2.5029   -6.7312    0.6075 N   0  0  0  0  0  0  0  0  0  0  0  0
   -1.9006   -7.8612    0.9782 C   0  0  0  0  0  0  0  0  0  0  0  0
   -2.5710   -4.4322    0.1349 C   0  0  0  0  0  0  0  0  0  0  0  0
   -2.9357   -4.2575   -1.0014 C   0  0  0  0  0  0  0  0  0  0  0  0
   -2.7755   -3.4080   -1.6647 C   0  0  0  0  0  0  0  0  0  0  0  0
   -2.5315   -2.0227   -1.0764 C   0  0  0  0  0  0  0  0  0  0  0  0
   -2.0234   -2.0632    0.2015 C   0  0  0  0  0  0  0  0  0  0  0  0
  1  2  1  0
  7  8  1  0
 11 14  1  0
 14 15  1  0
 15 16  2  3
 16 17  1  0
 17 18  2  0
  2  3  2  0
  3  4  1  0
  4  5  2  0
  5  6  1  0
  6  7  2  0
  2  7  1  0
  8  9  2  0
  9 10  1  0
 10 11  2  0
 11 12  1  0
 12 13  2  0
  8 13  1  0
M  END

$$$$
No_1988-/export/home/yangzhenyu/potential_scad_32_flow//YTHDC2/2024-12-06-03-22-00/
     RDKit          3D

 20 22  0  0  0  0  0  0  0  0999 V2000
    1.1787   -8.0297    3.5154 C   0  0  0  0  0  0  0  0  0  0  0  0
    1.1048   -9.2215    3.2892 C   0  0  0  0  0  0  0  0  0  0  0  0
    1.2339   -9.7611    2.0189 C   0  0  0  0  0  0  0  0  0  0  0  0
    1.1954  -11.2312    1.8661 C   0  0  0  0  0  0  0  0  0  0  0  0
    1.5546  -12.1691    2.7931 C   0  0  0  0  0  0  0  0  0  0  0  0
    0.5849   -7.0929    2.5729 C   0  0  0  0  0  0  0  0  0  0  0  0
    0.5567   -7.6699    1.1955 C   0  0  0  0  0  0  0  0  0  0  0  0
    0.7903   -8.9699    0.9209 C   0  0  0  0  0  0  0  0  0  0  0  0
    1.5479  -13.4950    2.3569 C   0  0  0  0  0  0  0  0  0  0  0  0
    1.2456  -13.9001    1.1648 C   0  0  0  0  0  0  0  0  0  0  0  0
    1.0233  -13.0589    0.1983 C   0  0  0  0  0  0  0  0  0  0  0  0
    0.9548  -11.6626    0.4956 C   0  0  0  0  0  0  0  0  0  0  0  0
    0.6143   -5.6362    2.6298 Cl  0  0  0  0  0  0  0  0  0  0  0  0
    2.0179  -14.5454    3.5795 O   0  0  0  0  0  0  0  0  0  0  0  0
    1.6784  -15.7634    3.2056 C   0  0  0  0  0  0  0  0  0  0  0  0
    0.3777  -16.2463    3.5866 C   0  0  0  0  0  0  0  0  0  0  0  0
   -0.0845  -17.3675    3.1554 C   0  0  0  0  0  0  0  0  0  0  0  0
    0.6674  -18.2321    2.4099 C   0  0  0  0  0  0  0  0  0  0  0  0
    1.9765  -17.8451    2.0213 C   0  0  0  0  0  0  0  0  0  0  0  0
    2.4838  -16.6050    2.4901 C   0  0  0  0  0  0  0  0  0  0  0  0
  3  4  1  0
  6 13  1  0
  9 14  1  0
 14 15  1  0
 15 16  2  0
 16 17  1  0
 17 18  2  0
 18 19  1  0
 19 20  2  0
 15 20  1  0
  1  2  2  0
  2  3  1  0
  3  8  2  0
  7  8  1  0
  6  7  2  0
  1  6  1  0
  4  5  2  0
  5  9  1  0
  9 10  2  0
 10 11  1  0
 11 12  2  0
  4 12  1  0
M  END

$$$$
No_1989-/export/home/yangzhenyu/potential_scad_32_flow//YTHDC2/2024-12-06-03-22-00/
     RDKit          3D

 22 24  0  0  1  0  0  0  0  0999 V2000
    1.1787   -8.0297    3.5154 C   0  0  0  0  0  0  0  0  0  0  0  0
    1.0491   -6.8434    2.9820 C   0  0  0  0  0  0  0  0  0  0  0  0
    0.9905   -9.0774    2.6527 C   0  0  0  0  0  0  0  0  0  0  0  0
    1.1655  -10.4663    3.1286 C   0  0  0  0  0  0  0  0  0  0  0  0
    1.2197  -11.4898    2.5831 C   0  0  0  0  0  0  0  0  0  0  0  0
    1.0589  -11.4458    1.1293 C   0  0  0  0  0  0  0  0  0  0  0  0
    0.9638  -10.3069    0.4651 C   0  0  0  0  0  0  0  0  0  0  0  0
    0.9191   -9.0789    1.1942 C   0  0  0  0  0  0  0  0  0  0  0  0
    0.9198   -7.8339    0.6158 C   0  0  0  0  0  0  0  0  0  0  0  0
    1.0184   -6.6904    1.4953 C   0  0  0  0  0  0  0  0  0  0  0  0
    1.3836  -13.0393    3.2033 C   0  0  0  0  0  0  0  0  0  0  0  0
    1.2442  -14.0587    2.2244 C   0  0  1  0  0  0  0  0  0  0  0  0
    2.5144  -14.5925    1.9110 C   0  0  0  0  0  0  0  0  0  0  0  0
    1.3962   -5.5985    3.6108 C   0  0  0  0  0  0  0  0  0  0  0  0
    0.3113  -15.1059    2.5857 C   0  0  0  0  0  0  0  0  0  0  0  0
   -0.7508  -15.2243    2.3164 C   0  0  0  0  0  0  0  0  0  0  0  0
   -1.6647  -16.0941    2.9671 C   0  0  0  0  0  0  0  0  0  0  0  0
   -1.1710  -16.9103    3.9261 C   0  0  0  0  0  0  0  0  0  0  0  0
    0.1399  -16.8927    4.3676 C   0  0  0  0  0  0  0  0  0  0  0  0
    1.0133  -15.9805    3.6783 C   0  0  0  0  0  0  0  0  0  0  0  0
    2.1253   -5.6190    4.6938 N   0  0  0  0  0  0  0  0  0  0  0  0
    2.4361   -6.5004    5.0767 H   0  0  0  0  0  0  0  0  0  0  0  0
  5 11  1  0
 11 12  1  0
 12 13  1  1
  2 14  1  0
 12 15  1  0
 14 21  2  0
 15 16  2  0
 16 17  1  0
 17 18  2  0
 18 19  1  0
 19 20  2  0
 15 20  1  0
  1  2  2  0
  2 10  1  0
  9 10  2  0
  8  9  1  0
  1  3  1  0
  3  4  2  0
  4  5  1  0
  5  6  2  0
  6  7  1  0
  7  8  2  0
  3  8  1  0
 21 22  1  0
M  END

$$$$
No_1990-/export/home/yangzhenyu/potential_scad_32_flow//YTHDC2/2024-12-06-03-22-00/
     RDKit          3D

 17 18  0  0  0  0  0  0  0  0999 V2000
    1.1787   -8.0297    3.5154 C   0  0  0  0  0  0  0  0  0  0  0  0
    1.0491   -6.8434    2.9820 C   0  0  0  0  0  0  0  0  0  0  0  0
    0.9905   -9.0774    2.6527 C   0  0  0  0  0  0  0  0  0  0  0  0
    0.7897   -8.9519    1.3691 C   0  0  0  0  0  0  0  0  0  0  0  0
    0.6550  -10.0985    0.4848 C   0  0  0  0  0  0  0  0  0  0  0  0
    0.7849   -6.5836    1.6043 C   0  0  0  0  0  0  0  0  0  0  0  0
    0.6652   -7.6671    0.8008 C   0  0  0  0  0  0  0  0  0  0  0  0
    1.2441  -11.1828    0.5777 O   0  0  0  0  0  0  0  0  0  0  0  0
   -0.2030  -10.0131   -0.5296 O   0  0  0  0  0  0  0  0  0  0  0  0
    1.2204  -10.4450    3.2012 C   0  0  0  0  0  0  0  0  0  0  0  0
    0.2195  -11.2540    3.6484 C   0  0  0  0  0  0  0  0  0  0  0  0
    0.4664  -12.5462    3.8371 C   0  0  0  0  0  0  0  0  0  0  0  0
    1.7963  -13.0136    3.5834 C   0  0  0  0  0  0  0  0  0  0  0  0
    2.7471  -12.2339    3.0423 C   0  0  0  0  0  0  0  0  0  0  0  0
    2.4384  -10.9296    2.7941 C   0  0  0  0  0  0  0  0  0  0  0  0
    0.6589   -5.3285    1.0408 O   0  0  0  0  0  0  0  0  0  0  0  0
    2.0364  -14.4020    3.5742 N   0  0  0  0  0  0  0  0  0  0  0  0
  4  5  1  0
  5  8  1  0
  5  9  2  0
  3 10  1  0
  6 16  1  0
 13 17  1  0
  1  2  2  0
  2  6  1  0
  6  7  2  0
  4  7  1  0
  3  4  2  0
  1  3  1  0
 10 11  2  0
 11 12  1  0
 12 13  2  0
 13 14  1  0
 14 15  2  0
 10 15  1  0
M  END

$$$$
No_1991-/export/home/yangzhenyu/potential_scad_32_flow//YTHDC2/2024-12-06-03-22-00/
     RDKit          3D

 21 22  0  0  1  0  0  0  0  0999 V2000
    1.1787   -8.0297    3.5154 C   0  0  0  0  0  0  0  0  0  0  0  0
    1.0491   -6.8434    2.9820 C   0  0  0  0  0  0  0  0  0  0  0  0
    0.0950   -8.8404    3.2292 C   0  0  0  0  0  0  0  0  0  0  0  0
   -0.9173   -8.4596    2.5152 I   0  0  0  0  0  0  0  0  0  0  0  0
    1.1889   -5.5584    3.7969 N   0  0  0  0  0  0  0  0  0  0  0  0
    0.6485  -10.3844    3.5886 C   0  0  0  0  0  0  0  0  0  0  0  0
    1.1432  -11.2524    2.7229 C   0  0  1  0  0  0  0  0  0  0  0  0
    1.4549  -12.5349    3.1001 C   0  0  0  0  0  0  0  0  0  0  0  0
    0.8957  -13.4985    2.3310 C   0  0  1  0  0  0  0  0  0  0  0  0
   -0.0175  -13.1024    1.3964 C   0  0  0  0  0  0  0  0  0  0  0  0
    0.0224  -11.7814    1.0562 C   0  0  2  0  0  0  0  0  0  0  0  0
    0.4074  -10.8487    1.7739 N   0  0  0  0  0  0  0  0  0  0  0  0
   -0.7154  -11.4197   -0.1296 C   0  0  0  0  0  0  0  0  0  0  0  0
   -0.6061  -10.1846   -0.7310 O   0  0  0  0  0  0  0  0  0  0  0  0
   -1.2597  -12.3000   -1.0669 O   0  0  0  0  0  0  0  0  0  0  0  0
    1.3753  -14.7910    2.4409 C   0  0  0  0  0  0  0  0  0  0  0  0
    2.4841  -15.1774    1.9240 C   0  0  0  0  0  0  0  0  0  0  0  0
    2.9842  -16.4824    2.0654 N   0  0  0  0  0  0  0  0  0  0  0  0
    0.6717  -15.6676    3.3523 N   0  0  0  0  0  0  0  0  0  0  0  0
    2.2867  -17.2479    2.9536 C   0  0  0  0  0  0  0  0  0  0  0  0
    1.1448  -16.8791    3.5425 C   0  0  0  0  0  0  0  0  0  0  0  0
  1  2  1  0
  1  3  2  3
  3  4  1  0
  2  5  1  0
  3  6  1  0
  7  6  1  1
  7  8  1  0
  8  9  1  0
  9 10  1  0
 10 11  1  0
  7 12  1  0
 11 12  1  0
 11 13  1  1
 13 14  2  0
 13 15  1  0
  9 16  1  6
 16 17  2  0
 17 18  1  0
 18 20  2  0
 20 21  1  0
 19 21  2  0
 16 19  1  0
M  END

$$$$
No_1992-/export/home/yangzhenyu/potential_scad_32_flow//YTHDC2/2024-12-06-03-22-00/
     RDKit          3D

 16 17  0  0  0  0  0  0  0  0999 V2000
    1.1787   -8.0297    3.5154 C   0  0  0  0  0  0  0  0  0  0  0  0
    1.0491   -6.8434    2.9820 C   0  0  0  0  0  0  0  0  0  0  0  0
    0.0950   -8.8404    3.2292 C   0  0  0  0  0  0  0  0  0  0  0  0
   -0.9173   -8.4596    2.5152 C   0  0  0  0  0  0  0  0  0  0  0  0
   -1.0331   -7.2162    2.0653 C   0  0  0  0  0  0  0  0  0  0  0  0
   -0.0105   -6.3168    2.3081 C   0  0  0  0  0  0  0  0  0  0  0  0
    0.1465  -10.2446    3.6981 C   0  0  0  0  0  0  0  0  0  0  0  0
    1.2433  -10.8239    4.0166 C   0  0  0  0  0  0  0  0  0  0  0  0
    1.1033  -12.2936    4.0346 C   0  0  0  0  0  0  0  0  0  0  0  0
    0.0220  -12.9035    3.7006 C   0  0  0  0  0  0  0  0  0  0  0  0
   -1.0373  -12.2681    3.2608 C   0  0  0  0  0  0  0  0  0  0  0  0
   -1.0058  -10.9076    3.2655 C   0  0  0  0  0  0  0  0  0  0  0  0
   -0.1246   -5.0088    1.8408 C   0  0  0  0  0  0  0  0  0  0  0  0
   -0.5975   -4.7075    0.7366 C   0  0  0  0  0  0  0  0  0  0  0  0
   -1.2759   -3.6299    0.5860 C   0  0  0  0  0  0  0  0  0  0  0  0
   -0.8782   -2.4625    1.3333 C   0  0  0  0  0  0  0  0  0  0  0  0
  3  7  1  0
  6 13  1  0
 13 14  1  0
 14 15  2  3
 15 16  1  0
  1  2  2  0
  2  6  1  0
  5  6  2  0
  4  5  1  0
  3  4  2  0
  1  3  1  0
  7  8  2  0
  8  9  1  0
  9 10  2  0
 10 11  1  0
 11 12  2  0
  7 12  1  0
M  END

$$$$
No_1993-/export/home/yangzhenyu/potential_scad_32_flow//YTHDC2/2024-12-06-03-22-00/
     RDKit          3D

 17 18  0  0  1  0  0  0  0  0999 V2000
    1.1787   -8.0297    3.5154 C   0  0  0  0  0  0  0  0  0  0  0  0
    1.0491   -6.8434    2.9820 C   0  0  0  0  0  0  0  0  0  0  0  0
    0.2462   -8.9560    3.0873 C   0  0  0  0  0  0  0  0  0  0  0  0
    0.3295   -6.5187    1.9069 C   0  0  0  0  0  0  0  0  0  0  0  0
   -0.5260   -8.7862    2.1368 C   0  0  0  0  0  0  0  0  0  0  0  0
   -0.5458   -7.5614    1.5054 C   0  0  0  0  0  0  0  0  0  0  0  0
    0.3636   -5.3203    1.2895 C   0  0  0  0  0  0  0  0  0  0  0  0
   -0.3374   -4.2631    1.7514 O   0  0  0  0  0  0  0  0  0  0  0  0
    0.3666  -10.3437    3.6539 C   0  0  0  0  0  0  0  0  0  0  0  0
    1.5249  -10.9291    3.9639 C   0  0  0  0  0  0  0  0  0  0  0  0
    1.6875  -12.3085    3.8231 C   0  0  0  0  0  0  0  0  0  0  0  0
    1.2318  -12.6847    2.4812 C   0  0  2  0  0  0  0  0  0  0  0  0
    1.3044  -11.8400    1.5780 C   0  0  0  0  0  0  0  0  0  0  0  0
    0.4209  -12.0520    0.4339 C   0  0  0  0  0  0  0  0  0  0  0  0
   -0.2547  -13.1641    0.3113 C   0  0  0  0  0  0  0  0  0  0  0  0
    0.1453  -13.8430    1.8682 C   0  0  0  0  0  0  0  0  0  0  0  0
   -0.0689  -14.8458    2.6025 C   0  0  0  0  0  0  0  0  0  0  0  0
  4  7  1  0
  7  8  1  0
  3  9  1  0
  9 10  1  0
 10 11  1  0
 12 11  1  1
 12 13  1  0
 13 14  2  0
 14 15  1  0
 12 16  1  0
 15 16  1  0
 16 17  1  0
  1  2  2  0
  2  4  1  0
  4  6  2  0
  5  6  1  0
  3  5  2  0
  1  3  1  0
M  END

$$$$
No_1994-/export/home/yangzhenyu/potential_scad_32_flow//YTHDC2/2024-12-06-03-22-00/
     RDKit          3D

 18 19  0  0  0  0  0  0  0  0999 V2000
    1.1787   -8.0297    3.5154 C   0  0  0  0  0  0  0  0  0  0  0  0
    1.1048   -9.2215    3.2892 C   0  0  0  0  0  0  0  0  0  0  0  0
    1.2339   -9.7611    2.0189 C   0  0  0  0  0  0  0  0  0  0  0  0
    1.3583   -9.0036    0.9764 C   0  0  0  0  0  0  0  0  0  0  0  0
    1.5996   -7.6362    1.1311 C   0  0  0  0  0  0  0  0  0  0  0  0
    1.4830   -7.0928    2.3626 C   0  0  0  0  0  0  0  0  0  0  0  0
    1.1008  -11.2372    1.8542 C   0  0  0  0  0  0  0  0  0  0  0  0
    1.9749  -12.0938    2.2342 C   0  0  0  0  0  0  0  0  0  0  0  0
    1.7533  -13.4231    1.8956 C   0  0  0  0  0  0  0  0  0  0  0  0
    0.8624  -13.8318    1.1071 C   0  0  0  0  0  0  0  0  0  0  0  0
   -0.0624  -12.9093    0.5581 C   0  0  0  0  0  0  0  0  0  0  0  0
    0.1157  -11.5285    0.9404 C   0  0  0  0  0  0  0  0  0  0  0  0
    1.5561   -5.6354    2.6426 C   0  0  0  0  0  0  0  0  0  0  0  0
   -0.8094  -10.6544    0.4388 N   0  0  0  0  0  0  0  0  0  0  0  0
   -1.8992  -10.4013    1.0605 C   0  0  0  0  0  0  0  0  0  0  0  0
   -2.4065  -11.0234    2.0333 C   0  0  0  0  0  0  0  0  0  0  0  0
   -2.8869  -10.3103    3.1116 C   0  0  0  0  0  0  0  0  0  0  0  0
   -3.2063   -9.0238    2.9411 C   0  0  0  0  0  0  0  0  0  0  0  0
  3  7  1  0
  6 13  1  0
 12 14  1  0
 14 15  1  0
 15 16  1  0
 16 17  2  3
 17 18  1  0
  1  2  2  0
  2  3  1  0
  3  4  2  0
  4  5  1  0
  5  6  2  0
  1  6  1  0
  7  8  2  0
  8  9  1  0
  9 10  2  0
 10 11  1  0
 11 12  2  0
  7 12  1  0
M  END

$$$$
No_1995-/export/home/yangzhenyu/potential_scad_32_flow//YTHDC2/2024-12-06-03-22-00/
     RDKit          3D

 18 18  0  0  0  0  0  0  0  0999 V2000
    1.1787   -8.0297    3.5154 C   0  0  0  0  0  0  0  0  0  0  0  0
    1.1048   -9.2215    3.2892 C   0  0  0  0  0  0  0  0  0  0  0  0
    1.2339   -9.7611    2.0189 C   0  0  0  0  0  0  0  0  0  0  0  0
    1.3583   -9.0036    0.9764 C   0  0  0  0  0  0  0  0  0  0  0  0
    1.5996   -7.6362    1.1311 C   0  0  0  0  0  0  0  0  0  0  0  0
    1.4830   -7.0928    2.3626 C   0  0  0  0  0  0  0  0  0  0  0  0
    1.4898   -5.7274    2.6199 C   0  0  0  0  0  0  0  0  0  0  0  0
    1.1681  -11.2222    1.8390 C   0  0  0  0  0  0  0  0  0  0  0  0
    0.5014  -11.9760    2.2068 C   0  0  0  0  0  0  0  0  0  0  0  0
    0.4167  -13.3685    2.0527 C   0  0  0  0  0  0  0  0  0  0  0  0
    1.5984  -14.1574    2.4634 C   0  0  0  0  0  0  0  0  0  0  0  0
    1.8090  -15.4261    2.0927 C   0  0  0  0  0  0  0  0  0  0  0  0
    3.0163  -15.8353    1.7346 O   0  0  0  0  0  0  0  0  0  0  0  0
    0.9378  -16.3356    1.9395 O   0  0  0  0  0  0  0  0  0  0  0  0
    1.2511   -4.8471    1.6239 O   0  0  0  0  0  0  0  0  0  0  0  0
    2.0631   -5.0642    3.6950 O   0  0  0  0  0  0  0  0  0  0  0  0
   -0.6532  -14.0704    1.5887 C   0  0  0  0  0  0  0  0  0  0  0  0
   -1.4033  -14.0121    0.7858 O   0  0  0  0  0  0  0  0  0  0  0  0
  6  7  1  0
  3  8  1  0
  8  9  2  3
  9 10  1  0
 10 11  1  0
 11 12  1  0
 12 13  2  0
 12 14  1  0
  7 15  2  0
  7 16  1  0
 10 17  1  0
 17 18  2  0
  1  2  2  0
  2  3  1  0
  3  4  2  0
  4  5  1  0
  5  6  2  0
  1  6  1  0
M  END

$$$$
No_1996-/export/home/yangzhenyu/potential_scad_32_flow//YTHDC2/2024-12-06-03-22-00/
     RDKit          3D

 19 20  0  0  0  0  0  0  0  0999 V2000
    1.1787   -8.0297    3.5154 C   0  0  0  0  0  0  0  0  0  0  0  0
    1.0491   -6.8434    2.9820 C   0  0  0  0  0  0  0  0  0  0  0  0
    0.0950   -8.8404    3.2292 C   0  0  0  0  0  0  0  0  0  0  0  0
   -0.9173   -8.4596    2.5152 C   0  0  0  0  0  0  0  0  0  0  0  0
   -1.0331   -7.2162    2.0653 C   0  0  0  0  0  0  0  0  0  0  0  0
   -0.0105   -6.3168    2.3081 C   0  0  0  0  0  0  0  0  0  0  0  0
    0.1465  -10.2446    3.6981 C   0  0  0  0  0  0  0  0  0  0  0  0
    0.1907  -11.3369    2.8651 C   0  0  0  0  0  0  0  0  0  0  0  0
    0.7661  -12.5788    3.2923 C   0  0  0  0  0  0  0  0  0  0  0  0
    0.7707  -13.6301    2.4861 C   0  0  0  0  0  0  0  0  0  0  0  0
    0.3777  -13.6646    1.3267 C   0  0  0  0  0  0  0  0  0  0  0  0
    0.5818  -14.7323    0.4257 C   0  0  0  0  0  0  0  0  0  0  0  0
   -0.1763  -12.4107    0.9056 C   0  0  0  0  0  0  0  0  0  0  0  0
   -0.1977  -11.2637    1.5916 C   0  0  0  0  0  0  0  0  0  0  0  0
    1.3125  -14.9167    3.0848 N   0  0  0  0  0  0  0  0  0  0  0  0
   -0.0646   -5.0272    1.7774 C   0  0  0  0  0  0  0  0  0  0  0  0
   -0.5084   -4.7637    0.6370 C   0  0  0  0  0  0  0  0  0  0  0  0
   -1.2000   -3.6541    0.5674 N   0  0  0  0  0  0  0  0  0  0  0  0
   -1.3362   -3.0912    1.3949 H   0  0  0  0  0  0  0  0  0  0  0  0
  3  7  1  0
  7  8  1  0
 11 12  1  0
 10 15  1  0
  6 16  1  0
 16 17  1  0
 17 18  2  0
  8  9  2  0
  9 10  1  0
 10 11  2  0
 11 13  1  0
 13 14  2  0
  8 14  1  0
  1  2  2  0
  2  6  1  0
  5  6  2  0
  4  5  1  0
  3  4  2  0
  1  3  1  0
 18 19  1  0
M  END

$$$$
No_1997-/export/home/yangzhenyu/potential_scad_32_flow//YTHDC2/2024-12-06-03-22-00/
     RDKit          3D

 19 19  0  0  1  0  0  0  0  0999 V2000
    1.1787   -8.0297    3.5154 C   0  0  0  0  0  0  0  0  0  0  0  0
    1.0491   -6.8434    2.9820 C   0  0  0  0  0  0  0  0  0  0  0  0
    0.9905   -9.0774    2.6527 C   0  0  0  0  0  0  0  0  0  0  0  0
    1.1655  -10.4663    3.1286 C   0  0  2  0  0  0  0  0  0  0  0  0
    1.7409  -10.6480    4.4599 C   0  0  0  0  0  0  0  0  0  0  0  0
    0.4783   -6.4688    1.7590 C   0  0  0  0  0  0  0  0  0  0  0  0
    0.2119   -7.5787    0.9640 C   0  0  0  0  0  0  0  0  0  0  0  0
    0.4248   -8.8744    1.3136 C   0  0  0  0  0  0  0  0  0  0  0  0
    1.0420  -11.5352    2.2989 C   0  0  0  0  0  0  0  0  0  0  0  0
    0.2719  -12.5305    2.5621 C   0  0  0  0  0  0  0  0  0  0  0  0
    0.8006  -13.7803    2.7134 C   0  0  2  0  0  0  0  0  0  0  0  0
    1.9830  -14.0705    2.6810 C   0  0  0  0  0  0  0  0  0  0  0  0
    0.3276   -5.2001    1.2487 C   0  0  0  0  0  0  0  0  0  0  0  0
    1.3638   -4.2748    1.6146 O   0  0  0  0  0  0  0  0  0  0  0  0
   -0.6491   -4.7307    0.7334 N   0  0  0  0  0  0  0  0  0  0  0  0
   -0.0635  -14.9172    2.1276 C   0  0  0  0  0  0  0  0  0  0  0  0
   -0.7572  -14.7230    1.3432 C   0  0  0  0  0  0  0  0  0  0  0  0
   -0.3484  -13.9443    0.1247 C   0  0  0  0  0  0  0  0  0  0  0  0
   -0.9197  -13.4513   -0.6201 C   0  0  0  0  0  0  0  0  0  0  0  0
  3  4  1  0
  4  5  1  6
  4  9  1  0
  9 10  1  0
 10 11  1  0
 11 12  1  6
  6 13  1  0
 13 14  2  0
 13 15  1  0
 11 16  1  0
 16 17  2  3
 17 18  1  0
 18 19  2  0
  1  2  2  0
  2  6  1  0
  6  7  2  0
  7  8  1  0
  3  8  2  0
  1  3  1  0
M  END

$$$$
No_1998-/export/home/yangzhenyu/potential_scad_32_flow//YTHDC2/2024-12-06-03-22-00/
     RDKit          3D

 19 20  0  0  1  0  0  0  0  0999 V2000
    1.1787   -8.0297    3.5154 C   0  0  0  0  0  0  0  0  0  0  0  0
    1.1048   -9.2215    3.2892 C   0  0  0  0  0  0  0  0  0  0  0  0
    1.3627  -10.1721    4.3044 C   0  0  0  0  0  0  0  0  0  0  0  0
    1.0682  -11.5187    4.0618 C   0  0  0  0  0  0  0  0  0  0  0  0
    0.6332  -11.9655    2.9682 C   0  0  1  0  0  0  0  0  0  0  0  0
    0.4776  -11.1308    1.9203 C   0  0  0  0  0  0  0  0  0  0  0  0
    0.7470   -9.8274    2.0368 N   0  0  0  0  0  0  0  0  0  0  0  0
    1.0329   -7.0426    2.4649 C   0  0  2  0  0  0  0  0  0  0  0  0
    1.1893   -7.4992    1.1303 C   0  0  0  0  0  0  0  0  0  0  0  0
    0.9743   -8.8122    0.9528 N   0  0  0  0  0  0  0  0  0  0  0  0
    0.3604  -13.3667    2.6925 C   0  0  0  0  0  0  0  0  0  0  0  0
    1.2879  -14.3343    3.0648 C   0  0  0  0  0  0  0  0  0  0  0  0
    1.3712  -15.5305    2.4144 C   0  0  0  0  0  0  0  0  0  0  0  0
    1.7611  -16.6592    3.0568 C   0  0  1  0  0  0  0  0  0  0  0  0
    0.9772  -17.4091    3.7360 C   0  0  0  0  0  0  0  0  0  0  0  0
    1.3551   -5.4326    2.5983 C   0  0  0  0  0  0  0  0  0  0  0  0
    1.3941  -18.5774    4.4814 C   0  0  0  0  0  0  0  0  0  0  0  0
    2.7598  -18.9419    4.1110 C   0  0  0  0  0  0  0  0  0  0  0  0
    3.0719  -17.3233    3.0229 C   0  0  0  0  0  0  0  0  0  0  0  0
  1  2  1  0
  2  3  1  0
  4  5  1  0
  2  7  1  0
  6  7  1  0
  8  9  1  0
  7 10  1  0
  9 10  1  0
  5 11  1  6
 11 12  1  0
 12 13  1  0
 13 14  1  0
 14 15  1  0
  8 16  1  1
 15 17  2  3
 17 18  1  0
 14 19  1  6
  3  4  1  0
  5  6  1  0
  1  8  1  0
M  END

$$$$
No_1999-/export/home/yangzhenyu/potential_scad_32_flow//YTHDC2/2024-12-06-03-22-00/
     RDKit          3D

 19 20  0  0  0  0  0  0  0  0999 V2000
    1.1787   -8.0297    3.5154 C   0  0  0  0  0  0  0  0  0  0  0  0
    1.0491   -6.8434    2.9820 C   0  0  0  0  0  0  0  0  0  0  0  0
    0.0950   -8.8404    3.2292 C   0  0  0  0  0  0  0  0  0  0  0  0
   -0.9173   -8.4596    2.5152 C   0  0  0  0  0  0  0  0  0  0  0  0
   -1.0331   -7.2162    2.0653 C   0  0  0  0  0  0  0  0  0  0  0  0
   -0.0105   -6.3168    2.3081 C   0  0  0  0  0  0  0  0  0  0  0  0
    0.1150   -4.9910    1.8495 C   0  0  0  0  0  0  0  0  0  0  0  0
    0.9121   -4.1017    2.4010 O   0  0  0  0  0  0  0  0  0  0  0  0
    0.1243  -10.2739    3.6619 C   0  0  0  0  0  0  0  0  0  0  0  0
    0.2131  -11.3596    2.8425 C   0  0  0  0  0  0  0  0  0  0  0  0
    1.0251  -11.9866    2.7011 C   0  0  0  0  0  0  0  0  0  0  0  0
    1.4254  -12.9324    2.6839 C   0  0  0  0  0  0  0  0  0  0  0  0
    0.3856  -14.0124    2.5402 C   0  0  0  0  0  0  0  0  0  0  0  0
   -0.8688  -13.5619    2.7408 C   0  0  0  0  0  0  0  0  0  0  0  0
   -1.0550  -12.2174    2.9061 C   0  0  0  0  0  0  0  0  0  0  0  0
    0.6511  -15.5828    2.2949 C   0  0  0  0  0  0  0  0  0  0  0  0
   -0.2090  -16.3219    2.0319 C   0  0  0  0  0  0  0  0  0  0  0  0
    2.0472  -15.9608    2.6183 C   0  0  0  0  0  0  0  0  0  0  0  0
    2.4790  -17.1763    2.3627 C   0  0  0  0  0  0  0  0  0  0  0  0
  6  7  1  0
  7  8  1  0
  3  9  1  0
  9 10  1  0
 13 16  1  0
 16 17  2  0
 16 18  1  0
 18 19  2  0
  1  2  2  0
  2  6  1  0
  5  6  2  0
  4  5  1  0
  3  4  2  0
  1  3  1  0
 10 11  2  0
 11 12  1  0
 12 13  2  0
 13 14  1  0
 14 15  2  0
 10 15  1  0
M  END

$$$$
No_2000-/export/home/yangzhenyu/potential_scad_32_flow//YTHDC2/2024-12-06-03-22-00/
     RDKit          3D

 17 18  0  0  0  0  0  0  0  0999 V2000
    1.1787   -8.0297    3.5154 C   0  0  0  0  0  0  0  0  0  0  0  0
    1.1048   -9.2215    3.2892 C   0  0  0  0  0  0  0  0  0  0  0  0
    1.2339   -9.7611    2.0189 C   0  0  0  0  0  0  0  0  0  0  0  0
    1.1954  -11.2312    1.8661 C   0  0  0  0  0  0  0  0  0  0  0  0
    1.2996  -11.5815    0.5387 N   0  0  0  0  0  0  0  0  0  0  0  0
    1.3722   -7.1054    2.3594 C   0  0  0  0  0  0  0  0  0  0  0  0
    1.3987   -7.6283    1.0705 C   0  0  0  0  0  0  0  0  0  0  0  0
    1.4976   -8.9665    0.8788 C   0  0  0  0  0  0  0  0  0  0  0  0
    0.9593  -11.9652    2.8129 C   0  0  0  0  0  0  0  0  0  0  0  0
    0.8366  -13.3221    2.6057 C   0  0  0  0  0  0  0  0  0  0  0  0
    0.8846  -13.7645    1.3402 N   0  0  0  0  0  0  0  0  0  0  0  0
    1.1202  -12.9053    0.3588 C   0  0  0  0  0  0  0  0  0  0  0  0
    1.3536   -5.6403    2.5941 Cl  0  0  0  0  0  0  0  0  0  0  0  0
    0.6668  -14.2628    3.6285 N   0  0  0  0  0  0  0  0  0  0  0  0
    0.9011  -15.6471    3.3054 N   0  0  0  0  0  0  0  0  0  0  0  0
    0.2263  -16.5152    4.0645 O   0  0  0  0  0  0  0  0  0  0  0  0
    1.8645   -9.4500   -0.6748 F   0  0  0  0  0  0  0  0  0  0  0  0
  3  4  1  0
  6 13  1  0
 10 14  1  0
 14 15  1  0
 15 16  2  0
  8 17  1  0
  4  5  2  0
  5 12  1  0
 11 12  2  0
 10 11  1  0
  9 10  2  0
  4  9  1  0
  1  2  2  0
  2  3  1  0
  3  8  2  0
  7  8  1  0
  6  7  2  0
  1  6  1  0
M  END

$$$$
No_2001-/export/home/yangzhenyu/potential_scad_32_flow//YTHDC2/2024-12-06-03-22-00/
     RDKit          3D

 18 19  0  0  1  0  0  0  0  0999 V2000
    1.1787   -8.0297    3.5154 C   0  0  0  0  0  0  0  0  0  0  0  0
    1.1048   -9.2215    3.2892 C   0  0  0  0  0  0  0  0  0  0  0  0
    1.2339   -9.7611    2.0189 C   0  0  0  0  0  0  0  0  0  0  0  0
    1.3583   -9.0036    0.9764 C   0  0  0  0  0  0  0  0  0  0  0  0
    1.5996   -7.6362    1.1311 C   0  0  0  0  0  0  0  0  0  0  0  0
    1.4830   -7.0928    2.3626 C   0  0  0  0  0  0  0  0  0  0  0  0
    1.5395   -5.7300    2.6182 C   0  0  0  0  0  0  0  0  0  0  0  0
    1.1775  -11.2233    1.8407 C   0  0  1  0  0  0  0  0  0  0  0  0
    1.9057  -12.1147    2.3397 N   0  0  0  0  0  0  0  0  0  0  0  0
    1.6937  -13.4287    2.1342 C   0  0  0  0  0  0  0  0  0  0  0  0
    0.4135  -13.7782    2.3923 C   0  0  1  0  0  0  0  0  0  0  0  0
   -0.6321  -12.8076    1.9764 C   0  0  0  0  0  0  0  0  0  0  0  0
   -0.2196  -11.4937    1.9059 C   0  0  0  0  0  0  0  0  0  0  0  0
    0.1184  -15.0891    2.6802 C   0  0  0  0  0  0  0  0  0  0  0  0
   -1.0458  -15.6168    2.8179 C   0  0  0  0  0  0  0  0  0  0  0  0
   -1.2691  -17.0060    3.1321 C   0  0  0  0  0  0  0  0  0  0  0  0
   -2.4852  -17.4178    3.3980 C   0  0  0  0  0  0  0  0  0  0  0  0
   -3.3871  -16.6991    3.7440 C   0  0  0  0  0  0  0  0  0  0  0  0
  6  7  1  0
  8  3  1  1
  8  9  1  0
  9 10  1  0
 11 10  1  6
 11 12  1  0
  8 13  1  0
 12 13  1  0
 11 14  1  0
 14 15  2  3
 15 16  1  0
 16 17  2  3
 17 18  1  0
  1  2  2  0
  2  3  1  0
  3  4  2  0
  4  5  1  0
  5  6  2  0
  1  6  1  0
M  END

$$$$
No_2002-/export/home/yangzhenyu/potential_scad_32_flow//YTHDC2/2024-12-06-03-22-00/
     RDKit          3D

 18 20  0  0  0  0  0  0  0  0999 V2000
    1.1787   -8.0297    3.5154 C   0  0  0  0  0  0  0  0  0  0  0  0
    1.1048   -9.2215    3.2892 C   0  0  0  0  0  0  0  0  0  0  0  0
    1.3627  -10.1721    4.3044 C   0  0  0  0  0  0  0  0  0  0  0  0
    1.0682  -11.5187    4.0618 C   0  0  0  0  0  0  0  0  0  0  0  0
    0.6332  -11.9655    2.9682 C   0  0  0  0  0  0  0  0  0  0  0  0
    0.4776  -11.1308    1.9203 C   0  0  0  0  0  0  0  0  0  0  0  0
    0.7470   -9.8274    2.0368 C   0  0  0  0  0  0  0  0  0  0  0  0
    0.5536   -7.1314    2.6860 N   0  0  0  0  0  0  0  0  0  0  0  0
    0.3069   -7.6119    1.3919 C   0  0  0  0  0  0  0  0  0  0  0  0
    0.2579   -8.8240    1.1187 C   0  0  0  0  0  0  0  0  0  0  0  0
   -0.0936   -6.6529    0.5865 C   0  0  0  0  0  0  0  0  0  0  0  0
   -0.7974   -7.0282   -0.4854 C   0  0  0  0  0  0  0  0  0  0  0  0
   -0.8623   -8.3714   -0.8671 C   0  0  0  0  0  0  0  0  0  0  0  0
   -0.3255   -9.2315   -0.1048 C   0  0  0  0  0  0  0  0  0  0  0  0
   -1.3777   -8.6917   -2.1346 C   0  0  0  0  0  0  0  0  0  0  0  0
   -1.1303   -7.8096   -3.2324 O   0  0  0  0  0  0  0  0  0  0  0  0
   -2.1194   -9.7362   -2.3255 O   0  0  0  0  0  0  0  0  0  0  0  0
    0.5271  -13.6149    2.6888 C   0  0  0  0  0  0  0  0  0  0  0  0
 13 15  1  0
 15 16  2  0
 15 17  1  0
  5 18  1  0
  2  3  1  0
  3  4  2  0
  4  5  1  0
  5  6  2  0
  6  7  1  0
 10 14  1  0
 13 14  2  0
 12 13  1  0
 11 12  2  0
  9 11  1  0
  1  2  2  0
  2  7  1  0
  7 10  2  0
  9 10  1  0
  8  9  2  0
  1  8  1  0
M  END

$$$$
No_2003-/export/home/yangzhenyu/potential_scad_32_flow//YTHDC2/2024-12-06-03-22-00/
     RDKit          3D

 19 20  0  0  1  0  0  0  0  0999 V2000
    1.1787   -8.0297    3.5154 C   0  0  0  0  0  0  0  0  0  0  0  0
    1.1048   -9.2215    3.2892 C   0  0  0  0  0  0  0  0  0  0  0  0
    1.3627  -10.1721    4.3044 C   0  0  0  0  0  0  0  0  0  0  0  0
    1.0682  -11.5187    4.0618 C   0  0  0  0  0  0  0  0  0  0  0  0
    0.6332  -11.9655    2.9682 C   0  0  0  0  0  0  0  0  0  0  0  0
    0.4776  -11.1308    1.9203 C   0  0  0  0  0  0  0  0  0  0  0  0
    0.7470   -9.8274    2.0368 C   0  0  0  0  0  0  0  0  0  0  0  0
    1.0387   -7.0301    2.5175 C   0  0  2  0  0  0  0  0  0  0  0  0
    0.9130   -7.5288    1.2013 C   0  0  0  0  0  0  0  0  0  0  0  0
    0.7893   -8.7979    0.9542 C   0  0  2  0  0  0  0  0  0  0  0  0
    0.5241   -9.2578   -0.2817 C   0  0  0  0  0  0  0  0  0  0  0  0
    1.2450   -9.2169   -1.2769 O   0  0  0  0  0  0  0  0  0  0  0  0
   -0.8125   -9.7173   -0.5966 N   0  0  0  0  0  0  0  0  0  0  0  0
    0.5169  -13.3675    2.6934 S   0  0  0  0  0  0  0  0  0  0  0  0
   -0.8497  -13.9415    2.7224 O   0  0  0  0  0  0  0  0  0  0  0  0
    1.2453  -13.8398    1.3236 N   0  0  0  0  0  0  0  0  0  0  0  0
    1.2285  -14.3251    3.6732 O   0  0  0  0  0  0  0  0  0  0  0  0
    1.3265   -5.6383    2.7540 C   0  0  0  0  0  0  0  0  0  0  0  0
    0.8531   -6.6883    0.2718 O   0  0  0  0  0  0  0  0  0  0  0  0
  1  2  1  0
  8  9  1  0
  7 10  1  0
  9 10  1  0
 10 11  1  1
 11 12  2  0
 11 13  1  0
  5 14  1  0
 14 15  2  0
 14 16  1  0
 14 17  2  0
  8 18  1  6
  9 19  2  0
  1  8  1  0
  2  3  2  0
  3  4  1  0
  4  5  2  0
  5  6  1  0
  6  7  2  0
  2  7  1  0
M  END

$$$$
No_2004-/export/home/yangzhenyu/potential_scad_32_flow//YTHDC2/2024-12-06-03-22-00/
     RDKit          3D

 18 18  0  0  1  0  0  0  0  0999 V2000
    1.1787   -8.0297    3.5154 C   0  0  0  0  0  0  0  0  0  0  0  0
    1.1048   -9.2215    3.2892 C   0  0  0  0  0  0  0  0  0  0  0  0
    1.2339   -9.7611    2.0189 C   0  0  0  0  0  0  0  0  0  0  0  0
    1.3583   -9.0036    0.9764 C   0  0  0  0  0  0  0  0  0  0  0  0
    1.5996   -7.6362    1.1311 C   0  0  0  0  0  0  0  0  0  0  0  0
    1.4830   -7.0928    2.3626 C   0  0  0  0  0  0  0  0  0  0  0  0
    1.1171  -11.3311    1.8661 C   0  0  1  0  0  0  0  0  0  0  0  0
    0.5022  -11.6388    0.6531 C   0  0  0  0  0  0  0  0  0  0  0  0
   -0.4019  -11.0045    0.0890 O   0  0  0  0  0  0  0  0  0  0  0  0
    0.7066  -12.8522    0.2375 O   0  0  0  0  0  0  0  0  0  0  0  0
    1.5688   -5.6521    2.7086 O   0  0  0  0  0  0  0  0  0  0  0  0
    2.7249  -11.7120    1.8224 C   0  0  0  0  0  0  0  0  0  0  0  0
    0.8705   -4.7569    1.9904 C   0  0  0  0  0  0  0  0  0  0  0  0
    2.4643  -13.1583    2.1126 O   0  0  0  0  0  0  0  0  0  0  0  0
    0.2998   -3.8458    2.7064 C   0  0  1  0  0  0  0  0  0  0  0  0
    1.2049   -3.0211    3.4536 O   0  0  0  0  0  0  0  0  0  0  0  0
   -0.4679   -2.7702    1.9434 C   0  0  0  0  0  0  0  0  0  0  0  0
   -0.5213   -2.7117    0.8713 C   0  0  0  0  0  0  0  0  0  0  0  0
  3  7  1  0
  7  8  1  0
  8  9  2  0
  8 10  1  0
  6 11  1  0
  7 12  1  6
 11 13  1  0
 12 14  1  0
 13 15  1  0
 15 16  1  6
 15 17  1  0
 17 18  2  0
  1  2  2  0
  2  3  1  0
  3  4  2  0
  4  5  1  0
  5  6  2  0
  1  6  1  0
M  END

$$$$
No_2005-/export/home/yangzhenyu/potential_scad_32_flow//YTHDC2/2024-12-06-03-22-00/
     RDKit          3D

 18 19  0  0  1  0  0  0  0  0999 V2000
    1.1787   -8.0297    3.5154 C   0  0  0  0  0  0  0  0  0  0  0  0
    1.0491   -6.8434    2.9820 C   0  0  0  0  0  0  0  0  0  0  0  0
    1.9985   -8.9840    2.8958 C   0  0  0  0  0  0  0  0  0  0  0  0
    1.1815  -10.1889    2.5497 C   0  0  0  0  0  0  0  0  0  0  0  0
    0.3496  -10.1352    1.6536 C   0  0  0  0  0  0  0  0  0  0  0  0
    0.2726  -10.8443    0.9221 C   0  0  0  0  0  0  0  0  0  0  0  0
    0.8884  -12.2473    1.0851 C   0  0  0  0  0  0  0  0  0  0  0  0
    1.9321  -12.4155    1.9755 C   0  0  0  0  0  0  0  0  0  0  0  0
    2.0858  -11.2296    2.8823 C   0  0  0  0  0  0  0  0  0  0  0  0
    1.1579   -6.4170    1.9309 C   0  0  0  0  0  0  0  0  0  0  0  0
    1.0588   -5.0099    1.5289 C   0  0  0  0  0  0  0  0  0  0  0  0
   -0.0710   -4.5126    1.0765 C   0  0  0  0  0  0  0  0  0  0  0  0
   -1.1100   -5.2484    0.7715 C   0  0  0  0  0  0  0  0  0  0  0  0
   -2.2304   -4.6599    0.2676 N   0  0  0  0  0  0  0  0  0  0  0  0
   -1.8759   -3.3317    0.1259 C   0  0  0  0  0  0  0  0  0  0  0  0
   -0.5354   -3.2523    0.6958 C   0  0  2  0  0  0  0  0  0  0  0  0
    2.7897  -11.3483    4.0266 C   0  0  0  0  0  0  0  0  0  0  0  0
    0.2640   -1.9756    0.7002 C   0  0  0  0  0  0  0  0  0  0  0  0
  1  2  1  0
  1  3  1  0
  3  4  1  0
  2 10  2  3
 10 11  1  0
 11 12  1  0
 12 13  2  0
 13 14  1  0
 14 15  2  0
 12 16  1  0
 15 16  1  0
  9 17  1  0
 16 18  1  6
  4  5  2  0
  5  6  1  0
  6  7  2  0
  7  8  1  0
  8  9  2  0
  4  9  1  0
M  END

$$$$
No_2006-/export/home/yangzhenyu/potential_scad_32_flow//YTHDC2/2024-12-06-03-22-00/
     RDKit          3D

 13 13  0  0  0  0  0  0  0  0999 V2000
    1.1787   -8.0297    3.5154 C   0  0  0  0  0  0  0  0  0  0  0  0
    1.1048   -9.2215    3.2892 C   0  0  0  0  0  0  0  0  0  0  0  0
    1.2339   -9.7611    2.0189 C   0  0  0  0  0  0  0  0  0  0  0  0
    1.3583   -9.0036    0.9764 C   0  0  0  0  0  0  0  0  0  0  0  0
    1.7077   -9.6100   -0.3010 C   0  0  0  0  0  0  0  0  0  0  0  0
    1.3637   -7.1087    2.3226 C   0  0  0  0  0  0  0  0  0  0  0  0
    1.4257   -7.6645    1.0231 C   0  0  0  0  0  0  0  0  0  0  0  0
    1.6722  -10.7840   -0.4044 S   0  0  0  0  0  0  0  0  0  0  0  0
    1.7241   -8.7181   -1.4610 O   0  0  0  0  0  0  0  0  0  0  0  0
    1.1345  -10.1588    4.4022 Cl  0  0  0  0  0  0  0  0  0  0  0  0
    1.3172   -5.5733    2.5464 C   0  0  0  0  0  0  0  0  0  0  0  0
    1.0072   -4.8133    1.5688 O   0  0  0  0  0  0  0  0  0  0  0  0
    1.7125   -5.1022    3.7068 O   0  0  0  0  0  0  0  0  0  0  0  0
  4  5  1  0
  5  8  2  0
  5  9  1  0
  2 10  1  0
  6 11  1  0
 11 12  2  0
 11 13  1  0
  1  2  2  0
  2  3  1  0
  3  4  2  0
  4  7  1  0
  6  7  2  0
  1  6  1  0
M  END

$$$$
No_2007-/export/home/yangzhenyu/potential_scad_32_flow//YTHDC2/2024-12-06-03-22-00/
     RDKit          3D

 13 13  0  0  0  0  0  0  0  0999 V2000
    1.1787   -8.0297    3.5154 C   0  0  0  0  0  0  0  0  0  0  0  0
    1.1048   -9.2215    3.2892 C   0  0  0  0  0  0  0  0  0  0  0  0
    1.2339   -9.7611    2.0189 C   0  0  0  0  0  0  0  0  0  0  0  0
    1.4306   -8.9466    1.1170 C   0  0  0  0  0  0  0  0  0  0  0  0
    1.6532   -7.5949    1.1786 C   0  0  0  0  0  0  0  0  0  0  0  0
    1.4973   -7.0739    2.4258 C   0  0  0  0  0  0  0  0  0  0  0  0
    1.6687   -9.4438   -0.3021 C   0  0  0  0  0  0  0  0  0  0  0  0
    2.3503   -8.9872   -1.1111 Cl  0  0  0  0  0  0  0  0  0  0  0  0
    0.4531  -10.0651   -0.6050 O   0  0  0  0  0  0  0  0  0  0  0  0
    0.9256  -10.2031    4.3962 C   0  0  0  0  0  0  0  0  0  0  0  0
    0.6849  -11.7201    3.9351 Br  0  0  0  0  0  0  0  0  0  0  0  0
    1.5415   -5.6196    2.7611 I   0  0  0  0  0  0  0  0  0  0  0  0
   -0.1028  -10.2377    5.2492 O   0  0  0  0  0  0  0  0  0  0  0  0
  4  7  1  0
  7  8  1  0
  7  9  2  0
  2 10  1  0
 10 11  1  0
  6 12  1  0
 10 13  2  0
  1  2  2  0
  2  3  1  0
  3  4  2  0
  4  5  1  0
  5  6  2  0
  1  6  1  0
M  END

$$$$
No_2008-/export/home/yangzhenyu/potential_scad_32_flow//YTHDC2/2024-12-06-03-22-00/
     RDKit          3D

 18 18  0  0  0  0  0  0  0  0999 V2000
    1.1787   -8.0297    3.5154 C   0  0  0  0  0  0  0  0  0  0  0  0
    1.0491   -6.8434    2.9820 C   0  0  0  0  0  0  0  0  0  0  0  0
    0.0950   -8.8404    3.2292 C   0  0  0  0  0  0  0  0  0  0  0  0
   -0.9173   -8.4596    2.5152 C   0  0  0  0  0  0  0  0  0  0  0  0
   -1.0331   -7.2162    2.0653 C   0  0  0  0  0  0  0  0  0  0  0  0
   -0.0105   -6.3168    2.3081 C   0  0  0  0  0  0  0  0  0  0  0  0
    0.0485   -4.9783    1.8782 C   0  0  0  0  0  0  0  0  0  0  0  0
   -0.6974   -4.6139    0.8644 O   0  0  0  0  0  0  0  0  0  0  0  0
    0.9518   -4.0844    2.3510 O   0  0  0  0  0  0  0  0  0  0  0  0
    0.2095  -10.4931    3.7067 Cl  0  0  0  0  0  0  0  0  0  0  0  0
   -2.2212   -9.4632    2.4102 O   0  0  0  0  0  0  0  0  0  0  0  0
   -3.1575   -9.2956    3.2076 C   0  0  0  0  0  0  0  0  0  0  0  0
   -4.1309   -9.9613    2.8393 C   0  0  0  0  0  0  0  0  0  0  0  0
   -4.0977  -10.4974    1.8304 C   0  0  0  0  0  0  0  0  0  0  0  0
   -4.5694   -9.9064    0.7390 C   0  0  0  0  0  0  0  0  0  0  0  0
   -5.4299   -8.8969    0.8598 C   0  0  0  0  0  0  0  0  0  0  0  0
   -5.7741   -8.0670   -0.2790 C   0  0  0  0  0  0  0  0  0  0  0  0
   -5.1634   -8.3482   -1.4785 C   0  0  0  0  0  0  0  0  0  0  0  0
  6  7  1  0
  7  8  2  0
  7  9  1  0
  3 10  1  0
  4 11  1  0
 11 12  1  0
 12 13  1  0
 13 14  1  0
 14 15  1  0
 15 16  1  0
 16 17  2  3
 17 18  1  0
  1  2  2  0
  2  6  1  0
  5  6  2  0
  4  5  1  0
  3  4  2  0
  1  3  1  0
M  END

$$$$
No_2009-/export/home/yangzhenyu/potential_scad_32_flow//YTHDC2/2024-12-06-03-22-00/
     RDKit          3D

 19 19  0  0  0  0  0  0  0  0999 V2000
    1.1787   -8.0297    3.5154 C   0  0  0  0  0  0  0  0  0  0  0  0
    1.1048   -9.2215    3.2892 C   0  0  0  0  0  0  0  0  0  0  0  0
    1.2339   -9.7611    2.0189 C   0  0  0  0  0  0  0  0  0  0  0  0
    1.3583   -9.0036    0.9764 C   0  0  0  0  0  0  0  0  0  0  0  0
    1.5996   -7.6362    1.1311 C   0  0  0  0  0  0  0  0  0  0  0  0
    1.4830   -7.0928    2.3626 C   0  0  0  0  0  0  0  0  0  0  0  0
    1.5395   -5.7300    2.6182 C   0  0  0  0  0  0  0  0  0  0  0  0
    1.1775  -11.2233    1.8407 C   0  0  0  0  0  0  0  0  0  0  0  0
    0.7252  -11.5870    0.5412 N   0  0  0  0  0  0  0  0  0  0  0  0
    2.3167  -11.9422    2.2228 O   0  0  0  0  0  0  0  0  0  0  0  0
    1.2713   -4.7974    1.7194 C   0  0  0  0  0  0  0  0  0  0  0  0
    1.2263   -3.3764    1.9477 C   0  0  0  0  0  0  0  0  0  0  0  0
   -0.3835  -11.1187    0.0365 C   0  0  0  0  0  0  0  0  0  0  0  0
   -1.1766  -10.3966    0.9133 C   0  0  0  0  0  0  0  0  0  0  0  0
   -1.8421   -9.3328    0.2585 C   0  0  0  0  0  0  0  0  0  0  0  0
   -2.6416   -8.4352    0.9022 O   0  0  0  0  0  0  0  0  0  0  0  0
   -1.8820   -8.9698   -1.1984 O   0  0  0  0  0  0  0  0  0  0  0  0
   -2.3989   -7.9038   -1.6044 C   0  0  0  0  0  0  0  0  0  0  0  0
   -2.2758   -7.0431   -0.9622 C   0  0  0  0  0  0  0  0  0  0  0  0
  6  7  1  0
  3  8  1  0
  8  9  1  0
  8 10  2  0
  7 11  2  3
 11 12  1  0
  9 13  2  3
 13 14  1  0
 14 15  2  3
 15 16  1  0
 15 17  1  0
 17 18  1  0
 18 19  1  0
  1  2  2  0
  2  3  1  0
  3  4  2  0
  4  5  1  0
  5  6  2  0
  1  6  1  0
M  END

$$$$
No_2010-/export/home/yangzhenyu/potential_scad_32_flow//YTHDC2/2024-12-06-03-22-00/
     RDKit          3D

 17 18  0  0  0  0  0  0  0  0999 V2000
    1.1787   -8.0297    3.5154 C   0  0  0  0  0  0  0  0  0  0  0  0
    1.0491   -6.8434    2.9820 C   0  0  0  0  0  0  0  0  0  0  0  0
    0.0950   -8.8404    3.2292 C   0  0  0  0  0  0  0  0  0  0  0  0
   -0.9173   -8.4596    2.5152 C   0  0  0  0  0  0  0  0  0  0  0  0
   -1.0331   -7.2162    2.0653 C   0  0  0  0  0  0  0  0  0  0  0  0
   -0.0105   -6.3168    2.3081 C   0  0  0  0  0  0  0  0  0  0  0  0
    0.0485   -4.9783    1.8782 C   0  0  0  0  0  0  0  0  0  0  0  0
   -0.4744   -4.1559    2.2381 C   0  0  0  0  0  0  0  0  0  0  0  0
   -0.3956   -2.6830    1.7790 C   0  0  0  0  0  0  0  0  0  0  0  0
    0.2012  -10.4491    3.7547 C   0  0  0  0  0  0  0  0  0  0  0  0
   -0.9520  -11.1415    3.5324 C   0  0  0  0  0  0  0  0  0  0  0  0
    1.2734  -10.7347    4.5119 C   0  0  0  0  0  0  0  0  0  0  0  0
    1.4479  -12.0820    4.6678 C   0  0  0  0  0  0  0  0  0  0  0  0
   -0.7889  -12.4737    3.8130 C   0  0  0  0  0  0  0  0  0  0  0  0
    0.4978  -12.9454    4.2828 C   0  0  0  0  0  0  0  0  0  0  0  0
    0.3724   -2.7097    0.5293 C   0  0  0  0  0  0  0  0  0  0  0  0
    0.9037   -3.6747   -0.0708 C   0  0  0  0  0  0  0  0  0  0  0  0
  6  7  1  0
  7  8  2  3
  8  9  1  0
  3 10  1  0
  9 16  2  3
 16 17  1  0
  1  2  2  0
  2  6  1  0
  5  6  2  0
  4  5  1  0
  3  4  2  0
  1  3  1  0
 10 11  2  0
 11 14  1  0
 14 15  2  0
 13 15  1  0
 12 13  2  0
 10 12  1  0
M  END

$$$$
No_2011-/export/home/yangzhenyu/potential_scad_32_flow//YTHDC2/2024-12-06-03-22-00/
     RDKit          3D

 19 21  0  0  0  0  0  0  0  0999 V2000
    1.1787   -8.0297    3.5154 C   0  0  0  0  0  0  0  0  0  0  0  0
    1.1048   -9.2215    3.2892 C   0  0  0  0  0  0  0  0  0  0  0  0
    1.3627  -10.1721    4.3044 C   0  0  0  0  0  0  0  0  0  0  0  0
    1.0682  -11.5187    4.0618 C   0  0  0  0  0  0  0  0  0  0  0  0
    0.6332  -11.9655    2.9682 C   0  0  0  0  0  0  0  0  0  0  0  0
    0.4776  -11.1308    1.9203 C   0  0  0  0  0  0  0  0  0  0  0  0
    0.7470   -9.8274    2.0368 C   0  0  0  0  0  0  0  0  0  0  0  0
    1.0387   -7.0301    2.5175 C   0  0  0  0  0  0  0  0  0  0  0  0
    0.9130   -7.5288    1.2013 C   0  0  0  0  0  0  0  0  0  0  0  0
    0.7893   -8.7979    0.9542 C   0  0  0  0  0  0  0  0  0  0  0  0
    0.3998  -13.3695    2.7114 C   0  0  0  0  0  0  0  0  0  0  0  0
   -0.8069  -13.8090    2.3159 C   0  0  0  0  0  0  0  0  0  0  0  0
   -1.0012  -15.1954    2.1657 N   0  0  0  0  0  0  0  0  0  0  0  0
    1.4366  -14.2898    2.5921 C   0  0  0  0  0  0  0  0  0  0  0  0
    1.2992  -15.6519    2.5601 C   0  0  0  0  0  0  0  0  0  0  0  0
    0.0769  -16.0512    2.3066 C   0  0  0  0  0  0  0  0  0  0  0  0
    0.4423   -9.2717   -0.3630 C   0  0  0  0  0  0  0  0  0  0  0  0
   -0.3284   -8.6415   -1.0434 O   0  0  0  0  0  0  0  0  0  0  0  0
    1.2000   -9.9770   -0.9942 O   0  0  0  0  0  0  0  0  0  0  0  0
  5 11  1  0
 10 17  1  0
 17 18  2  0
 17 19  1  0
  2  3  1  0
  3  4  2  0
  4  5  1  0
  5  6  2  0
  6  7  1  0
  1  2  2  0
  2  7  1  0
  7 10  2  0
  9 10  1  0
  8  9  2  0
  1  8  1  0
 11 12  2  0
 12 13  1  0
 13 16  2  0
 15 16  1  0
 14 15  2  0
 11 14  1  0
M  END

$$$$
No_2012-/export/home/yangzhenyu/potential_scad_32_flow//YTHDC2/2024-12-06-03-22-00/
     RDKit          3D

 20 21  0  0  1  0  0  0  0  0999 V2000
    1.1787   -8.0297    3.5154 C   0  0  0  0  0  0  0  0  0  0  0  0
    1.0491   -6.8434    2.9820 C   0  0  0  0  0  0  0  0  0  0  0  0
    0.0950   -8.8404    3.2292 C   0  0  0  0  0  0  0  0  0  0  0  0
   -0.9173   -8.4596    2.5152 C   0  0  0  0  0  0  0  0  0  0  0  0
   -1.0331   -7.2162    2.0653 C   0  0  0  0  0  0  0  0  0  0  0  0
   -0.0105   -6.3168    2.3081 C   0  0  0  0  0  0  0  0  0  0  0  0
    0.1150   -4.9910    1.8495 C   0  0  0  0  0  0  0  0  0  0  0  0
   -0.1376   -4.7952    0.5550 O   0  0  0  0  0  0  0  0  0  0  0  0
    1.1204   -4.1243    2.3358 O   0  0  0  0  0  0  0  0  0  0  0  0
    0.1760  -10.4720    3.7297 Cl  0  0  0  0  0  0  0  0  0  0  0  0
   -2.2605   -6.7444    1.5173 C   0  0  0  0  0  0  0  0  0  0  0  0
   -3.1280   -6.0815    2.1377 C   0  0  0  0  0  0  0  0  0  0  0  0
   -3.3627   -6.1500    3.4043 C   0  0  0  0  0  0  0  0  0  0  0  0
   -4.2127   -5.2931    4.0729 C   0  0  0  0  0  0  0  0  0  0  0  0
   -4.9254   -4.5736    3.1396 C   0  0  0  0  0  0  0  0  0  0  0  0
   -4.2408   -4.9528    1.7932 C   0  0  1  0  0  0  0  0  0  0  0  0
   -2.3512   -6.9134    0.2329 O   0  0  0  0  0  0  0  0  0  0  0  0
   -4.3785   -4.5025    0.5728 C   0  0  0  0  0  0  0  0  0  0  0  0
   -5.1579   -3.6788    0.3347 C   0  0  0  0  0  0  0  0  0  0  0  0
   -5.1721   -2.9488   -0.8554 C   0  0  0  0  0  0  0  0  0  0  0  0
  6  7  1  0
  7  8  2  0
  7  9  1  0
  3 10  1  0
  5 11  1  0
 11 12  1  0
 12 13  2  0
 13 14  1  0
 14 15  2  0
 12 16  1  0
 15 16  1  0
 11 17  2  0
 16 18  1  1
 18 19  2  3
 19 20  1  0
  1  2  2  0
  2  6  1  0
  5  6  2  0
  4  5  1  0
  3  4  2  0
  1  3  1  0
M  END

$$$$
No_2013-/export/home/yangzhenyu/potential_scad_32_flow//YTHDC2/2024-12-06-03-22-00/
     RDKit          3D

 19 21  0  0  0  0  0  0  0  0999 V2000
    1.1787   -8.0297    3.5154 N   0  0  0  0  0  0  0  0  0  0  0  0
    1.0818   -9.0751    3.2053 C   0  0  0  0  0  0  0  0  0  0  0  0
    1.5216  -10.1164    3.9747 Cl  0  0  0  0  0  0  0  0  0  0  0  0
    0.3642   -9.3280    2.0084 C   0  0  0  0  0  0  0  0  0  0  0  0
   -0.2974   -8.2003    1.4959 C   0  0  0  0  0  0  0  0  0  0  0  0
    0.0376   -6.9352    1.7871 C   0  0  0  0  0  0  0  0  0  0  0  0
    0.8938   -6.7815    2.8637 C   0  0  0  0  0  0  0  0  0  0  0  0
   -0.3291   -5.8156    1.1020 C   0  0  0  0  0  0  0  0  0  0  0  0
   -1.4677   -5.9056    0.3909 C   0  0  0  0  0  0  0  0  0  0  0  0
    0.4397   -4.5753    1.1249 C   0  0  0  0  0  0  0  0  0  0  0  0
    0.0183   -3.4823    0.5285 C   0  0  0  0  0  0  0  0  0  0  0  0
   -1.1507   -3.5694   -0.3145 C   0  0  0  0  0  0  0  0  0  0  0  0
   -1.4951   -2.4605   -1.1646 C   0  0  0  0  0  0  0  0  0  0  0  0
   -1.8814   -4.7667   -0.3286 C   0  0  0  0  0  0  0  0  0  0  0  0
   -1.3250   -1.1421   -0.7792 C   0  0  0  0  0  0  0  0  0  0  0  0
   -1.5236   -0.0510   -1.7733 C   0  0  0  0  0  0  0  0  0  0  0  0
   -1.9636   -0.3891   -2.9966 C   0  0  0  0  0  0  0  0  0  0  0  0
   -2.1332   -1.6700   -3.4108 C   0  0  0  0  0  0  0  0  0  0  0  0
   -1.8964   -2.7687   -2.5273 C   0  0  0  0  0  0  0  0  0  0  0  0
  2  3  1  0
  6  8  1  0
 12 13  1  0
  8  9  2  0
  9 14  1  0
 12 14  2  0
 11 12  1  0
 10 11  2  0
  8 10  1  0
 13 15  2  0
 15 16  1  0
 16 17  2  0
 17 18  1  0
 18 19  2  0
 13 19  1  0
  1  2  2  0
  2  4  1  0
  4  5  2  0
  5  6  1  0
  6  7  2  0
  1  7  1  0
M  END

$$$$
No_2014-/export/home/yangzhenyu/potential_scad_32_flow//YTHDC2/2024-12-06-03-22-00/
     RDKit          3D

 17 19  0  0  1  0  0  0  0  0999 V2000
    1.1787   -8.0297    3.5154 C   0  0  0  0  0  0  0  0  0  0  0  0
    1.1048   -9.2215    3.2892 C   0  0  0  0  0  0  0  0  0  0  0  0
    1.3627  -10.1721    4.3044 C   0  0  0  0  0  0  0  0  0  0  0  0
    1.7354  -11.4730    3.9023 C   0  0  0  0  0  0  0  0  0  0  0  0
    1.8080  -11.8127    2.7216 C   0  0  0  0  0  0  0  0  0  0  0  0
    1.5854  -11.0021    1.7249 C   0  0  0  0  0  0  0  0  0  0  0  0
    1.3573   -9.7389    1.9287 C   0  0  0  0  0  0  0  0  0  0  0  0
    1.1102   -8.8712    0.9017 C   0  0  0  0  0  0  0  0  0  0  0  0
    0.5299   -7.6926    1.0325 C   0  0  0  0  0  0  0  0  0  0  0  0
    0.7526   -7.0802    2.3301 C   0  0  0  0  0  0  0  0  0  0  0  0
    2.0515  -13.2522    2.4284 C   0  0  0  0  0  0  0  0  0  0  0  0
    1.1057  -14.0132    1.8338 C   0  0  0  0  0  0  0  0  0  0  0  0
    0.8014  -15.0409    2.4765 C   0  0  2  0  0  0  0  0  0  0  0  0
    1.5563  -15.9474    3.0328 C   0  0  0  0  0  0  0  0  0  0  0  0
    1.0972  -17.1117    3.7250 N   0  0  0  0  0  0  0  0  0  0  0  0
    0.0619  -17.5633    3.2334 C   0  0  0  0  0  0  0  0  0  0  0  0
   -0.4411  -16.3000    2.4047 C   0  0  0  0  0  0  0  0  0  0  0  0
  5 11  1  0
 11 12  1  0
 13 12  1  6
 13 14  1  0
 14 15  1  0
 15 16  2  0
 13 17  1  0
 16 17  1  0
  1  2  2  0
  7  8  2  0
  8  9  1  0
  9 10  2  0
  1 10  1  0
  2  3  1  0
  3  4  2  0
  4  5  1  0
  5  6  2  0
  6  7  1  0
  2  7  1  0
M  END

$$$$
No_2015-/export/home/yangzhenyu/potential_scad_32_flow//YTHDC2/2024-12-06-03-22-00/
     RDKit          3D

 19 21  0  0  0  0  0  0  0  0999 V2000
    1.1787   -8.0297    3.5154 C   0  0  0  0  0  0  0  0  0  0  0  0
    1.0491   -6.8434    2.9820 C   0  0  0  0  0  0  0  0  0  0  0  0
    0.0950   -8.8404    3.2292 C   0  0  0  0  0  0  0  0  0  0  0  0
    0.0602  -10.1764    3.8231 C   0  0  0  0  0  0  0  0  0  0  0  0
    0.2248   -6.3830    2.0648 C   0  0  0  0  0  0  0  0  0  0  0  0
   -0.6745   -7.2322    1.6857 C   0  0  0  0  0  0  0  0  0  0  0  0
   -0.7374   -8.4992    2.1291 C   0  0  0  0  0  0  0  0  0  0  0  0
    1.0517  -10.8728    4.0967 C   0  0  0  0  0  0  0  0  0  0  0  0
    0.8765  -12.2762    4.4635 C   0  0  0  0  0  0  0  0  0  0  0  0
    0.6277  -12.9704    3.4124 C   0  0  0  0  0  0  0  0  0  0  0  0
    0.3171  -12.7410    2.3978 C   0  0  0  0  0  0  0  0  0  0  0  0
    0.3218  -13.2679    1.4303 C   0  0  0  0  0  0  0  0  0  0  0  0
   -0.1306  -12.7474    0.0827 C   0  0  0  0  0  0  0  0  0  0  0  0
   -0.7158  -11.4798    0.2754 C   0  0  0  0  0  0  0  0  0  0  0  0
   -0.8677  -10.9045    1.4018 C   0  0  0  0  0  0  0  0  0  0  0  0
   -1.7146   -9.6778    1.1669 C   0  0  0  0  0  0  0  0  0  0  0  0
   -2.2103  -10.0429   -0.0669 C   0  0  0  0  0  0  0  0  0  0  0  0
   -1.4554  -11.0421   -0.7810 N   0  0  0  0  0  0  0  0  0  0  0  0
   -0.5024  -11.4072    2.3053 N   0  0  0  0  0  0  0  0  0  0  0  0
  3  4  1  0
  4  8  2  3
  8  9  1  0
  9 10  2  3
 10 11  1  0
 15 16  1  0
 16 17  2  0
 14 18  1  0
 17 18  1  0
 11 12  2  0
 12 13  1  0
 13 14  2  0
 14 15  1  0
 15 19  2  0
 11 19  1  0
  1  2  2  0
  2  5  1  0
  5  6  2  0
  6  7  1  0
  3  7  2  0
  1  3  1  0
M  END

$$$$
No_2016-/export/home/yangzhenyu/potential_scad_32_flow//YTHDC2/2024-12-06-03-22-00/
     RDKit          3D

 20 21  0  0  1  0  0  0  0  0999 V2000
    1.1787   -8.0297    3.5154 I   0  0  0  0  0  0  0  0  0  0  0  0
    0.4528   -9.3028    2.7351 C   0  0  0  0  0  0  0  0  0  0  0  0
   -0.3807   -9.4304    1.9900 C   0  0  0  0  0  0  0  0  0  0  0  0
   -0.8557  -10.6785    1.5058 C   0  0  0  0  0  0  0  0  0  0  0  0
   -0.2964  -11.8444    1.9810 C   0  0  0  0  0  0  0  0  0  0  0  0
    0.8145  -11.7970    2.8220 C   0  0  0  0  0  0  0  0  0  0  0  0
    1.1739  -10.5510    3.3221 C   0  0  0  0  0  0  0  0  0  0  0  0
    2.3662  -10.5870    4.0424 C   0  0  0  0  0  0  0  0  0  0  0  0
    2.5958  -11.4836    5.2347 O   0  0  0  0  0  0  0  0  0  0  0  0
   -0.7363  -13.0896    1.4493 C   0  0  1  0  0  0  0  0  0  0  0  0
    0.1212  -13.9901    0.9734 C   0  0  0  0  0  0  0  0  0  0  0  0
   -0.3103  -15.1354    0.3586 C   0  0  0  0  0  0  0  0  0  0  0  0
   -1.5876  -15.5492    0.3687 C   0  0  0  0  0  0  0  0  0  0  0  0
   -2.4812  -14.7974    1.0282 C   0  0  0  0  0  0  0  0  0  0  0  0
   -2.0402  -13.5537    1.6289 C   0  0  0  0  0  0  0  0  0  0  0  0
   -2.9551  -12.7883    2.3794 O   0  0  0  0  0  0  0  0  0  0  0  0
   -1.1073   -8.3257    1.4536 C   0  0  0  0  0  0  0  0  0  0  0  0
   -2.2137   -7.9198    2.1655 O   0  0  0  0  0  0  0  0  0  0  0  0
   -0.7171   -7.6459    0.5912 N   0  0  0  0  0  0  0  0  0  0  0  0
    0.3671   -7.9932   -0.2520 C   0  0  0  0  0  0  0  0  0  0  0  0
  1  2  1  0
  7  8  1  0
  8  9  1  0
 10  5  1  1
 10 11  1  0
 12 13  1  0
 10 15  1  0
 14 15  1  0
 15 16  2  0
  3 17  1  0
 17 18  2  0
 17 19  1  0
 19 20  1  0
 11 12  1  0
 13 14  1  0
  2  3  2  0
  3  4  1  0
  4  5  2  0
  5  6  1  0
  6  7  2  0
  2  7  1  0
M  END

$$$$
No_2017-/export/home/yangzhenyu/potential_scad_32_flow//YTHDC2/2024-12-06-03-22-00/
     RDKit          3D

 12 12  0  0  0  0  0  0  0  0999 V2000
    1.1787   -8.0297    3.5154 C   0  0  0  0  0  0  0  0  0  0  0  0
    1.1048   -9.2215    3.2892 C   0  0  0  0  0  0  0  0  0  0  0  0
    1.2339   -9.7611    2.0189 C   0  0  0  0  0  0  0  0  0  0  0  0
    1.3583   -9.0036    0.9764 C   0  0  0  0  0  0  0  0  0  0  0  0
    1.5996   -7.6362    1.1311 C   0  0  0  0  0  0  0  0  0  0  0  0
    1.4830   -7.0928    2.3626 C   0  0  0  0  0  0  0  0  0  0  0  0
    1.1171  -11.3311    1.8661 C   0  0  0  0  0  0  0  0  0  0  0  0
    0.5042  -11.9974    2.3631 C   0  0  0  0  0  0  0  0  0  0  0  0
    0.4547  -13.3874    2.1599 C   0  0  0  0  0  0  0  0  0  0  0  0
   -0.5486  -14.0819    1.9701 C   0  0  0  0  0  0  0  0  0  0  0  0
   -1.8364  -13.6005    2.3038 C   0  0  0  0  0  0  0  0  0  0  0  0
   -1.9278  -12.2110    2.5792 C   0  0  0  0  0  0  0  0  0  0  0  0
  3  7  1  0
  7  8  2  3
  8  9  1  0
  9 10  2  3
 10 11  1  0
 11 12  2  0
  1  2  2  0
  2  3  1  0
  3  4  2  0
  4  5  1  0
  5  6  2  0
  1  6  1  0
M  END

$$$$
No_2018-/export/home/yangzhenyu/potential_scad_32_flow//YTHDC2/2024-12-06-03-22-00/
     RDKit          3D

 19 20  0  0  1  0  0  0  0  0999 V2000
    1.1787   -8.0297    3.5154 N   0  0  0  0  0  0  0  0  0  0  0  0
    0.8669   -7.0905    2.8589 C   0  0  0  0  0  0  0  0  0  0  0  0
    1.0447   -7.3244    1.4123 C   0  0  0  0  0  0  0  0  0  0  0  0
    1.3942   -8.6358    1.3800 C   0  0  2  0  0  0  0  0  0  0  0  0
    1.6848   -9.0179    2.6581 C   0  0  0  0  0  0  0  0  0  0  0  0
    1.8045   -9.2021    0.0928 C   0  0  0  0  0  0  0  0  0  0  0  0
    2.2998   -8.4374   -0.8850 O   0  0  0  0  0  0  0  0  0  0  0  0
    1.6079  -10.4013   -0.1103 O   0  0  0  0  0  0  0  0  0  0  0  0
    2.0533  -10.3580    3.0245 C   0  0  0  0  0  0  0  0  0  0  0  0
    1.1365  -11.2030    3.7528 C   0  0  0  0  0  0  0  0  0  0  0  0
    0.2904  -11.9092    2.8794 C   0  0  0  0  0  0  0  0  0  0  0  0
   -1.0459  -11.7571    2.8832 C   0  0  0  0  0  0  0  0  0  0  0  0
   -1.9216  -12.5460    2.3400 C   0  0  0  0  0  0  0  0  0  0  0  0
   -1.4104  -13.6865    1.7421 C   0  0  0  0  0  0  0  0  0  0  0  0
   -0.0743  -13.9488    1.5970 C   0  0  0  0  0  0  0  0  0  0  0  0
    0.8683  -13.1232    2.1693 C   0  0  0  0  0  0  0  0  0  0  0  0
    2.1523  -13.3783    2.2477 C   0  0  0  0  0  0  0  0  0  0  0  0
    2.4465  -14.7681    1.8503 I   0  0  0  0  0  0  0  0  0  0  0  0
   -3.2701  -12.1684    2.2159 C   0  0  0  0  0  0  0  0  0  0  0  0
  1  2  1  0
  2  3  2  0
  3  4  1  0
  1  5  2  0
  4  5  1  0
  4  6  1  6
  6  7  2  0
  6  8  1  0
  5  9  1  0
  9 10  1  0
 10 11  1  0
 16 17  1  0
 17 18  1  0
 13 19  1  0
 11 12  2  0
 12 13  1  0
 13 14  2  0
 14 15  1  0
 15 16  2  0
 11 16  1  0
M  END

$$$$
No_2019-/export/home/yangzhenyu/potential_scad_32_flow//YTHDC2/2024-12-06-03-22-00/
     RDKit          3D

 18 18  0  0  1  0  0  0  0  0999 V2000
    1.1787   -8.0297    3.5154 C   0  0  0  0  0  0  0  0  0  0  0  0
    1.0491   -6.8434    2.9820 C   0  0  0  0  0  0  0  0  0  0  0  0
    1.9985   -8.9840    2.8958 C   0  0  0  0  0  0  0  0  0  0  0  0
    1.1814  -10.1889    2.5497 C   0  0  0  0  0  0  0  0  0  0  0  0
    0.9817  -11.1388    2.8133 C   0  0  1  0  0  0  0  0  0  0  0  0
    1.6854  -11.5768    4.1035 C   0  0  0  0  0  0  0  0  0  0  0  0
    0.2240   -6.7837    1.8683 O   0  0  0  0  0  0  0  0  0  0  0  0
    1.6913   -5.7275    3.2471 O   0  0  0  0  0  0  0  0  0  0  0  0
    0.2243  -12.1411    2.4391 C   0  0  0  0  0  0  0  0  0  0  0  0
    0.4916  -13.4859    2.7414 C   0  0  0  0  0  0  0  0  0  0  0  0
   -0.4007  -14.4567    2.7190 C   0  0  0  0  0  0  0  0  0  0  0  0
    0.0392  -15.8198    3.0998 C   0  0  0  0  0  0  0  0  0  0  0  0
    0.7758   -9.8632    1.0798 O   0  0  0  0  0  0  0  0  0  0  0  0
   -0.7396  -16.8245    3.3390 C   0  0  0  0  0  0  0  0  0  0  0  0
   -2.0139  -16.7541    2.9389 C   0  0  0  0  0  0  0  0  0  0  0  0
   -2.5488  -15.5610    2.5448 C   0  0  0  0  0  0  0  0  0  0  0  0
   -1.6988  -14.4586    2.4345 C   0  0  0  0  0  0  0  0  0  0  0  0
   -0.1827  -18.1435    3.7119 O   0  0  0  0  0  0  0  0  0  0  0  0
  1  2  1  0
  1  3  1  0
  3  4  1  0
  4  5  1  0
  5  6  1  1
  2  7  2  0
  2  8  1  0
  5  9  1  0
  9 10  1  0
  4 13  2  0
 14 18  1  0
 10 11  1  0
 11 12  2  0
 12 14  1  0
 14 15  2  0
 15 16  1  0
 16 17  2  0
 11 17  1  0
M  END

$$$$
No_2020-/export/home/yangzhenyu/potential_scad_32_flow//YTHDC2/2024-12-06-03-22-00/
     RDKit          3D

 19 19  0  0  1  0  0  0  0  0999 V2000
    1.1787   -8.0297    3.5154 C   0  0  0  0  0  0  0  0  0  0  0  0
    1.0491   -6.8434    2.9820 C   0  0  0  0  0  0  0  0  0  0  0  0
    1.9985   -8.9840    2.8958 C   0  0  0  0  0  0  0  0  0  0  0  0
    1.9135  -10.3404    3.6266 C   0  0  2  0  0  0  0  0  0  0  0  0
    2.2847  -10.5440    4.7936 C   0  0  0  0  0  0  0  0  0  0  0  0
    0.3304   -6.7696    1.8077 O   0  0  0  0  0  0  0  0  0  0  0  0
    1.3758   -5.6999    3.5077 O   0  0  0  0  0  0  0  0  0  0  0  0
    1.6488  -11.4196    2.7729 C   0  0  1  0  0  0  0  0  0  0  0  0
    1.6044  -12.6786    3.4137 C   0  0  0  0  0  0  0  0  0  0  0  0
    1.8845  -13.8068    2.6051 C   0  0  0  0  0  0  0  0  0  0  0  0
    1.4054  -15.0360    3.0203 C   0  0  0  0  0  0  0  0  0  0  0  0
    1.8005  -16.3154    2.5383 C   0  0  0  0  0  0  0  0  0  0  0  0
    1.4488  -17.4587    2.8233 C   0  0  0  0  0  0  0  0  0  0  0  0
    0.4715  -17.6325    3.7244 C   0  0  0  0  0  0  0  0  0  0  0  0
   -0.0566  -16.4029    4.3314 C   0  0  0  0  0  0  0  0  0  0  0  0
    0.4416  -15.1786    4.0068 C   0  0  0  0  0  0  0  0  0  0  0  0
    1.3657  -11.2530    1.5410 C   0  0  0  0  0  0  0  0  0  0  0  0
    0.2238  -11.3404    0.8437 O   0  0  0  0  0  0  0  0  0  0  0  0
    2.4374  -11.3866    0.6032 O   0  0  0  0  0  0  0  0  0  0  0  0
  1  2  1  0
  1  3  1  0
  3  4  1  0
  4  5  1  6
  2  6  2  0
  2  7  1  0
  4  8  1  0
  8  9  1  1
  9 10  1  0
 10 11  1  0
  8 17  1  0
 17 18  2  0
 17 19  1  0
 11 12  2  0
 12 13  1  0
 13 14  2  0
 14 15  1  0
 15 16  2  0
 11 16  1  0
M  END

$$$$
No_2021-/export/home/yangzhenyu/potential_scad_32_flow//YTHDC2/2024-12-06-03-22-00/
     RDKit          3D

 18 18  0  0  1  0  0  0  0  0999 V2000
    1.1787   -8.0297    3.5154 C   0  0  0  0  0  0  0  0  0  0  0  0
    1.1048   -9.2215    3.2892 C   0  0  0  0  0  0  0  0  0  0  0  0
    1.2339   -9.7611    2.0189 C   0  0  0  0  0  0  0  0  0  0  0  0
    1.1954  -11.2312    1.8661 C   0  0  2  0  0  0  0  0  0  0  0  0
    1.5546  -12.1691    2.7931 N   0  0  0  0  0  0  0  0  0  0  0  0
    0.9376   -7.0436    2.3638 C   0  0  0  0  0  0  0  0  0  0  0  0
    1.0466   -7.6153    1.0744 F   0  0  0  0  0  0  0  0  0  0  0  0
    0.9895   -5.7422    2.5019 N   0  0  0  0  0  0  0  0  0  0  0  0
    1.5025  -13.4225    2.5023 C   0  0  1  0  0  0  0  0  0  0  0  0
    1.1283  -13.8868    1.2944 C   0  0  0  0  0  0  0  0  0  0  0  0
    0.8643  -13.0891    0.2964 C   0  0  0  0  0  0  0  0  0  0  0  0
    0.8999  -11.7005    0.5893 C   0  0  0  0  0  0  0  0  0  0  0  0
    0.9084   -4.8877    1.4480 C   0  0  2  0  0  0  0  0  0  0  0  0
    1.4830   -3.5768    1.6050 C   0  0  0  0  0  0  0  0  0  0  0  0
    0.5443  -10.8047   -0.4170 O   0  0  0  0  0  0  0  0  0  0  0  0
    1.9715  -14.2790    3.5039 C   0  0  0  0  0  0  0  0  0  0  0  0
   -0.1110   -4.9169    0.6233 C   0  0  0  0  0  0  0  0  0  0  0  0
   -1.1613   -5.8560    0.9305 C   0  0  0  0  0  0  0  0  0  0  0  0
  1  2  1  0
  2  3  2  3
  3  4  1  0
  4  5  1  6
  1  6  2  3
  6  7  1  0
  6  8  1  0
  9 10  1  0
  4 12  1  0
 11 12  1  0
  8 13  1  0
 13 14  1  1
 12 15  2  0
  9 16  1  6
 13 17  1  0
 17 18  1  0
  5  9  1  0
 10 11  1  0
M  END

$$$$
No_2022-/export/home/yangzhenyu/potential_scad_32_flow//YTHDC2/2024-12-06-03-22-00/
     RDKit          3D

 20 21  0  0  1  0  0  0  0  0999 V2000
    1.1787   -8.0297    3.5154 O   0  0  0  0  0  0  0  0  0  0  0  0
    0.9969   -8.9689    3.0048 C   0  0  1  0  0  0  0  0  0  0  0  0
    0.9976   -8.9567    1.6341 C   0  0  2  0  0  0  0  0  0  0  0  0
    1.6062   -9.9071    0.9292 C   0  0  0  0  0  0  0  0  0  0  0  0
    2.1191  -10.9757    1.6503 C   0  0  0  0  0  0  0  0  0  0  0  0
    2.1177  -10.9891    3.0403 C   0  0  1  0  0  0  0  0  0  0  0  0
    1.5441   -9.8905    3.6897 C   0  0  0  0  0  0  0  0  0  0  0  0
    0.5010   -7.8165    1.0436 C   0  0  0  0  0  0  0  0  0  0  0  0
   -0.3627   -7.9721    0.1048 O   0  0  0  0  0  0  0  0  0  0  0  0
    0.5009   -6.5330    1.4237 O   0  0  0  0  0  0  0  0  0  0  0  0
    1.6448  -10.1369    5.0164 O   0  0  0  0  0  0  0  0  0  0  0  0
    2.6123  -12.1897    3.5650 O   0  0  0  0  0  0  0  0  0  0  0  0
    1.8011   -5.7317    1.3991 C   0  0  0  0  0  0  0  0  0  0  0  0
    1.5921   -4.5894    2.3389 C   0  0  1  0  0  0  0  0  0  0  0  0
    1.6228   -4.7771    3.6287 C   0  0  0  0  0  0  0  0  0  0  0  0
    1.2045   -3.6815    4.2821 O   0  0  0  0  0  0  0  0  0  0  0  0
    1.5588   -3.2724    1.8981 C   0  0  0  0  0  0  0  0  0  0  0  0
    1.0920   -2.2866    2.6002 C   0  0  0  0  0  0  0  0  0  0  0  0
    1.4391   -2.3895    3.9268 C   0  0  0  0  0  0  0  0  0  0  0  0
    1.3147   -3.1708    0.4358 O   0  0  0  0  0  0  0  0  0  0  0  0
  2  1  1  1
  2  3  1  0
  4  5  1  0
  2  7  1  0
  6  7  1  0
  3  8  1  1
  8  9  2  0
  8 10  1  0
  7 11  2  0
  6 12  1  6
 10 13  1  0
 14 13  1  6
 14 15  1  0
 15 16  1  0
 14 17  1  0
 17 18  1  0
 16 19  1  0
 18 19  1  0
 17 20  2  0
  3  4  1  0
  5  6  1  0
M  END

$$$$
No_2023-/export/home/yangzhenyu/potential_scad_32_flow//YTHDC2/2024-12-06-03-22-00/
     RDKit          3D

 20 20  0  0  1  0  0  0  0  0999 V2000
    1.1787   -8.0297    3.5154 C   0  0  0  0  0  0  0  0  0  0  0  0
    1.0491   -6.8434    2.9820 F   0  0  0  0  0  0  0  0  0  0  0  0
    0.0305   -8.5911    3.7360 C   0  0  0  0  0  0  0  0  0  0  0  0
   -0.5515   -9.2603    2.9486 C   0  0  0  0  0  0  0  0  0  0  0  0
   -1.7504   -9.0690    2.6713 C   0  0  0  0  0  0  0  0  0  0  0  0
   -2.3728   -9.7468    1.8073 C   0  0  0  0  0  0  0  0  0  0  0  0
   -1.2680  -10.7613    1.4403 N   0  0  0  0  0  0  0  0  0  0  0  0
   -0.2529  -10.3482    2.1699 C   0  0  0  0  0  0  0  0  0  0  0  0
    0.9757  -11.0139    2.1321 C   0  0  1  0  0  0  0  0  0  0  0  0
    2.0303  -10.5779    1.7663 C   0  0  0  0  0  0  0  0  0  0  0  0
    2.0969   -9.7969    0.6235 C   0  0  0  0  0  0  0  0  0  0  0  0
    1.6503   -9.0259    0.1260 O   0  0  0  0  0  0  0  0  0  0  0  0
    3.3008   -9.7454   -0.1630 O   0  0  0  0  0  0  0  0  0  0  0  0
    1.0320  -12.3410    2.7174 C   0  0  0  0  0  0  0  0  0  0  0  0
    0.0380  -12.8894    3.3492 C   0  0  0  0  0  0  0  0  0  0  0  0
    2.1339  -13.1180    2.6256 O   0  0  0  0  0  0  0  0  0  0  0  0
   -1.5091  -11.8132    0.5755 C   0  0  0  0  0  0  0  0  0  0  0  0
   -0.8571  -11.8729   -0.5464 O   0  0  0  0  0  0  0  0  0  0  0  0
   -2.3846  -12.7537    0.7188 C   0  0  0  0  0  0  0  0  0  0  0  0
   -2.1769  -13.9884    0.4182 C   0  0  0  0  0  0  0  0  0  0  0  0
  1  2  1  0
  1  3  1  0
  3  4  1  0
  4  5  1  0
  5  6  2  0
  6  7  1  0
  4  8  1  0
  7  8  1  0
  8  9  1  0
  9 10  1  1
 10 11  1  0
 11 12  1  0
 11 13  2  0
  9 14  1  0
 14 15  1  0
 14 16  2  0
  7 17  1  0
 17 18  2  0
 17 19  1  0
 19 20  1  0
M  END

$$$$
No_2024-/export/home/yangzhenyu/potential_scad_32_flow//YTHDC2/2024-12-06-03-22-00/
     RDKit          3D

 17 18  0  0  0  0  0  0  0  0999 V2000
    1.1787   -8.0297    3.5154 C   0  0  0  0  0  0  0  0  0  0  0  0
    1.1048   -9.2215    3.2892 C   0  0  0  0  0  0  0  0  0  0  0  0
    1.2339   -9.7611    2.0189 C   0  0  0  0  0  0  0  0  0  0  0  0
    1.3583   -9.0036    0.9764 C   0  0  0  0  0  0  0  0  0  0  0  0
    1.5996   -7.6362    1.1311 C   0  0  0  0  0  0  0  0  0  0  0  0
    1.4830   -7.0928    2.3626 C   0  0  0  0  0  0  0  0  0  0  0  0
    1.1008  -11.2372    1.8542 C   0  0  0  0  0  0  0  0  0  0  0  0
    0.5178  -11.9759    2.3445 C   0  0  0  0  0  0  0  0  0  0  0  0
    0.4575  -13.3705    2.1281 C   0  0  0  0  0  0  0  0  0  0  0  0
    1.1632  -14.1013    2.0451 C   0  0  0  0  0  0  0  0  0  0  0  0
    1.0401  -15.5542    1.9840 C   0  0  0  0  0  0  0  0  0  0  0  0
   -0.1527  -16.0372    1.9519 C   0  0  0  0  0  0  0  0  0  0  0  0
   -1.1929  -15.2536    2.0893 C   0  0  0  0  0  0  0  0  0  0  0  0
   -1.0069  -13.8556    2.3031 C   0  0  0  0  0  0  0  0  0  0  0  0
   -2.5121  -15.7624    2.4696 C   0  0  0  0  0  0  0  0  0  0  0  0
   -2.6486  -16.8056    3.2209 C   0  0  0  0  0  0  0  0  0  0  0  0
   -3.9379  -17.2042    3.5716 C   0  0  0  0  0  0  0  0  0  0  0  0
  3  7  1  0
  7  8  2  3
  8  9  1  0
 13 15  1  0
 15 16  2  3
 16 17  1  0
  1  2  2  0
  2  3  1  0
  3  4  2  0
  4  5  1  0
  5  6  2  0
  1  6  1  0
  9 10  2  0
 10 11  1  0
 11 12  2  0
 12 13  1  0
 13 14  2  0
  9 14  1  0
M  END

$$$$
No_2025-/export/home/yangzhenyu/potential_scad_32_flow//YTHDC2/2024-12-06-03-22-00/
     RDKit          3D

 18 19  0  0  1  0  0  0  0  0999 V2000
    1.1787   -8.0297    3.5154 C   0  0  0  0  0  0  0  0  0  0  0  0
    1.0491   -6.8434    2.9820 C   0  0  2  0  0  0  0  0  0  0  0  0
    0.9905   -9.0774    2.6527 C   0  0  0  0  0  0  0  0  0  0  0  0
    1.1655  -10.4663    3.1286 C   0  0  0  0  0  0  0  0  0  0  0  0
    1.2197  -11.4898    2.5831 C   0  0  0  0  0  0  0  0  0  0  0  0
    1.0589  -11.4458    1.1293 C   0  0  0  0  0  0  0  0  0  0  0  0
    0.9638  -10.3069    0.4651 C   0  0  0  0  0  0  0  0  0  0  0  0
    0.9191   -9.0789    1.1942 C   0  0  0  0  0  0  0  0  0  0  0  0
    0.9198   -7.8339    0.6158 C   0  0  0  0  0  0  0  0  0  0  0  0
    1.0184   -6.6904    1.4953 C   0  0  0  0  0  0  0  0  0  0  0  0
    1.3450  -12.8153    3.0809 C   0  0  0  0  0  0  0  0  0  0  0  0
    2.4576  -13.4521    3.0985 O   0  0  0  0  0  0  0  0  0  0  0  0
    0.2511  -13.4536    3.4391 O   0  0  0  0  0  0  0  0  0  0  0  0
    0.9160   -7.6474   -0.5879 O   0  0  0  0  0  0  0  0  0  0  0  0
    1.3020   -5.6051    3.6432 Cl  0  0  0  0  0  0  0  0  0  0  0  0
    1.3302  -10.5100    4.6076 O   0  0  0  0  0  0  0  0  0  0  0  0
    1.0316   -5.4581    0.8860 O   0  0  0  0  0  0  0  0  0  0  0  0
   -0.1213   -4.7015    0.8086 C   0  0  0  0  0  0  0  0  0  0  0  0
  1  2  1  0
  8  9  1  0
  9 10  1  0
  5 11  1  0
 11 12  1  0
 11 13  2  0
  9 14  2  0
  2 15  1  6
  4 16  1  0
 10 17  1  0
 17 18  1  0
  1  3  1  0
  2 10  1  0
  3  4  2  0
  4  5  1  0
  5  6  2  0
  6  7  1  0
  7  8  2  0
  3  8  1  0
M  END

$$$$
No_2026-/export/home/yangzhenyu/potential_scad_32_flow//YTHDC2/2024-12-06-03-22-00/
     RDKit          3D

 20 21  0  0  1  0  0  0  0  0999 V2000
    1.1787   -8.0297    3.5154 C   0  0  0  0  0  0  0  0  0  0  0  0
    1.0491   -6.8434    2.9820 C   0  0  0  0  0  0  0  0  0  0  0  0
    1.0690   -9.1150    2.7206 C   0  0  0  0  0  0  0  0  0  0  0  0
    0.9922   -6.9198    1.5405 C   0  0  0  0  0  0  0  0  0  0  0  0
    1.0882   -9.1996    1.4643 C   0  0  0  0  0  0  0  0  0  0  0  0
    1.0023   -8.0062    0.7959 C   0  0  0  0  0  0  0  0  0  0  0  0
    1.2376  -10.5054    3.4969 C   0  0  2  0  0  0  0  0  0  0  0  0
    0.2059  -11.3139    3.5297 C   0  0  2  0  0  0  0  0  0  0  0  0
    0.1460  -12.0969    2.5296 C   0  0  0  0  0  0  0  0  0  0  0  0
   -1.0141  -13.0068    2.5103 C   0  0  0  0  0  0  0  0  0  0  0  0
   -2.2737  -12.4240    2.7459 C   0  0  0  0  0  0  0  0  0  0  0  0
   -2.1877  -11.3857    3.8518 C   0  0  0  0  0  0  0  0  0  0  0  0
   -1.0015  -10.7166    4.0386 C   0  0  0  0  0  0  0  0  0  0  0  0
    2.3736  -10.7738    4.1475 C   0  0  0  0  0  0  0  0  0  0  0  0
    1.0013   -5.5798    0.8685 O   0  0  0  0  0  0  0  0  0  0  0  0
   -3.4082  -11.0018    4.4448 O   0  0  0  0  0  0  0  0  0  0  0  0
    0.5350   -4.4376    1.5371 C   0  0  0  0  0  0  0  0  0  0  0  0
   -1.0292   -9.6700    5.0268 O   0  0  0  0  0  0  0  0  0  0  0  0
   -0.8037   -4.2075    1.4421 C   0  0  0  0  0  0  0  0  0  0  0  0
   -1.3320   -3.2190    2.0801 C   0  0  0  0  0  0  0  0  0  0  0  0
  3  7  1  0
  7  8  1  0
  9 10  1  0
 11 12  1  0
  8 13  1  0
 12 13  1  0
  7 14  1  1
  4 15  1  0
 12 16  2  0
 15 17  1  0
 13 18  2  0
 17 19  1  0
 19 20  2  0
  8  9  1  6
 10 11  1  0
  1  2  2  0
  2  4  1  0
  4  6  2  0
  5  6  1  0
  3  5  2  0
  1  3  1  0
M  END

$$$$
No_2027-/export/home/yangzhenyu/potential_scad_32_flow//YTHDC2/2024-12-06-03-22-00/
     RDKit          3D

 17 17  0  0  0  0  0  0  0  0999 V2000
    1.1787   -8.0297    3.5154 C   0  0  0  0  0  0  0  0  0  0  0  0
    1.1048   -9.2215    3.2892 C   0  0  0  0  0  0  0  0  0  0  0  0
    1.2339   -9.7611    2.0189 C   0  0  0  0  0  0  0  0  0  0  0  0
    1.3583   -9.0036    0.9764 C   0  0  0  0  0  0  0  0  0  0  0  0
    1.5996   -7.6362    1.1311 C   0  0  0  0  0  0  0  0  0  0  0  0
    1.4830   -7.0928    2.3626 C   0  0  0  0  0  0  0  0  0  0  0  0
    1.2249  -11.3952    1.9460 C   0  0  0  0  0  0  0  0  0  0  0  0
    1.8037  -12.0490    2.8716 C   0  0  0  0  0  0  0  0  0  0  0  0
    1.7933  -11.8781    3.9412 C   0  0  0  0  0  0  0  0  0  0  0  0
    2.1323  -13.4788    2.3633 C   0  0  0  0  0  0  0  0  0  0  0  0
    2.1850  -13.7770    1.0665 C   0  0  0  0  0  0  0  0  0  0  0  0
    1.4565   -5.4958    2.6253 C   0  0  0  0  0  0  0  0  0  0  0  0
    2.4007  -14.3921    3.2931 O   0  0  0  0  0  0  0  0  0  0  0  0
    1.1047   -4.7760    1.5863 O   0  0  0  0  0  0  0  0  0  0  0  0
    1.5345   -5.0480    3.8041 O   0  0  0  0  0  0  0  0  0  0  0  0
    1.6993   -9.5135   -0.2649 C   0  0  0  0  0  0  0  0  0  0  0  0
    1.1959  -10.4975   -0.7155 O   0  0  0  0  0  0  0  0  0  0  0  0
  3  7  1  0
  7  8  1  0
  8  9  2  0
  8 10  1  0
 10 11  1  0
  6 12  1  0
 10 13  2  0
 12 14  2  0
 12 15  1  0
  4 16  1  0
 16 17  2  0
  1  2  2  0
  2  3  1  0
  3  4  2  0
  4  5  1  0
  5  6  2  0
  1  6  1  0
M  END

$$$$
No_2028-/export/home/yangzhenyu/potential_scad_32_flow//YTHDC2/2024-12-06-03-22-00/
     RDKit          3D

 17 17  0  0  0  0  0  0  0  0999 V2000
    1.1787   -8.0297    3.5154 C   0  0  0  0  0  0  0  0  0  0  0  0
    1.1048   -9.2215    3.2892 C   0  0  0  0  0  0  0  0  0  0  0  0
    1.2339   -9.7611    2.0189 C   0  0  0  0  0  0  0  0  0  0  0  0
    1.3583   -9.0036    0.9764 C   0  0  0  0  0  0  0  0  0  0  0  0
    1.7077   -9.6100   -0.3010 C   0  0  0  0  0  0  0  0  0  0  0  0
    1.3637   -7.1087    2.3226 C   0  0  0  0  0  0  0  0  0  0  0  0
    1.4257   -7.6645    1.0231 C   0  0  0  0  0  0  0  0  0  0  0  0
    1.9364   -8.8976   -1.3212 O   0  0  0  0  0  0  0  0  0  0  0  0
    1.5810  -10.8409   -0.4184 O   0  0  0  0  0  0  0  0  0  0  0  0
    1.3320   -5.4489    2.5095 P   0  0  0  0  0  0  0  0  0  0  0  0
   -0.0671   -4.9129    2.3349 O   0  0  0  0  0  0  0  0  0  0  0  0
    1.7972   -5.3739    3.9418 O   0  0  0  0  0  0  0  0  0  0  0  0
    2.1422   -4.7790    1.5624 O   0  0  0  0  0  0  0  0  0  0  0  0
    1.0304  -10.3765    4.5712 Cl  0  0  0  0  0  0  0  0  0  0  0  0
    1.2999  -11.1818    1.9847 C   0  0  0  0  0  0  0  0  0  0  0  0
    2.5349  -11.7987    1.9333 N   0  0  0  0  0  0  0  0  0  0  0  0
    2.5633  -13.2257    2.0399 C   0  0  0  0  0  0  0  0  0  0  0  0
  4  5  1  0
  5  8  1  0
  5  9  2  0
  6 10  1  0
 10 11  1  0
 10 12  1  0
 10 13  2  0
  2 14  1  0
  3 15  1  0
 15 16  1  0
 16 17  1  0
  1  2  2  0
  2  3  1  0
  3  4  2  0
  4  7  1  0
  6  7  2  0
  1  6  1  0
M  END

$$$$
No_2029-/export/home/yangzhenyu/potential_scad_32_flow//YTHDC2/2024-12-06-03-22-00/
     RDKit          3D

 19 19  0  0  0  0  0  0  0  0999 V2000
    1.1787   -8.0297    3.5154 C   0  0  0  0  0  0  0  0  0  0  0  0
    1.1048   -9.2215    3.2892 C   0  0  0  0  0  0  0  0  0  0  0  0
    1.3627  -10.1721    4.3044 C   0  0  0  0  0  0  0  0  0  0  0  0
    1.0682  -11.5187    4.0618 C   0  0  0  0  0  0  0  0  0  0  0  0
    0.6332  -11.9655    2.9682 C   0  0  0  0  0  0  0  0  0  0  0  0
    0.4776  -11.1308    1.9203 C   0  0  0  0  0  0  0  0  0  0  0  0
    0.1540  -11.7530    0.6168 C   0  0  0  0  0  0  0  0  0  0  0  0
    0.7979   -9.8320    2.0306 C   0  0  0  0  0  0  0  0  0  0  0  0
   -1.3071  -11.9040    0.4813 O   0  0  0  0  0  0  0  0  0  0  0  0
    0.8535   -8.9105    1.0352 C   0  0  0  0  0  0  0  0  0  0  0  0
    2.0813   -8.9527    0.1749 C   0  0  0  0  0  0  0  0  0  0  0  0
    2.9854   -9.6685    0.3460 O   0  0  0  0  0  0  0  0  0  0  0  0
    2.0521   -8.2315   -0.9578 O   0  0  0  0  0  0  0  0  0  0  0  0
    0.3749  -13.3585    2.7415 O   0  0  0  0  0  0  0  0  0  0  0  0
    1.4539  -14.2283    2.6638 C   0  0  0  0  0  0  0  0  0  0  0  0
    0.2443   -7.0723    3.6531 N   0  0  0  0  0  0  0  0  0  0  0  0
    0.3652   -5.8072    3.1105 C   0  0  0  0  0  0  0  0  0  0  0  0
    1.5422   -5.1417    3.1873 C   0  0  0  0  0  0  0  0  0  0  0  0
   -0.8583   -4.9135    3.4339 C   0  0  0  0  0  0  0  0  0  0  0  0
  1  2  1  0
  6  7  1  0
  7  9  1  0
  8 10  1  0
 10 11  1  0
 11 12  1  0
 11 13  2  0
  5 14  1  0
 14 15  1  0
  1 16  1  0
 16 17  1  0
 17 18  1  0
 17 19  1  0
  2  3  2  0
  3  4  1  0
  4  5  2  0
  5  6  1  0
  6  8  2  0
  2  8  1  0
M  END

$$$$
No_2030-/export/home/yangzhenyu/potential_scad_32_flow//YTHDC2/2024-12-06-03-22-00/
     RDKit          3D

 20 21  0  0  0  0  0  0  0  0999 V2000
    1.1787   -8.0297    3.5154 C   0  0  0  0  0  0  0  0  0  0  0  0
    1.0491   -6.8434    2.9820 C   0  0  0  0  0  0  0  0  0  0  0  0
    0.0950   -8.8404    3.2292 C   0  0  0  0  0  0  0  0  0  0  0  0
   -0.9173   -8.4596    2.5152 C   0  0  0  0  0  0  0  0  0  0  0  0
   -1.0331   -7.2162    2.0653 C   0  0  0  0  0  0  0  0  0  0  0  0
   -0.0105   -6.3168    2.3081 C   0  0  0  0  0  0  0  0  0  0  0  0
    0.0485   -4.9783    1.8782 C   0  0  0  0  0  0  0  0  0  0  0  0
   -0.4744   -4.1559    2.2381 O   0  0  0  0  0  0  0  0  0  0  0  0
    1.2121   -4.5911    1.0362 O   0  0  0  0  0  0  0  0  0  0  0  0
    0.2108  -10.4885    3.7455 C   0  0  0  0  0  0  0  0  0  0  0  0
    1.2448  -10.9402    4.2068 C   0  0  0  0  0  0  0  0  0  0  0  0
    1.8941  -11.8015    3.3326 C   0  0  0  0  0  0  0  0  0  0  0  0
    1.7511  -11.2923    1.9448 C   0  0  0  0  0  0  0  0  0  0  0  0
    1.2267  -12.1847    1.0452 C   0  0  0  0  0  0  0  0  0  0  0  0
    0.1067  -12.4963    1.2342 C   0  0  0  0  0  0  0  0  0  0  0  0
   -0.5143  -13.4897    0.4929 C   0  0  0  0  0  0  0  0  0  0  0  0
   -1.5989  -13.9590    0.6403 N   0  0  0  0  0  0  0  0  0  0  0  0
   -2.0354  -13.1282    1.7000 C   0  0  0  0  0  0  0  0  0  0  0  0
   -1.0090  -12.2280    2.0057 C   0  0  0  0  0  0  0  0  0  0  0  0
   -3.1642  -13.1954    2.3213 O   0  0  0  0  0  0  0  0  0  0  0  0
  6  7  1  0
  7  8  2  0
  7  9  1  0
  3 10  1  0
 10 11  1  0
 11 12  1  0
 12 13  1  0
 13 14  1  0
 14 15  1  0
 15 16  1  0
 16 17  2  0
 17 18  1  0
 15 19  1  0
 18 19  1  0
 18 20  2  0
  1  2  2  0
  2  6  1  0
  5  6  2  0
  4  5  1  0
  3  4  2  0
  1  3  1  0
M  END

$$$$
No_2031-/export/home/yangzhenyu/potential_scad_32_flow//YTHDC2/2024-12-06-03-22-00/
     RDKit          3D

 19 21  0  0  0  0  0  0  0  0999 V2000
    1.1787   -8.0297    3.5154 C   0  0  0  0  0  0  0  0  0  0  0  0
    1.0491   -6.8434    2.9820 C   0  0  0  0  0  0  0  0  0  0  0  0
    0.9905   -9.0774    2.6527 C   0  0  0  0  0  0  0  0  0  0  0  0
    1.1655  -10.4663    3.1286 C   0  0  0  0  0  0  0  0  0  0  0  0
    1.2197  -11.4898    2.5831 C   0  0  0  0  0  0  0  0  0  0  0  0
    1.0589  -11.4458    1.1293 C   0  0  0  0  0  0  0  0  0  0  0  0
    0.9638  -10.3069    0.4651 C   0  0  0  0  0  0  0  0  0  0  0  0
    0.9191   -9.0789    1.1942 C   0  0  0  0  0  0  0  0  0  0  0  0
    0.9198   -7.8339    0.6158 C   0  0  0  0  0  0  0  0  0  0  0  0
    1.0184   -6.6904    1.4953 C   0  0  0  0  0  0  0  0  0  0  0  0
    1.3450  -12.8153    3.0809 C   0  0  0  0  0  0  0  0  0  0  0  0
    2.4576  -13.4521    3.0985 C   0  0  0  0  0  0  0  0  0  0  0  0
    2.2467  -14.9431    2.8167 C   0  0  0  0  0  0  0  0  0  0  0  0
    0.8047   -7.6246   -0.5392 O   0  0  0  0  0  0  0  0  0  0  0  0
    1.3204  -15.4034    2.3700 C   0  0  0  0  0  0  0  0  0  0  0  0
    0.0843  -14.6962    2.2914 C   0  0  0  0  0  0  0  0  0  0  0  0
   -1.1486  -15.3777    1.9831 C   0  0  0  0  0  0  0  0  0  0  0  0
    0.1140  -13.3484    2.7280 C   0  0  0  0  0  0  0  0  0  0  0  0
   -2.2249  -14.5935    1.6327 O   0  0  0  0  0  0  0  0  0  0  0  0
  1  2  1  0
  8  9  1  0
  9 10  1  0
  5 11  1  0
  9 14  2  0
 16 17  1  0
 17 19  2  0
  1  3  1  0
  2 10  1  0
  3  4  2  0
  4  5  1  0
  5  6  2  0
  6  7  1  0
  7  8  2  0
  3  8  1  0
 11 12  2  0
 12 13  1  0
 13 15  2  0
 15 16  1  0
 16 18  2  0
 11 18  1  0
M  END

$$$$
No_2032-/export/home/yangzhenyu/potential_scad_32_flow//YTHDC2/2024-12-06-03-22-00/
     RDKit          3D

 17 18  0  0  0  0  0  0  0  0999 V2000
    1.1787   -8.0297    3.5154 C   0  0  0  0  0  0  0  0  0  0  0  0
    1.1048   -9.2215    3.2892 C   0  0  0  0  0  0  0  0  0  0  0  0
    1.2339   -9.7611    2.0189 C   0  0  0  0  0  0  0  0  0  0  0  0
    1.3583   -9.0036    0.9764 C   0  0  0  0  0  0  0  0  0  0  0  0
    1.5996   -7.6362    1.1311 C   0  0  0  0  0  0  0  0  0  0  0  0
    1.4830   -7.0928    2.3626 C   0  0  0  0  0  0  0  0  0  0  0  0
    1.1008  -11.2372    1.8542 C   0  0  0  0  0  0  0  0  0  0  0  0
    0.4812  -11.6084    0.6459 C   0  0  0  0  0  0  0  0  0  0  0  0
    0.5134  -13.0269    0.4830 C   0  0  0  0  0  0  0  0  0  0  0  0
    1.2057  -13.8685    1.2734 C   0  0  0  0  0  0  0  0  0  0  0  0
    1.3930  -15.2980    1.0380 C   0  0  0  0  0  0  0  0  0  0  0  0
    2.1840  -16.0263    1.8950 N   0  0  0  0  0  0  0  0  0  0  0  0
    2.0065  -13.0884    2.3209 C   0  0  0  0  0  0  0  0  0  0  0  0
    1.9004  -11.9452    2.5772 N   0  0  0  0  0  0  0  0  0  0  0  0
    0.7797  -15.9361    0.2837 O   0  0  0  0  0  0  0  0  0  0  0  0
    1.5152   -5.4638    2.7391 Cl  0  0  0  0  0  0  0  0  0  0  0  0
    2.0213  -17.2209    2.0981 C   0  0  0  0  0  0  0  0  0  0  0  0
  3  7  1  0
 10 11  1  0
 11 12  2  3
 11 15  1  0
  6 16  1  0
 12 17  1  0
  7  8  2  0
  8  9  1  0
  9 10  2  0
 10 13  1  0
 13 14  2  0
  7 14  1  0
  1  2  2  0
  2  3  1  0
  3  4  2  0
  4  5  1  0
  5  6  2  0
  1  6  1  0
M  END

$$$$
No_2033-/export/home/yangzhenyu/potential_scad_32_flow//YTHDC2/2024-12-06-03-22-00/
     RDKit          3D

 19 19  0  0  1  0  0  0  0  0999 V2000
    1.1787   -8.0297    3.5154 C   0  0  0  0  0  0  0  0  0  0  0  0
    1.0491   -6.8434    2.9820 C   0  0  0  0  0  0  0  0  0  0  0  0
    0.9905   -9.0774    2.6527 C   0  0  0  0  0  0  0  0  0  0  0  0
    0.7897   -8.9519    1.3691 C   0  0  0  0  0  0  0  0  0  0  0  0
    0.7018   -7.7198    0.7892 C   0  0  0  0  0  0  0  0  0  0  0  0
    0.8918   -6.5957    1.6117 C   0  0  0  0  0  0  0  0  0  0  0  0
    1.0600  -10.5680    3.3321 C   0  0  0  0  0  0  0  0  0  0  0  0
    1.1634  -11.6086    2.5010 C   0  0  0  0  0  0  0  0  0  0  0  0
    1.3344  -12.8974    3.1596 C   0  0  0  0  0  0  0  0  0  0  0  0
    1.1355  -14.0095    2.4199 N   0  0  0  0  0  0  0  0  0  0  0  0
    1.4219  -15.2445    3.1488 C   0  0  0  0  0  0  0  0  0  0  0  0
    0.8602   -5.2657    1.1576 C   0  0  0  0  0  0  0  0  0  0  0  0
    1.8449  -16.3172    2.4649 C   0  0  1  0  0  0  0  0  0  0  0  0
    2.4868  -15.9480    1.1840 C   0  0  0  0  0  0  0  0  0  0  0  0
    2.0121  -17.5516    2.9219 C   0  0  0  0  0  0  0  0  0  0  0  0
    1.5682  -17.7759    4.1724 O   0  0  0  0  0  0  0  0  0  0  0  0
    2.5174  -18.6595    2.1609 C   0  0  0  0  0  0  0  0  0  0  0  0
   -0.2216   -4.8056    0.6763 O   0  0  0  0  0  0  0  0  0  0  0  0
    1.8186   -4.4446    1.3935 O   0  0  0  0  0  0  0  0  0  0  0  0
  3  7  1  0
  7  8  2  3
  8  9  1  0
  9 10  1  0
 10 11  1  0
  6 12  1  0
 11 13  1  0
 13 14  1  1
 13 15  1  0
 15 16  2  0
 15 17  1  0
 12 18  2  0
 12 19  1  0
  1  2  2  0
  2  6  1  0
  5  6  2  0
  4  5  1  0
  3  4  2  0
  1  3  1  0
M  END

$$$$
No_2034-/export/home/yangzhenyu/potential_scad_32_flow//YTHDC2/2024-12-06-03-22-00/
     RDKit          3D

 13 13  0  0  0  0  0  0  0  0999 V2000
    1.1787   -8.0297    3.5154 C   0  0  0  0  0  0  0  0  0  0  0  0
    1.1048   -9.2215    3.2892 C   0  0  0  0  0  0  0  0  0  0  0  0
    1.2339   -9.7611    2.0189 C   0  0  0  0  0  0  0  0  0  0  0  0
    1.3583   -9.0036    0.9764 C   0  0  0  0  0  0  0  0  0  0  0  0
    1.5996   -7.6362    1.1311 C   0  0  0  0  0  0  0  0  0  0  0  0
    1.4830   -7.0928    2.3626 C   0  0  0  0  0  0  0  0  0  0  0  0
    1.4898   -5.7274    2.6199 C   0  0  0  0  0  0  0  0  0  0  0  0
    1.1882  -11.3736    1.8424 C   0  0  0  0  0  0  0  0  0  0  0  0
    0.2883  -11.9819    2.0702 N   0  0  0  0  0  0  0  0  0  0  0  0
   -0.9698  -11.6368    2.2392 C   0  0  0  0  0  0  0  0  0  0  0  0
    0.6840  -13.1389    3.0542 C   0  0  0  0  0  0  0  0  0  0  0  0
    2.0219  -13.4160    3.2038 C   0  0  0  0  0  0  0  0  0  0  0  0
    1.6921   -5.1740    3.8542 N   0  0  0  0  0  0  0  0  0  0  0  0
  6  7  1  0
  3  8  1  0
  8  9  1  0
  9 10  1  0
  9 11  1  0
 11 12  1  0
  7 13  1  0
  1  2  2  0
  2  3  1  0
  3  4  2  0
  4  5  1  0
  5  6  2  0
  1  6  1  0
M  END

$$$$
No_2035-/export/home/yangzhenyu/potential_scad_32_flow//YTHDC2/2024-12-06-03-22-00/
     RDKit          3D

 19 19  0  0  1  0  0  0  0  0999 V2000
    1.1787   -8.0297    3.5154 C   0  0  0  0  0  0  0  0  0  0  0  0
    1.1048   -9.2215    3.2892 C   0  0  0  0  0  0  0  0  0  0  0  0
    1.3627  -10.1721    4.3044 C   0  0  0  0  0  0  0  0  0  0  0  0
    1.0682  -11.5187    4.0618 C   0  0  0  0  0  0  0  0  0  0  0  0
    0.6332  -11.9655    2.9682 C   0  0  0  0  0  0  0  0  0  0  0  0
    0.4776  -11.1308    1.9203 C   0  0  0  0  0  0  0  0  0  0  0  0
    0.1540  -11.7530    0.6168 C   0  0  0  0  0  0  0  0  0  0  0  0
    0.7979   -9.8320    2.0306 C   0  0  0  0  0  0  0  0  0  0  0  0
   -0.1707  -12.9753    0.5936 C   0  0  0  0  0  0  0  0  0  0  0  0
   -0.6293  -13.4826   -0.7338 C   0  0  0  0  0  0  0  0  0  0  0  0
    0.8080   -8.8387    1.0681 C   0  0  1  0  0  0  0  0  0  0  0  0
    2.0634   -8.6486    0.3336 C   0  0  0  0  0  0  0  0  0  0  0  0
    2.1939   -7.7748   -0.6511 O   0  0  0  0  0  0  0  0  0  0  0  0
    3.1485   -9.3350    0.7302 O   0  0  0  0  0  0  0  0  0  0  0  0
   -1.2674  -12.8032   -1.6146 O   0  0  0  0  0  0  0  0  0  0  0  0
   -0.7122  -14.8517   -0.9719 O   0  0  0  0  0  0  0  0  0  0  0  0
    0.2658   -7.0312    3.5027 O   0  0  0  0  0  0  0  0  0  0  0  0
    2.4463   -7.2877    3.6204 O   0  0  0  0  0  0  0  0  0  0  0  0
   -0.1551   -8.3637    0.4215 C   0  0  0  0  0  0  0  0  0  0  0  0
  1  2  1  0
  6  7  1  0
  7  9  2  3
  9 10  1  0
  8 11  1  0
 11 12  1  0
 12 13  1  0
 12 14  2  0
 10 15  2  0
 10 16  1  0
  1 17  1  0
  1 18  2  0
 11 19  1  6
  2  3  2  0
  3  4  1  0
  4  5  2  0
  5  6  1  0
  6  8  2  0
  2  8  1  0
M  END

$$$$
No_2036-/export/home/yangzhenyu/potential_scad_32_flow//YTHDC2/2024-12-06-03-22-00/
     RDKit          3D

 20 22  0  0  0  0  0  0  0  0999 V2000
    1.1787   -8.0297    3.5154 C   0  0  0  0  0  0  0  0  0  0  0  0
    1.1048   -9.2215    3.2892 C   0  0  0  0  0  0  0  0  0  0  0  0
    1.3627  -10.1721    4.3044 C   0  0  0  0  0  0  0  0  0  0  0  0
    1.0682  -11.5187    4.0618 C   0  0  0  0  0  0  0  0  0  0  0  0
    0.6332  -11.9655    2.9682 C   0  0  0  0  0  0  0  0  0  0  0  0
    0.4776  -11.1308    1.9203 C   0  0  0  0  0  0  0  0  0  0  0  0
    0.7470   -9.8274    2.0368 C   0  0  0  0  0  0  0  0  0  0  0  0
    1.0387   -7.0301    2.5175 C   0  0  0  0  0  0  0  0  0  0  0  0
    0.9130   -7.5288    1.2013 C   0  0  0  0  0  0  0  0  0  0  0  0
    0.7893   -8.7980    0.9542 C   0  0  0  0  0  0  0  0  0  0  0  0
    0.5241   -9.2578   -0.2817 C   0  0  0  0  0  0  0  0  0  0  0  0
   -0.7560   -9.7391   -0.6285 O   0  0  0  0  0  0  0  0  0  0  0  0
    1.3013   -8.9300   -1.2618 O   0  0  0  0  0  0  0  0  0  0  0  0
    0.5064  -13.3732    2.6887 C   0  0  0  0  0  0  0  0  0  0  0  0
    1.4653  -14.2195    3.1737 C   0  0  0  0  0  0  0  0  0  0  0  0
    1.2477  -15.6435    2.9859 C   0  0  0  0  0  0  0  0  0  0  0  0
    0.3617  -16.1097    2.2420 C   0  0  0  0  0  0  0  0  0  0  0  0
   -0.5255  -15.2630    1.6521 C   0  0  0  0  0  0  0  0  0  0  0  0
   -0.3683  -13.9088    1.8551 C   0  0  0  0  0  0  0  0  0  0  0  0
    1.0512   -5.3628    2.6837 C   0  0  0  0  0  0  0  0  0  0  0  0
 10 11  1  0
 11 12  2  0
 11 13  1  0
  5 14  1  0
  8 20  1  0
  2  3  1  0
  3  4  2  0
  4  5  1  0
  5  6  2  0
  6  7  1  0
  1  2  2  0
  2  7  1  0
  7 10  2  0
  9 10  1  0
  8  9  2  0
  1  8  1  0
 14 15  2  0
 15 16  1  0
 16 17  2  0
 17 18  1  0
 18 19  2  0
 14 19  1  0
M  END

$$$$
No_2037-/export/home/yangzhenyu/potential_scad_32_flow//YTHDC2/2024-12-06-03-22-00/
     RDKit          3D

 16 16  0  0  0  0  0  0  0  0999 V2000
    1.1787   -8.0297    3.5154 N   0  0  0  0  0  0  0  0  0  0  0  0
    1.0818   -9.0751    3.2053 C   0  0  0  0  0  0  0  0  0  0  0  0
    0.7576   -9.3725    1.9159 C   0  0  0  0  0  0  0  0  0  0  0  0
    0.8823   -8.4917    1.0547 C   0  0  0  0  0  0  0  0  0  0  0  0
    1.4631   -7.3107    1.2451 C   0  0  0  0  0  0  0  0  0  0  0  0
    1.6470   -6.9326    2.5669 C   0  0  0  0  0  0  0  0  0  0  0  0
    0.8237  -10.1305    4.2407 C   0  0  0  0  0  0  0  0  0  0  0  0
    1.7644  -11.1125    4.2479 C   0  0  0  0  0  0  0  0  0  0  0  0
    0.8446   -8.8698   -0.4314 C   0  0  0  0  0  0  0  0  0  0  0  0
    1.7120   -8.8126   -1.2544 O   0  0  0  0  0  0  0  0  0  0  0  0
   -0.3402   -9.4623   -0.7863 O   0  0  0  0  0  0  0  0  0  0  0  0
    1.3514  -12.3291    3.7930 C   0  0  0  0  0  0  0  0  0  0  0  0
   -0.0068  -12.4538    3.4968 C   0  0  0  0  0  0  0  0  0  0  0  0
   -0.2359  -13.6445    2.6747 C   0  0  0  0  0  0  0  0  0  0  0  0
    0.8524  -14.4016    2.4741 C   0  0  0  0  0  0  0  0  0  0  0  0
    2.1644  -14.2496    2.9323 C   0  0  0  0  0  0  0  0  0  0  0  0
  2  7  1  0
  7  8  1  0
  4  9  1  0
  9 10  2  0
  9 11  1  0
  8 12  1  0
 12 13  1  0
 13 14  2  3
 14 15  1  0
 15 16  2  0
  1  2  2  0
  2  3  1  0
  3  4  2  0
  4  5  1  0
  5  6  2  0
  1  6  1  0
M  END

$$$$
No_2038-/export/home/yangzhenyu/potential_scad_32_flow//YTHDC2/2024-12-06-03-22-00/
     RDKit          3D

 19 19  0  0  0  0  0  0  0  0999 V2000
    1.1787   -8.0297    3.5154 C   0  0  0  0  0  0  0  0  0  0  0  0
    1.0491   -6.8434    2.9820 C   0  0  0  0  0  0  0  0  0  0  0  0
    0.0950   -8.8404    3.2292 C   0  0  0  0  0  0  0  0  0  0  0  0
   -0.9173   -8.4596    2.5152 C   0  0  0  0  0  0  0  0  0  0  0  0
   -1.0331   -7.2162    2.0653 C   0  0  0  0  0  0  0  0  0  0  0  0
   -0.0105   -6.3168    2.3081 C   0  0  0  0  0  0  0  0  0  0  0  0
    0.1150   -4.9910    1.8495 C   0  0  0  0  0  0  0  0  0  0  0  0
   -0.1376   -4.7952    0.5550 O   0  0  0  0  0  0  0  0  0  0  0  0
    0.8151   -4.0351    2.5205 O   0  0  0  0  0  0  0  0  0  0  0  0
    0.1918  -10.4836    3.7239 C   0  0  0  0  0  0  0  0  0  0  0  0
   -0.9220  -11.1771    3.4724 C   0  0  0  0  0  0  0  0  0  0  0  0
    1.2991  -10.8560    4.4591 C   0  0  0  0  0  0  0  0  0  0  0  0
    2.4761  -10.2657    4.6870 C   0  0  0  0  0  0  0  0  0  0  0  0
    3.3757  -11.2652    5.3843 N   0  0  0  0  0  0  0  0  0  0  0  0
   -1.1665  -11.9427    2.8357 C   0  0  0  0  0  0  0  0  0  0  0  0
   -2.4168  -12.7241    2.7617 N   0  0  0  0  0  0  0  0  0  0  0  0
   -0.2016  -12.5460    1.9622 C   0  0  0  0  0  0  0  0  0  0  0  0
    0.7961  -12.0941    1.5093 C   0  0  0  0  0  0  0  0  0  0  0  0
   -3.2013  -12.4785    3.3485 H   0  0  0  0  0  0  0  0  0  0  0  0
  6  7  1  0
  7  8  1  0
  7  9  2  0
  3 10  1  0
 10 11  2  3
 10 12  1  0
 12 13  1  0
 13 14  1  0
 11 15  1  0
 15 16  2  0
 15 17  1  0
 17 18  1  0
  1  2  2  0
  2  6  1  0
  5  6  2  0
  4  5  1  0
  3  4  2  0
  1  3  1  0
 16 19  1  0
M  END

$$$$
No_2039-/export/home/yangzhenyu/potential_scad_32_flow//YTHDC2/2024-12-06-03-22-00/
     RDKit          3D

 12 12  0  0  0  0  0  0  0  0999 V2000
    1.1787   -8.0297    3.5154 C   0  0  0  0  0  0  0  0  0  0  0  0
    1.1048   -9.2215    3.2892 C   0  0  0  0  0  0  0  0  0  0  0  0
    1.3627  -10.1721    4.3044 C   0  0  0  0  0  0  0  0  0  0  0  0
    1.7354  -11.4730    3.9023 C   0  0  0  0  0  0  0  0  0  0  0  0
    1.8080  -11.8127    2.7216 C   0  0  0  0  0  0  0  0  0  0  0  0
    1.5854  -11.0021    1.7249 C   0  0  0  0  0  0  0  0  0  0  0  0
    1.3573   -9.7389    1.9287 C   0  0  0  0  0  0  0  0  0  0  0  0
    1.2865   -8.8078    0.9161 C   0  0  0  0  0  0  0  0  0  0  0  0
    0.9210   -7.5140    1.1674 O   0  0  0  0  0  0  0  0  0  0  0  0
    1.4288   -9.1781   -0.4279 O   0  0  0  0  0  0  0  0  0  0  0  0
    2.0879  -13.2053    2.3135 C   0  0  0  0  0  0  0  0  0  0  0  0
    1.8920  -14.2496    3.1300 N   0  0  0  0  0  0  0  0  0  0  0  0
  1  2  1  0
  7  8  1  0
  8  9  2  0
  8 10  1  0
  5 11  1  0
 11 12  1  0
  2  3  2  0
  3  4  1  0
  4  5  2  0
  5  6  1  0
  6  7  2  0
  2  7  1  0
M  END

$$$$
No_2040-/export/home/yangzhenyu/potential_scad_32_flow//YTHDC2/2024-12-06-03-22-00/
     RDKit          3D

 18 18  0  0  0  0  0  0  0  0999 V2000
    1.1787   -8.0297    3.5154 O   0  0  0  0  0  0  0  0  0  0  0  0
    0.6747   -7.4019    2.7838 C   0  0  0  0  0  0  0  0  0  0  0  0
    0.7594   -8.0032    1.4295 C   0  0  0  0  0  0  0  0  0  0  0  0
    0.3459   -9.1500    1.3581 C   0  0  0  0  0  0  0  0  0  0  0  0
   -0.4155   -9.6726    2.0240 C   0  0  0  0  0  0  0  0  0  0  0  0
   -0.0317  -10.8325    2.6657 C   0  0  0  0  0  0  0  0  0  0  0  0
    1.1427  -11.4689    2.2181 C   0  0  0  0  0  0  0  0  0  0  0  0
    1.9817  -10.9207    1.2505 C   0  0  0  0  0  0  0  0  0  0  0  0
    1.5970   -9.7197    0.7186 C   0  0  0  0  0  0  0  0  0  0  0  0
    1.9613   -9.3049   -0.4678 C   0  0  0  0  0  0  0  0  0  0  0  0
    2.0055   -8.1201   -0.8662 O   0  0  0  0  0  0  0  0  0  0  0  0
    2.8316  -10.0924   -1.1486 O   0  0  0  0  0  0  0  0  0  0  0  0
    1.4236  -12.8643    2.7383 C   0  0  0  0  0  0  0  0  0  0  0  0
    1.5957  -13.9107    1.9410 C   0  0  0  0  0  0  0  0  0  0  0  0
    2.4570  -14.8864    2.5084 C   0  0  0  0  0  0  0  0  0  0  0  0
    0.3477   -6.2311    3.1551 O   0  0  0  0  0  0  0  0  0  0  0  0
    1.9334  -16.2393    2.2220 C   0  0  0  0  0  0  0  0  0  0  0  0
    2.9694  -17.2960    2.4524 O   0  0  0  0  0  0  0  0  0  0  0  0
  1  2  1  0
  2  3  1  0
  3  4  1  0
  9 10  1  0
 10 11  1  0
 10 12  2  0
  7 13  1  0
 13 14  1  0
 14 15  1  0
  2 16  2  0
 15 17  1  0
 17 18  1  0
  4  5  2  0
  5  6  1  0
  6  7  2  0
  7  8  1  0
  8  9  2  0
  4  9  1  0
M  END

$$$$
No_2041-/export/home/yangzhenyu/potential_scad_32_flow//YTHDC2/2024-12-06-03-22-00/
     RDKit          3D

 18 19  0  0  0  0  0  0  0  0999 V2000
    1.1787   -8.0297    3.5154 C   0  0  0  0  0  0  0  0  0  0  0  0
    1.0491   -6.8434    2.9820 C   0  0  0  0  0  0  0  0  0  0  0  0
    0.0950   -8.8404    3.2292 C   0  0  0  0  0  0  0  0  0  0  0  0
   -0.9173   -8.4596    2.5152 C   0  0  0  0  0  0  0  0  0  0  0  0
   -1.0331   -7.2162    2.0653 C   0  0  0  0  0  0  0  0  0  0  0  0
   -2.2155   -6.7621    1.5011 C   0  0  0  0  0  0  0  0  0  0  0  0
    0.0919   -6.3006    2.2576 C   0  0  0  0  0  0  0  0  0  0  0  0
   -2.4371   -7.0823    0.2852 C   0  0  0  0  0  0  0  0  0  0  0  0
   -1.5502   -7.8777   -0.4574 C   0  0  0  0  0  0  0  0  0  0  0  0
   -1.9626   -8.7565   -1.3307 C   0  0  0  0  0  0  0  0  0  0  0  0
   -1.0263   -9.4680   -2.1240 C   0  0  0  0  0  0  0  0  0  0  0  0
   -1.5529  -10.3954   -2.9045 O   0  0  0  0  0  0  0  0  0  0  0  0
    0.1338   -9.1053   -2.0914 O   0  0  0  0  0  0  0  0  0  0  0  0
    0.1713  -10.2667    3.8491 C   0  0  0  0  0  0  0  0  0  0  0  0
    1.2694  -10.8818    4.1208 C   0  0  0  0  0  0  0  0  0  0  0  0
    1.0972  -12.2730    4.5076 N   0  0  0  0  0  0  0  0  0  0  0  0
    0.0253  -12.7488    4.0019 C   0  0  0  0  0  0  0  0  0  0  0  0
   -0.8682  -11.7902    3.6320 C   0  0  0  0  0  0  0  0  0  0  0  0
  5  6  1  0
  6  8  2  3
  8  9  1  0
  9 10  2  3
 10 11  1  0
 11 12  2  0
 11 13  1  0
  3 14  1  0
 14 15  2  0
 15 16  1  0
 16 17  2  0
 14 18  1  0
 17 18  1  0
  1  2  2  0
  2  7  1  0
  5  7  2  0
  4  5  1  0
  3  4  2  0
  1  3  1  0
M  END

$$$$
No_2042-/export/home/yangzhenyu/potential_scad_32_flow//YTHDC2/2024-12-06-03-22-00/
     RDKit          3D

 18 20  0  0  0  0  0  0  0  0999 V2000
    1.1787   -8.0297    3.5154 C   0  0  0  0  0  0  0  0  0  0  0  0
    1.1048   -9.2215    3.2892 C   0  0  0  0  0  0  0  0  0  0  0  0
    1.3627  -10.1721    4.3044 C   0  0  0  0  0  0  0  0  0  0  0  0
    1.0682  -11.5187    4.0618 C   0  0  0  0  0  0  0  0  0  0  0  0
    0.6332  -11.9655    2.9682 C   0  0  0  0  0  0  0  0  0  0  0  0
    0.4776  -11.1308    1.9203 C   0  0  0  0  0  0  0  0  0  0  0  0
    0.7470   -9.8274    2.0368 C   0  0  0  0  0  0  0  0  0  0  0  0
    1.0387   -7.0301    2.5175 C   0  0  0  0  0  0  0  0  0  0  0  0
    0.9130   -7.5288    1.2013 C   0  0  0  0  0  0  0  0  0  0  0  0
    0.7893   -8.7979    0.9542 C   0  0  0  0  0  0  0  0  0  0  0  0
    0.3998  -13.3695    2.7114 N   0  0  0  0  0  0  0  0  0  0  0  0
    0.9229  -14.0714    1.9191 C   0  0  0  0  0  0  0  0  0  0  0  0
    0.6440  -15.4760    1.9163 C   0  0  0  0  0  0  0  0  0  0  0  0
    1.4787  -16.4952    2.0737 C   0  0  0  0  0  0  0  0  0  0  0  0
    1.3806  -17.7750    2.2635 C   0  0  0  0  0  0  0  0  0  0  0  0
    0.1255  -18.2826    2.0596 C   0  0  0  0  0  0  0  0  0  0  0  0
   -0.8852  -17.5029    1.8457 C   0  0  0  0  0  0  0  0  0  0  0  0
   -0.6795  -16.0829    1.7321 C   0  0  0  0  0  0  0  0  0  0  0  0
  5 11  1  0
 11 12  1  0
 12 13  1  0
  2  3  1  0
  3  4  2  0
  4  5  1  0
  5  6  2  0
  6  7  1  0
 13 14  2  0
 14 15  1  0
 15 16  2  0
 16 17  1  0
 17 18  2  0
 13 18  1  0
  1  2  2  0
  2  7  1  0
  7 10  2  0
  9 10  1  0
  8  9  2  0
  1  8  1  0
M  END

$$$$
No_2043-/export/home/yangzhenyu/potential_scad_32_flow//YTHDC2/2024-12-06-03-22-00/
     RDKit          3D

 18 20  0  0  0  0  0  0  0  0999 V2000
    1.1787   -8.0297    3.5154 C   0  0  0  0  0  0  0  0  0  0  0  0
    1.1048   -9.2215    3.2892 C   0  0  0  0  0  0  0  0  0  0  0  0
    1.3627  -10.1721    4.3044 C   0  0  0  0  0  0  0  0  0  0  0  0
    2.3720  -10.8948    4.2468 C   0  0  0  0  0  0  0  0  0  0  0  0
    0.8234   -7.0464    2.5717 C   0  0  0  0  0  0  0  0  0  0  0  0
    0.4328   -7.4736    1.3042 C   0  0  0  0  0  0  0  0  0  0  0  0
    0.3532   -8.7488    0.9919 C   0  0  0  0  0  0  0  0  0  0  0  0
    0.7039   -9.7094    1.9672 C   0  0  0  0  0  0  0  0  0  0  0  0
    0.6986  -10.9809    1.7122 C   0  0  0  0  0  0  0  0  0  0  0  0
    0.2380  -11.4707    0.7534 C   0  0  0  0  0  0  0  0  0  0  0  0
    0.0684  -12.8479    0.4204 C   0  0  0  0  0  0  0  0  0  0  0  0
    1.1737  -13.7177    0.8702 C   0  0  0  0  0  0  0  0  0  0  0  0
    1.9199  -13.2426    1.9561 C   0  0  0  0  0  0  0  0  0  0  0  0
    1.7622  -11.9791    2.4185 C   0  0  0  0  0  0  0  0  0  0  0  0
    2.3968  -12.0875    3.5458 N   0  0  0  0  0  0  0  0  0  0  0  0
    0.9758   -5.5601    2.8079 Br  0  0  0  0  0  0  0  0  0  0  0  0
    3.1275  -11.0529    5.5434 O   0  0  0  0  0  0  0  0  0  0  0  0
    0.0418   -6.6798    0.3131 O   0  0  0  0  0  0  0  0  0  0  0  0
  2  3  1  0
  3  4  1  0
  8  9  1  0
  4 15  1  0
 14 15  1  0
  5 16  1  0
  4 17  2  0
  6 18  1  0
  1  2  2  0
  2  8  1  0
  7  8  2  0
  6  7  1  0
  5  6  2  0
  1  5  1  0
  9 10  2  0
 10 11  1  0
 11 12  2  0
 12 13  1  0
 13 14  2  0
  9 14  1  0
M  END

$$$$
No_2044-/export/home/yangzhenyu/potential_scad_32_flow//YTHDC2/2024-12-06-03-22-00/
     RDKit          3D

 19 19  0  0  1  0  0  0  0  0999 V2000
    1.1787   -8.0297    3.5154 C   0  0  0  0  0  0  0  0  0  0  0  0
    1.0491   -6.8434    2.9820 C   0  0  0  0  0  0  0  0  0  0  0  0
    1.9985   -8.9840    2.8958 C   0  0  0  0  0  0  0  0  0  0  0  0
    1.7297   -9.2108    1.6335 C   0  0  2  0  0  0  0  0  0  0  0  0
    2.1788  -10.5482    1.1239 C   0  0  0  0  0  0  0  0  0  0  0  0
    0.8226   -6.9903    1.4377 C   0  0  2  0  0  0  0  0  0  0  0  0
    1.5914   -8.1153    0.8208 C   0  0  0  0  0  0  0  0  0  0  0  0
    2.3898  -10.7430   -0.0922 O   0  0  0  0  0  0  0  0  0  0  0  0
    1.9076  -11.6833    1.7971 O   0  0  0  0  0  0  0  0  0  0  0  0
    1.6387   -8.0942   -0.4720 O   0  0  0  0  0  0  0  0  0  0  0  0
    1.0419   -5.6646    3.4895 C   0  0  0  0  0  0  0  0  0  0  0  0
    0.1715   -4.7278    3.2440 O   0  0  0  0  0  0  0  0  0  0  0  0
    2.0149   -5.2052    4.3114 O   0  0  0  0  0  0  0  0  0  0  0  0
    0.1533   -6.1538    0.8207 C   0  0  0  0  0  0  0  0  0  0  0  0
   -1.1033   -6.3762    0.4038 C   0  0  0  0  0  0  0  0  0  0  0  0
   -1.7543   -5.5294   -0.5714 C   0  0  0  0  0  0  0  0  0  0  0  0
   -2.9385   -5.8045   -1.0143 C   0  0  0  0  0  0  0  0  0  0  0  0
   -3.8366   -6.6803   -0.6406 C   0  0  0  0  0  0  0  0  0  0  0  0
   -3.2290   -7.5965    0.3697 C   0  0  0  0  0  0  0  0  0  0  0  0
  1  2  1  0
  1  3  1  0
  3  4  1  0
  4  5  1  6
  2  6  1  0
  4  7  1  0
  6  7  1  0
  5  8  2  0
  5  9  1  0
  7 10  2  0
  2 11  1  0
 11 12  2  0
 11 13  1  0
  6 14  1  6
 14 15  1  0
 15 16  2  3
 16 17  1  0
 17 18  2  3
 18 19  1  0
M  END

$$$$
No_2045-/export/home/yangzhenyu/potential_scad_32_flow//YTHDC2/2024-12-06-03-22-00/
     RDKit          3D

 19 21  0  0  0  0  0  0  0  0999 V2000
    1.1787   -8.0297    3.5154 C   0  0  0  0  0  0  0  0  0  0  0  0
    1.1048   -9.2215    3.2892 N   0  0  0  0  0  0  0  0  0  0  0  0
    1.0346   -9.7785    2.1176 C   0  0  0  0  0  0  0  0  0  0  0  0
    1.2597   -9.0826    1.0431 C   0  0  0  0  0  0  0  0  0  0  0  0
    1.5530   -7.7656    1.0977 C   0  0  0  0  0  0  0  0  0  0  0  0
    1.5300   -7.1323    2.3379 C   0  0  0  0  0  0  0  0  0  0  0  0
    1.6813   -5.7666    2.5762 C   0  0  0  0  0  0  0  0  0  0  0  0
    0.9576  -11.2422    2.1140 C   0  0  0  0  0  0  0  0  0  0  0  0
   -0.2144  -11.7502    1.6585 C   0  0  0  0  0  0  0  0  0  0  0  0
   -0.3638  -13.1496    1.6145 C   0  0  0  0  0  0  0  0  0  0  0  0
    0.7195  -13.9781    2.0265 C   0  0  0  0  0  0  0  0  0  0  0  0
    1.8158  -13.4558    2.5587 C   0  0  0  0  0  0  0  0  0  0  0  0
    1.9045  -12.1019    2.7386 C   0  0  0  0  0  0  0  0  0  0  0  0
    0.5104  -15.4063    2.0590 C   0  0  0  0  0  0  0  0  0  0  0  0
   -0.2319  -16.0390    1.4456 C   0  0  0  0  0  0  0  0  0  0  0  0
   -0.3710  -17.4711    1.6294 C   0  0  0  0  0  0  0  0  0  0  0  0
    0.2406  -17.9330    2.3448 C   0  0  0  0  0  0  0  0  0  0  0  0
    1.2694  -17.5157    3.1834 C   0  0  0  0  0  0  0  0  0  0  0  0
    1.4194  -16.0820    3.1255 C   0  0  0  0  0  0  0  0  0  0  0  0
  6  7  1  0
  3  8  1  0
 11 14  1  0
  1  2  2  0
  2  3  1  0
  3  4  2  0
  4  5  1  0
  5  6  2  0
  1  6  1  0
  8  9  2  0
  9 10  1  0
 10 11  2  0
 11 12  1  0
 12 13  2  0
  8 13  1  0
 14 15  2  0
 15 16  1  0
 16 17  2  0
 17 18  1  0
 18 19  2  0
 14 19  1  0
M  END

$$$$
No_2046-/export/home/yangzhenyu/potential_scad_32_flow//YTHDC2/2024-12-06-03-22-00/
     RDKit          3D

 20 22  0  0  0  0  0  0  0  0999 V2000
    1.1787   -8.0297    3.5154 C   0  0  0  0  0  0  0  0  0  0  0  0
    1.1048   -9.2215    3.2892 C   0  0  0  0  0  0  0  0  0  0  0  0
    1.3627  -10.1721    4.3044 C   0  0  0  0  0  0  0  0  0  0  0  0
    1.0682  -11.5187    4.0618 C   0  0  0  0  0  0  0  0  0  0  0  0
    0.6332  -11.9655    2.9682 C   0  0  0  0  0  0  0  0  0  0  0  0
    0.4776  -11.1308    1.9203 C   0  0  0  0  0  0  0  0  0  0  0  0
    0.7470   -9.8274    2.0368 C   0  0  0  0  0  0  0  0  0  0  0  0
    1.0387   -7.0301    2.5175 N   0  0  0  0  0  0  0  0  0  0  0  0
    0.9298   -7.5514    1.2672 C   0  0  0  0  0  0  0  0  0  0  0  0
    0.7824   -8.7713    0.9713 C   0  0  0  0  0  0  0  0  0  0  0  0
    0.3633   -9.2077   -0.2511 C   0  0  0  0  0  0  0  0  0  0  0  0
   -1.0100   -9.3616   -0.5177 O   0  0  0  0  0  0  0  0  0  0  0  0
    1.1112   -9.1176   -1.2609 O   0  0  0  0  0  0  0  0  0  0  0  0
    0.5247  -13.3865    2.6841 C   0  0  0  0  0  0  0  0  0  0  0  0
    0.9685  -13.9741    1.6393 C   0  0  0  0  0  0  0  0  0  0  0  0
    1.4878  -15.2515    1.7670 C   0  0  0  0  0  0  0  0  0  0  0  0
    0.9572  -16.1285    2.7007 C   0  0  0  0  0  0  0  0  0  0  0  0
    0.4208  -15.4684    3.9309 C   0  0  0  0  0  0  0  0  0  0  0  0
    0.2571  -14.1481    3.8967 N   0  0  0  0  0  0  0  0  0  0  0  0
    1.3621  -17.4915    2.7077 C   0  0  0  0  0  0  0  0  0  0  0  0
 10 11  1  0
 11 12  2  0
 11 13  1  0
  5 14  1  0
 17 20  1  0
  2  3  1  0
  3  4  2  0
  4  5  1  0
  5  6  2  0
  6  7  1  0
  1  2  2  0
  2  7  1  0
  7 10  2  0
  9 10  1  0
  8  9  2  0
  1  8  1  0
 14 15  2  0
 15 16  1  0
 16 17  2  0
 17 18  1  0
 18 19  2  0
 14 19  1  0
M  END

$$$$
No_2047-/export/home/yangzhenyu/potential_scad_32_flow//YTHDC2/2024-12-06-03-22-00/
     RDKit          3D

 17 18  0  0  1  0  0  0  0  0999 V2000
    1.1787   -8.0297    3.5154 C   0  0  0  0  0  0  0  0  0  0  0  0
    1.1048   -9.2215    3.2892 C   0  0  0  0  0  0  0  0  0  0  0  0
    1.2339   -9.7611    2.0189 C   0  0  0  0  0  0  0  0  0  0  0  0
    1.3583   -9.0036    0.9764 C   0  0  0  0  0  0  0  0  0  0  0  0
    1.5996   -7.6362    1.1311 C   0  0  0  0  0  0  0  0  0  0  0  0
    1.4830   -7.0928    2.3626 C   0  0  0  0  0  0  0  0  0  0  0  0
    1.1008  -11.2372    1.8542 C   0  0  0  0  0  0  0  0  0  0  0  0
    1.9749  -12.0938    2.2342 C   0  0  0  0  0  0  0  0  0  0  0  0
    1.5180  -13.3509    2.5910 C   0  0  2  0  0  0  0  0  0  0  0  0
    0.4053  -13.4434    3.4089 C   0  0  0  0  0  0  0  0  0  0  0  0
    0.1718  -14.9668    3.4297 C   0  0  0  0  0  0  0  0  0  0  0  0
    0.7637  -15.9833    3.0682 C   0  0  0  0  0  0  0  0  0  0  0  0
    2.0008  -15.7464    2.3840 C   0  0  0  0  0  0  0  0  0  0  0  0
    2.4553  -14.4334    2.1316 C   0  0  0  0  0  0  0  0  0  0  0  0
    1.5649   -5.4749    2.7466 C   0  0  0  0  0  0  0  0  0  0  0  0
    0.1370  -11.5625    0.9278 O   0  0  0  0  0  0  0  0  0  0  0  0
    3.3926  -14.1390    1.3778 O   0  0  0  0  0  0  0  0  0  0  0  0
  3  7  1  0
  7  8  1  0
  9  8  1  1
  9 10  1  0
 11 12  1  0
  9 14  1  0
 13 14  1  0
  6 15  1  0
  7 16  2  0
 14 17  2  0
 10 11  1  0
 12 13  1  0
  1  2  2  0
  2  3  1  0
  3  4  2  0
  4  5  1  0
  5  6  2  0
  1  6  1  0
M  END

$$$$
No_2048-/export/home/yangzhenyu/potential_scad_32_flow//YTHDC2/2024-12-06-03-22-00/
     RDKit          3D

 20 21  0  0  1  0  0  0  0  0999 V2000
    1.1787   -8.0297    3.5154 C   0  0  0  0  0  0  0  0  0  0  0  0
    1.1048   -9.2215    3.2892 C   0  0  0  0  0  0  0  0  0  0  0  0
    1.3627  -10.1721    4.3044 C   0  0  0  0  0  0  0  0  0  0  0  0
    1.0682  -11.5187    4.0618 C   0  0  0  0  0  0  0  0  0  0  0  0
    0.6332  -11.9655    2.9682 C   0  0  0  0  0  0  0  0  0  0  0  0
    0.4776  -11.1308    1.9203 C   0  0  0  0  0  0  0  0  0  0  0  0
    0.7470   -9.8274    2.0368 C   0  0  0  0  0  0  0  0  0  0  0  0
    1.8805   -7.1616    3.5538 C   0  0  0  0  0  0  0  0  0  0  0  0
    0.3661  -13.4265    2.7867 C   0  0  0  0  0  0  0  0  0  0  0  0
    0.9243  -14.0434    1.7809 C   0  0  0  0  0  0  0  0  0  0  0  0
    2.2972  -13.7700    1.3961 C   0  0  0  0  0  0  0  0  0  0  0  0
    0.9292   -9.0365    0.9199 C   0  0  0  0  0  0  0  0  0  0  0  0
    0.0182   -8.2180    0.4088 C   0  0  2  0  0  0  0  0  0  0  0  0
   -0.5012   -7.3739    1.1537 C   0  0  0  0  0  0  0  0  0  0  0  0
   -0.1936   -6.1143    0.7675 C   0  0  0  0  0  0  0  0  0  0  0  0
   -0.4467   -4.9390    1.4960 C   0  0  0  0  0  0  0  0  0  0  0  0
   -1.3282   -5.2024    2.6076 C   0  0  0  0  0  0  0  0  0  0  0  0
   -1.8204   -6.3847    2.8915 C   0  0  0  0  0  0  0  0  0  0  0  0
   -1.4327   -7.4865    2.2659 C   0  0  0  0  0  0  0  0  0  0  0  0
   -0.4927   -8.5227   -0.7954 C   0  0  0  0  0  0  0  0  0  0  0  0
  1  2  1  0
  1  8  2  0
  5  9  1  0
  9 10  1  0
 10 11  1  0
  7 12  1  0
 12 13  1  0
 13 14  1  0
 13 20  1  1
  2  3  2  0
  3  4  1  0
  4  5  2  0
  5  6  1  0
  6  7  2  0
  2  7  1  0
 14 15  2  0
 15 16  1  0
 16 17  2  0
 17 18  1  0
 18 19  2  0
 14 19  1  0
M  END

$$$$
No_2049-/export/home/yangzhenyu/potential_scad_32_flow//YTHDC2/2024-12-06-03-22-00/
     RDKit          3D

 18 20  0  0  1  0  0  0  0  0999 V2000
    1.1787   -8.0297    3.5154 C   0  0  0  0  0  0  0  0  0  0  0  0
    1.1048   -9.2215    3.2892 C   0  0  0  0  0  0  0  0  0  0  0  0
    1.2339   -9.7611    2.0189 C   0  0  0  0  0  0  0  0  0  0  0  0
    1.3583   -9.0036    0.9764 C   0  0  0  0  0  0  0  0  0  0  0  0
    1.5996   -7.6362    1.1311 C   0  0  0  0  0  0  0  0  0  0  0  0
    1.4830   -7.0928    2.3626 C   0  0  0  0  0  0  0  0  0  0  0  0
    1.5395   -5.7300    2.6182 C   0  0  0  0  0  0  0  0  0  0  0  0
    1.1775  -11.2233    1.8407 C   0  0  1  0  0  0  0  0  0  0  0  0
    0.7252  -11.5870    0.5412 C   0  0  0  0  0  0  0  0  0  0  0  0
   -0.5181  -12.2492    0.6137 C   0  0  0  0  0  0  0  0  0  0  0  0
   -1.4841  -11.7416   -0.0226 N   0  0  0  0  0  0  0  0  0  0  0  0
   -2.5959  -12.2786   -0.1585 C   0  0  0  0  0  0  0  0  0  0  0  0
   -2.6145  -13.4317    0.5266 C   0  0  0  0  0  0  0  0  0  0  0  0
   -1.5004  -13.8103    1.1921 C   0  0  0  0  0  0  0  0  0  0  0  0
   -0.3890  -13.3116    1.1960 C   0  0  0  0  0  0  0  0  0  0  0  0
    0.7564  -13.8680    1.8237 C   0  0  0  0  0  0  0  0  0  0  0  0
    1.5682  -12.9584    2.6512 C   0  0  0  0  0  0  0  0  0  0  0  0
    1.9532  -11.8857    2.5439 C   0  0  0  0  0  0  0  0  0  0  0  0
  6  7  1  0
  8  3  1  6
  8  9  1  0
  9 10  1  0
 15 16  1  0
 16 17  1  0
  8 18  1  0
 17 18  1  0
  1  2  2  0
  2  3  1  0
  3  4  2  0
  4  5  1  0
  5  6  2  0
  1  6  1  0
 10 11  2  0
 11 12  1  0
 12 13  2  0
 13 14  1  0
 14 15  2  0
 10 15  1  0
M  END

$$$$
No_2050-/export/home/yangzhenyu/potential_scad_32_flow//YTHDC2/2024-12-06-03-22-00/
     RDKit          3D

 19 19  0  0  1  0  0  0  0  0999 V2000
    1.1787   -8.0297    3.5154 C   0  0  0  0  0  0  0  0  0  0  0  0
    1.0491   -6.8434    2.9820 C   0  0  0  0  0  0  0  0  0  0  0  0
    1.9985   -8.9840    2.8958 C   0  0  0  0  0  0  0  0  0  0  0  0
    1.1815  -10.1889    2.5497 C   0  0  0  0  0  0  0  0  0  0  0  0
    0.3496  -10.1352    1.6537 C   0  0  0  0  0  0  0  0  0  0  0  0
    0.7737   -9.6057    0.4354 O   0  0  0  0  0  0  0  0  0  0  0  0
    0.5816   -6.8309    1.6287 C   0  0  0  0  0  0  0  0  0  0  0  0
    1.2701   -7.5226    0.8006 C   0  0  0  0  0  0  0  0  0  0  0  0
    0.5057   -8.3398   -0.0465 C   0  0  1  0  0  0  0  0  0  0  0  0
    1.4561  -11.2579    3.3625 C   0  0  0  0  0  0  0  0  0  0  0  0
    2.2737  -11.2301    4.3481 O   0  0  0  0  0  0  0  0  0  0  0  0
    0.9041  -12.5322    3.0260 N   0  0  0  0  0  0  0  0  0  0  0  0
   -0.1561   -8.1775   -0.9787 C   0  0  0  0  0  0  0  0  0  0  0  0
   -0.2304   -8.7202   -2.0744 O   0  0  0  0  0  0  0  0  0  0  0  0
   -1.5126   -7.6846   -0.6456 O   0  0  0  0  0  0  0  0  0  0  0  0
    0.1220  -12.7970    2.0776 C   0  0  0  0  0  0  0  0  0  0  0  0
    0.0377  -14.2004    1.9893 C   0  0  0  0  0  0  0  0  0  0  0  0
   -0.7445  -14.7726    0.9967 C   0  0  0  0  0  0  0  0  0  0  0  0
   -1.3173  -13.8049    0.0684 C   0  0  0  0  0  0  0  0  0  0  0  0
  1  2  1  0
  1  3  1  0
  3  4  1  0
  4  5  1  0
  5  6  1  0
  2  7  1  0
  7  8  1  0
  6  9  1  0
  8  9  1  0
  4 10  1  0
 10 11  2  0
 10 12  1  0
  9 13  1  6
 13 14  2  0
 13 15  1  0
 12 16  1  0
 16 17  2  3
 17 18  1  0
 18 19  2  0
M  END

$$$$
No_2051-/export/home/yangzhenyu/potential_scad_32_flow//YTHDC2/2024-12-06-03-22-00/
     RDKit          3D

 19 19  0  0  1  0  0  0  0  0999 V2000
    1.1787   -8.0297    3.5154 C   0  0  0  0  0  0  0  0  0  0  0  0
    1.1048   -9.2215    3.2892 C   0  0  0  0  0  0  0  0  0  0  0  0
    1.2339   -9.7611    2.0189 C   0  0  0  0  0  0  0  0  0  0  0  0
    1.3583   -9.0036    0.9764 C   0  0  0  0  0  0  0  0  0  0  0  0
    1.5996   -7.6362    1.1311 C   0  0  0  0  0  0  0  0  0  0  0  0
    1.4830   -7.0928    2.3626 C   0  0  0  0  0  0  0  0  0  0  0  0
    1.1171  -11.3311    1.8661 Br  0  0  0  0  0  0  0  0  0  0  0  0
    1.5606   -9.5041   -0.3204 C   0  0  0  0  0  0  0  0  0  0  0  0
    1.3554   -8.9389   -1.2665 O   0  0  0  0  0  0  0  0  0  0  0  0
    1.6642  -10.7532   -0.5045 O   0  0  0  0  0  0  0  0  0  0  0  0
    1.5280   -5.6272    2.6391 O   0  0  0  0  0  0  0  0  0  0  0  0
    1.0754   -4.7785    1.8079 C   0  0  2  0  0  0  0  0  0  0  0  0
    1.0012  -10.1749    4.6473 Br  0  0  0  0  0  0  0  0  0  0  0  0
    1.6809   -3.5142    1.8589 C   0  0  0  0  0  0  0  0  0  0  0  0
   -0.1161   -4.8837    1.1956 C   0  0  0  0  0  0  0  0  0  0  0  0
   -1.0634   -4.0232    1.3569 C   0  0  0  0  0  0  0  0  0  0  0  0
   -1.9150   -3.6927    0.4492 C   0  0  0  0  0  0  0  0  0  0  0  0
   -2.9212   -2.7105    0.5785 C   0  0  0  0  0  0  0  0  0  0  0  0
   -3.0954   -2.2253    1.8310 C   0  0  0  0  0  0  0  0  0  0  0  0
  3  7  1  0
  4  8  1  0
  8  9  2  0
  8 10  1  0
  6 11  1  0
 11 12  1  0
  2 13  1  0
 12 14  1  1
 12 15  1  0
 15 16  1  0
 16 17  2  3
 17 18  1  0
 18 19  2  0
  1  2  2  0
  2  3  1  0
  3  4  2  0
  4  5  1  0
  5  6  2  0
  1  6  1  0
M  END

$$$$
No_2052-/export/home/yangzhenyu/potential_scad_32_flow//YTHDC2/2024-12-06-03-22-00/
     RDKit          3D

 19 19  0  0  0  0  0  0  0  0999 V2000
    1.1787   -8.0297    3.5154 C   0  0  0  0  0  0  0  0  0  0  0  0
    1.1048   -9.2215    3.2892 C   0  0  0  0  0  0  0  0  0  0  0  0
    1.3627  -10.1721    4.3044 C   0  0  0  0  0  0  0  0  0  0  0  0
    2.3720  -10.8948    4.2468 C   0  0  0  0  0  0  0  0  0  0  0  0
    1.0579   -7.0441    2.4219 C   0  0  0  0  0  0  0  0  0  0  0  0
    0.8578   -7.4970    1.1686 C   0  0  0  0  0  0  0  0  0  0  0  0
    0.7382   -8.7683    0.8754 C   0  0  0  0  0  0  0  0  0  0  0  0
    0.8882   -9.7347    1.9238 C   0  0  0  0  0  0  0  0  0  0  0  0
    0.9437  -11.0299    1.7005 C   0  0  0  0  0  0  0  0  0  0  0  0
    0.4602  -11.5370    0.8140 C   0  0  0  0  0  0  0  0  0  0  0  0
    0.4077  -13.0043    0.5390 C   0  0  0  0  0  0  0  0  0  0  0  0
    1.5575  -13.7096    0.9972 C   0  0  0  0  0  0  0  0  0  0  0  0
    1.6297  -15.1356    0.7422 C   0  0  0  0  0  0  0  0  0  0  0  0
    2.3823  -15.8814    1.6457 C   0  0  0  0  0  0  0  0  0  0  0  0
    2.8057  -15.4397    2.9381 O   0  0  0  0  0  0  0  0  0  0  0  0
    2.6485  -17.1114    1.6358 N   0  0  0  0  0  0  0  0  0  0  0  0
    1.2287   -5.5875    2.6916 C   0  0  0  0  0  0  0  0  0  0  0  0
    3.6598  -10.3948    4.6517 N   0  0  0  0  0  0  0  0  0  0  0  0
    1.6210   -5.2566    3.8341 O   0  0  0  0  0  0  0  0  0  0  0  0
  2  3  1  0
  3  4  1  0
  8  9  1  0
  9 10  2  3
 10 11  1  0
 11 12  2  3
 12 13  1  0
 13 14  1  0
 14 15  2  0
 14 16  1  0
  5 17  1  0
  4 18  1  0
 17 19  1  0
  1  2  2  0
  2  8  1  0
  7  8  2  0
  6  7  1  0
  5  6  2  0
  1  5  1  0
M  END

$$$$
No_2053-/export/home/yangzhenyu/potential_scad_32_flow//YTHDC2/2024-12-06-03-22-00/
     RDKit          3D

 18 19  0  0  1  0  0  0  0  0999 V2000
    1.1787   -8.0297    3.5154 C   0  0  0  0  0  0  0  0  0  0  0  0
    1.1048   -9.2215    3.2892 C   0  0  0  0  0  0  0  0  0  0  0  0
    1.2339   -9.7611    2.0189 C   0  0  0  0  0  0  0  0  0  0  0  0
    1.1954  -11.2312    1.8661 C   0  0  2  0  0  0  0  0  0  0  0  0
    1.2996  -11.5815    0.5387 C   0  0  0  0  0  0  0  0  0  0  0  0
    1.3263   -7.1208    2.3229 C   0  0  0  0  0  0  0  0  0  0  0  0
    1.3693   -7.6408    1.0625 C   0  0  0  0  0  0  0  0  0  0  0  0
    1.7694   -9.1102    0.9968 C   0  0  0  0  0  0  0  0  0  0  0  0
    1.7823  -10.7503   -0.4103 C   0  0  0  0  0  0  0  0  0  0  0  0
    1.9441   -9.4255   -0.2429 C   0  0  0  0  0  0  0  0  0  0  0  0
    2.3540   -8.6684   -1.1678 O   0  0  0  0  0  0  0  0  0  0  0  0
    1.2777   -5.6288    2.5247 C   0  0  0  0  0  0  0  0  0  0  0  0
    0.6358  -11.9758    2.8180 C   0  0  0  0  0  0  0  0  0  0  0  0
    0.8281  -13.4983    2.7224 C   0  0  0  0  0  0  0  0  0  0  0  0
   -0.2057  -14.2398    2.4106 C   0  0  0  0  0  0  0  0  0  0  0  0
    0.0624  -15.6981    2.3946 C   0  0  0  0  0  0  0  0  0  0  0  0
    1.4460  -16.1749    2.6985 C   0  0  0  0  0  0  0  0  0  0  0  0
    2.4146  -15.0623    2.9148 C   0  0  0  0  0  0  0  0  0  0  0  0
  3  4  1  0
  4  5  1  0
  8 10  1  0
  9 10  1  0
 10 11  2  0
  6 12  1  0
  4 13  1  6
 13 14  1  0
 14 15  1  0
 15 16  2  3
 16 17  1  0
 17 18  2  0
  5  9  1  0
  1  2  2  0
  2  3  1  0
  3  8  2  0
  7  8  1  0
  6  7  2  0
  1  6  1  0
M  END

$$$$
No_2054-/export/home/yangzhenyu/potential_scad_32_flow//YTHDC2/2024-12-06-03-22-00/
     RDKit          3D

 19 21  0  0  0  0  0  0  0  0999 V2000
    1.1787   -8.0297    3.5154 C   0  0  0  0  0  0  0  0  0  0  0  0
    1.1048   -9.2215    3.2892 C   0  0  0  0  0  0  0  0  0  0  0  0
    1.3627  -10.1721    4.3044 C   0  0  0  0  0  0  0  0  0  0  0  0
    1.0682  -11.5187    4.0618 C   0  0  0  0  0  0  0  0  0  0  0  0
    0.6332  -11.9655    2.9682 C   0  0  0  0  0  0  0  0  0  0  0  0
    0.4776  -11.1308    1.9203 C   0  0  0  0  0  0  0  0  0  0  0  0
    0.7470   -9.8274    2.0368 C   0  0  0  0  0  0  0  0  0  0  0  0
    1.0387   -7.0301    2.5175 C   0  0  0  0  0  0  0  0  0  0  0  0
    0.9130   -7.5288    1.2013 C   0  0  0  0  0  0  0  0  0  0  0  0
    0.7893   -8.7979    0.9542 C   0  0  0  0  0  0  0  0  0  0  0  0
    0.5241   -9.2578   -0.2817 C   0  0  0  0  0  0  0  0  0  0  0  0
   -0.7560   -9.7391   -0.6285 O   0  0  0  0  0  0  0  0  0  0  0  0
    1.3013   -8.9300   -1.2618 O   0  0  0  0  0  0  0  0  0  0  0  0
    0.5064  -13.3732    2.6887 C   0  0  0  0  0  0  0  0  0  0  0  0
    1.4653  -14.2195    3.1737 C   0  0  0  0  0  0  0  0  0  0  0  0
    1.2477  -15.6435    2.9859 C   0  0  0  0  0  0  0  0  0  0  0  0
    0.3617  -16.1097    2.2420 C   0  0  0  0  0  0  0  0  0  0  0  0
   -0.5255  -15.2630    1.6521 C   0  0  0  0  0  0  0  0  0  0  0  0
   -0.3683  -13.9088    1.8551 C   0  0  0  0  0  0  0  0  0  0  0  0
 10 11  1  0
 11 12  2  0
 11 13  1  0
  5 14  1  0
  2  3  1  0
  3  4  2  0
  4  5  1  0
  5  6  2  0
  6  7  1  0
  1  2  2  0
  2  7  1  0
  7 10  2  0
  9 10  1  0
  8  9  2  0
  1  8  1  0
 14 15  2  0
 15 16  1  0
 16 17  2  0
 17 18  1  0
 18 19  2  0
 14 19  1  0
M  END

$$$$
No_2055-/export/home/yangzhenyu/potential_scad_32_flow//YTHDC2/2024-12-06-03-22-00/
     RDKit          3D

 18 18  0  0  1  0  0  0  0  0999 V2000
    1.1787   -8.0297    3.5154 C   0  0  0  0  0  0  0  0  0  0  0  0
    1.0491   -6.8434    2.9820 N   0  0  0  0  0  0  0  0  0  0  0  0
    1.0164   -9.0814    2.6596 C   0  0  0  0  0  0  0  0  0  0  0  0
    0.8420   -8.8183    1.4191 C   0  0  2  0  0  0  0  0  0  0  0  0
    0.7457   -9.7009    0.4317 C   0  0  0  0  0  0  0  0  0  0  0  0
    0.9440   -7.3512    1.2766 C   0  0  0  0  0  0  0  0  0  0  0  0
    1.8692  -10.1440   -0.0481 C   0  0  0  0  0  0  0  0  0  0  0  0
    1.0564  -10.4534    3.2062 C   0  0  0  0  0  0  0  0  0  0  0  0
   -0.1486  -11.1326    3.5513 C   0  0  0  0  0  0  0  0  0  0  0  0
   -0.1621  -12.4952    3.4074 C   0  0  0  0  0  0  0  0  0  0  0  0
    0.9150  -13.2554    3.1964 C   0  0  0  0  0  0  0  0  0  0  0  0
    0.7912  -14.6994    2.9188 C   0  0  0  0  0  0  0  0  0  0  0  0
   -0.1148  -15.3802    3.1721 O   0  0  0  0  0  0  0  0  0  0  0  0
    2.0372  -15.3305    2.6916 O   0  0  0  0  0  0  0  0  0  0  0  0
   -0.4605  -10.1043   -0.0019 C   0  0  0  0  0  0  0  0  0  0  0  0
   -0.6641  -11.2127   -0.7368 O   0  0  0  0  0  0  0  0  0  0  0  0
   -1.6112   -9.2999    0.2343 O   0  0  0  0  0  0  0  0  0  0  0  0
    2.1983  -10.5765    4.1655 O   0  0  0  0  0  0  0  0  0  0  0  0
  1  2  1  0
  1  3  2  0
  3  4  1  0
  4  5  1  6
  2  6  2  0
  4  6  1  0
  5  7  2  0
  3  8  1  0
  8  9  1  0
  9 10  2  3
 10 11  1  0
 11 12  1  0
 12 13  2  0
 12 14  1  0
  5 15  1  0
 15 16  1  0
 15 17  2  0
  8 18  2  0
M  END

$$$$
No_2056-/export/home/yangzhenyu/potential_scad_32_flow//YTHDC2/2024-12-06-03-22-00/
     RDKit          3D

 19 20  0  0  0  0  0  0  0  0999 V2000
    1.1787   -8.0297    3.5154 C   0  0  0  0  0  0  0  0  0  0  0  0
    1.0491   -6.8434    2.9820 C   0  0  0  0  0  0  0  0  0  0  0  0
    1.9985   -8.9840    2.8958 C   0  0  0  0  0  0  0  0  0  0  0  0
    1.9135  -10.3404    3.6266 C   0  0  0  0  0  0  0  0  0  0  0  0
    1.3291  -11.3908    3.0222 C   0  0  0  0  0  0  0  0  0  0  0  0
    1.2749  -12.5326    3.7562 C   0  0  0  0  0  0  0  0  0  0  0  0
    0.4248   -6.6481    1.7861 C   0  0  0  0  0  0  0  0  0  0  0  0
    0.4186   -7.4786    1.0077 C   0  0  0  0  0  0  0  0  0  0  0  0
    0.9883  -13.6405    3.1466 C   0  0  0  0  0  0  0  0  0  0  0  0
    0.7476  -13.7592    1.8463 C   0  0  0  0  0  0  0  0  0  0  0  0
    0.8336  -12.6863    1.0685 C   0  0  0  0  0  0  0  0  0  0  0  0
    1.1531  -11.4532    1.6176 C   0  0  0  0  0  0  0  0  0  0  0  0
    1.3030  -10.3798    0.7818 C   0  0  0  0  0  0  0  0  0  0  0  0
    0.8017   -8.9517    0.3944 C   0  0  0  0  0  0  0  0  0  0  0  0
    0.2866   -9.1600   -0.9493 O   0  0  0  0  0  0  0  0  0  0  0  0
   -0.1284   -5.4974    1.4862 C   0  0  0  0  0  0  0  0  0  0  0  0
    2.6915  -10.3662    4.7232 O   0  0  0  0  0  0  0  0  0  0  0  0
   -1.3424   -5.3505    0.9627 C   0  0  0  0  0  0  0  0  0  0  0  0
   -2.0108   -4.4155    1.1481 O   0  0  0  0  0  0  0  0  0  0  0  0
  1  2  1  0
  1  3  1  0
  3  4  1  0
  4  5  1  0
  2  7  1  0
  7  8  1  0
 12 13  1  0
  8 14  1  0
 13 14  1  0
 14 15  2  0
  7 16  1  0
  4 17  2  0
 16 18  1  0
 18 19  2  0
  5  6  2  0
  6  9  1  0
  9 10  2  0
 10 11  1  0
 11 12  2  0
  5 12  1  0
M  END

$$$$
No_2057-/export/home/yangzhenyu/potential_scad_32_flow//YTHDC2/2024-12-06-03-22-00/
     RDKit          3D

 20 20  0  0  1  0  0  0  0  0999 V2000
    1.1787   -8.0297    3.5154 N   0  0  0  0  0  0  0  0  0  0  0  0
    0.8669   -7.0905    2.8589 C   0  0  0  0  0  0  0  0  0  0  0  0
    1.0447   -7.3244    1.4123 C   0  0  0  0  0  0  0  0  0  0  0  0
    1.3746   -8.4389    1.0864 C   0  0  2  0  0  0  0  0  0  0  0  0
    1.6686   -9.1952    2.5608 C   0  0  2  0  0  0  0  0  0  0  0  0
    1.9879  -10.3617    2.7281 C   0  0  0  0  0  0  0  0  0  0  0  0
    1.6558   -9.1219    0.0446 C   0  0  0  0  0  0  0  0  0  0  0  0
    1.4863  -10.3856   -0.1164 O   0  0  0  0  0  0  0  0  0  0  0  0
    1.9940   -8.4917   -1.0800 O   0  0  0  0  0  0  0  0  0  0  0  0
    1.9859  -10.8363    4.0534 C   0  0  0  0  0  0  0  0  0  0  0  0
    1.5734  -11.9582    4.3315 O   0  0  0  0  0  0  0  0  0  0  0  0
    3.1548  -10.5254    4.9750 O   0  0  0  0  0  0  0  0  0  0  0  0
    0.6570   -5.7977    3.4184 C   0  0  0  0  0  0  0  0  0  0  0  0
    1.6905   -4.7903    3.5203 C   0  0  0  0  0  0  0  0  0  0  0  0
    1.1482   -3.5116    3.0089 O   0  0  0  0  0  0  0  0  0  0  0  0
    1.0586   -2.6423    3.7474 C   0  0  2  0  0  0  0  0  0  0  0  0
    2.2353   -2.0063    4.0499 C   0  0  0  0  0  0  0  0  0  0  0  0
   -0.0300   -2.3358    4.4360 C   0  0  0  0  0  0  0  0  0  0  0  0
   -1.2496   -2.6742    3.9768 C   0  0  0  0  0  0  0  0  0  0  0  0
   -1.3277   -3.0495    2.6463 C   0  0  0  0  0  0  0  0  0  0  0  0
  1  2  1  0
  2  3  2  0
  3  4  1  0
  1  5  1  0
  4  5  1  0
  5  6  1  6
  4  7  1  6
  7  8  2  0
  7  9  1  0
  6 10  1  0
 10 11  1  0
 10 12  2  0
  2 13  1  0
 13 14  1  0
 14 15  1  0
 15 16  1  0
 16 17  1  1
 16 18  1  0
 18 19  2  3
 19 20  1  0
M  END

$$$$
No_2058-/export/home/yangzhenyu/potential_scad_32_flow//YTHDC2/2024-12-06-03-22-00/
     RDKit          3D

 19 20  0  0  1  0  0  0  0  0999 V2000
    1.1787   -8.0297    3.5154 C   0  0  0  0  0  0  0  0  0  0  0  0
    1.1048   -9.2215    3.2892 C   0  0  0  0  0  0  0  0  0  0  0  0
    1.2339   -9.7611    2.0189 C   0  0  0  0  0  0  0  0  0  0  0  0
    1.3583   -9.0036    0.9764 C   0  0  0  0  0  0  0  0  0  0  0  0
    1.5996   -7.6362    1.1311 C   0  0  0  0  0  0  0  0  0  0  0  0
    1.4830   -7.0928    2.3626 C   0  0  0  0  0  0  0  0  0  0  0  0
    1.5395   -5.7300    2.6182 C   0  0  0  0  0  0  0  0  0  0  0  0
    1.1969  -11.3760    1.8433 C   0  0  2  0  0  0  0  0  0  0  0  0
    1.7910  -12.1287    2.5491 C   0  0  0  0  0  0  0  0  0  0  0  0
    1.6665  -13.4806    2.2359 C   0  0  0  0  0  0  0  0  0  0  0  0
    0.9175  -13.8732    1.1172 C   0  0  0  0  0  0  0  0  0  0  0  0
    0.3029  -12.8515    0.3469 C   0  0  0  0  0  0  0  0  0  0  0  0
    0.4801  -11.5240    0.6696 C   0  0  0  0  0  0  0  0  0  0  0  0
    2.3100  -14.5980    3.1158 Cl  0  0  0  0  0  0  0  0  0  0  0  0
    1.2603   -4.8034    1.7175 O   0  0  0  0  0  0  0  0  0  0  0  0
    1.8204   -5.1771    3.8306 O   0  0  0  0  0  0  0  0  0  0  0  0
   -0.2794  -13.2960   -0.8426 O   0  0  0  0  0  0  0  0  0  0  0  0
    1.5954   -9.4161   -0.3377 C   0  0  0  0  0  0  0  0  0  0  0  0
    0.5530  -10.2029   -0.7140 O   0  0  0  0  0  0  0  0  0  0  0  0
  6  7  1  0
  8  3  1  6
  9 10  1  0
 11 12  1  0
  8 13  1  0
 12 13  1  0
 10 14  1  0
  7 15  2  0
  7 16  1  0
 12 17  2  0
  4 18  1  0
 18 19  2  0
 10 11  1  0
  8  9  1  0
  1  2  2  0
  2  3  1  0
  3  4  2  0
  4  5  1  0
  5  6  2  0
  1  6  1  0
M  END

$$$$
No_2059-/export/home/yangzhenyu/potential_scad_32_flow//YTHDC2/2024-12-06-03-22-00/
     RDKit          3D

 18 19  0  0  1  0  0  0  0  0999 V2000
    1.1787   -8.0297    3.5154 C   0  0  0  0  0  0  0  0  0  0  0  0
    1.1048   -9.2215    3.2892 C   0  0  0  0  0  0  0  0  0  0  0  0
    1.0239   -9.7790    2.0239 C   0  0  2  0  0  0  0  0  0  0  0  0
    1.0632  -11.2393    1.8978 C   0  0  0  0  0  0  0  0  0  0  0  0
    1.2664   -7.1133    2.3309 C   0  0  1  0  0  0  0  0  0  0  0  0
    1.2080   -7.6832    1.0760 C   0  0  0  0  0  0  0  0  0  0  0  0
    1.1535   -8.9837    0.8897 C   0  0  0  0  0  0  0  0  0  0  0  0
    1.5434  -12.1192    2.7356 N   0  0  0  0  0  0  0  0  0  0  0  0
    1.4876  -13.3708    2.4422 C   0  0  0  0  0  0  0  0  0  0  0  0
    0.9671  -13.8507    1.3670 C   0  0  0  0  0  0  0  0  0  0  0  0
    0.4792  -13.0784    0.4674 C   0  0  0  0  0  0  0  0  0  0  0  0
    0.5430  -11.7250    0.6661 C   0  0  0  0  0  0  0  0  0  0  0  0
    1.1606   -9.4469   -0.3894 O   0  0  0  0  0  0  0  0  0  0  0  0
    2.0365  -14.2562    3.4592 C   0  0  0  0  0  0  0  0  0  0  0  0
    1.3292   -5.4356    2.5731 Cl  0  0  0  0  0  0  0  0  0  0  0  0
    1.8974  -15.6966    2.9950 O   0  0  0  0  0  0  0  0  0  0  0  0
    2.9342  -16.3930    2.4622 C   0  0  0  0  0  0  0  0  0  0  0  0
    2.6949  -17.7623    2.5603 C   0  0  0  0  0  0  0  0  0  0  0  0
  2  3  1  0
  3  4  1  1
  1  5  1  0
  3  7  1  0
  6  7  1  0
  7 13  2  0
  9 14  1  0
  5 15  1  1
 14 16  1  0
 16 17  1  0
 17 18  1  0
  1  2  1  0
  5  6  1  0
  4  8  2  0
  8  9  1  0
  9 10  2  0
 10 11  1  0
 11 12  2  0
  4 12  1  0
M  END

$$$$
No_2060-/export/home/yangzhenyu/potential_scad_32_flow//YTHDC2/2024-12-06-03-22-00/
     RDKit          3D

 18 19  0  0  0  0  0  0  0  0999 V2000
    1.1787   -8.0297    3.5154 C   0  0  0  0  0  0  0  0  0  0  0  0
    1.1048   -9.2215    3.2892 C   0  0  0  0  0  0  0  0  0  0  0  0
    1.2339   -9.7611    2.0189 C   0  0  0  0  0  0  0  0  0  0  0  0
    1.3583   -9.0036    0.9764 C   0  0  0  0  0  0  0  0  0  0  0  0
    1.5996   -7.6362    1.1311 C   0  0  0  0  0  0  0  0  0  0  0  0
    1.4830   -7.0928    2.3626 C   0  0  0  0  0  0  0  0  0  0  0  0
    1.5395   -5.7300    2.6182 C   0  0  0  0  0  0  0  0  0  0  0  0
    1.1969  -11.3760    1.8433 C   0  0  0  0  0  0  0  0  0  0  0  0
    1.0771  -11.6644    0.5388 C   0  0  0  0  0  0  0  0  0  0  0  0
   -0.0151  -12.5281    0.3366 N   0  0  0  0  0  0  0  0  0  0  0  0
    0.1415  -13.8807    0.7424 C   0  0  0  0  0  0  0  0  0  0  0  0
    0.6279   -4.8872    2.7846 O   0  0  0  0  0  0  0  0  0  0  0  0
   -1.2346  -12.0385    0.3962 C   0  0  0  0  0  0  0  0  0  0  0  0
   -2.1148  -12.3645   -0.4448 C   0  0  0  0  0  0  0  0  0  0  0  0
   -3.4830  -11.8993   -0.3296 C   0  0  0  0  0  0  0  0  0  0  0  0
   -3.7181  -11.2097    0.9525 C   0  0  0  0  0  0  0  0  0  0  0  0
   -2.7434  -10.9090    1.8352 C   0  0  0  0  0  0  0  0  0  0  0  0
   -1.4477  -11.3254    1.6742 C   0  0  0  0  0  0  0  0  0  0  0  0
  6  7  1  0
  3  8  1  0
  8  9  1  0
  9 10  1  0
 10 11  1  0
  7 12  2  0
 10 13  1  0
  1  2  2  0
  2  3  1  0
  3  4  2  0
  4  5  1  0
  5  6  2  0
  1  6  1  0
 13 14  2  0
 14 15  1  0
 15 16  2  0
 16 17  1  0
 17 18  2  0
 13 18  1  0
M  END

$$$$
No_2061-/export/home/yangzhenyu/potential_scad_32_flow//YTHDC2/2024-12-06-03-22-00/
     RDKit          3D

 18 19  0  0  0  0  0  0  0  0999 V2000
    1.1787   -8.0297    3.5154 C   0  0  0  0  0  0  0  0  0  0  0  0
    1.0491   -6.8434    2.9820 C   0  0  0  0  0  0  0  0  0  0  0  0
    0.9905   -9.0774    2.6527 C   0  0  0  0  0  0  0  0  0  0  0  0
    0.7897   -8.9519    1.3691 C   0  0  0  0  0  0  0  0  0  0  0  0
    0.7018   -7.7198    0.7892 C   0  0  0  0  0  0  0  0  0  0  0  0
    0.8918   -6.5957    1.6117 C   0  0  0  0  0  0  0  0  0  0  0  0
    1.0600  -10.5680    3.3321 C   0  0  0  0  0  0  0  0  0  0  0  0
   -0.1041  -11.1772    3.5150 C   0  0  0  0  0  0  0  0  0  0  0  0
   -0.6926  -11.6099    2.5612 C   0  0  0  0  0  0  0  0  0  0  0  0
   -2.0242  -12.2711    2.8468 C   0  0  0  0  0  0  0  0  0  0  0  0
    0.9321   -5.2807    1.1396 C   0  0  0  0  0  0  0  0  0  0  0  0
   -3.0054  -11.4868    3.4272 C   0  0  0  0  0  0  0  0  0  0  0  0
   -4.2534  -12.0779    3.6724 C   0  0  0  0  0  0  0  0  0  0  0  0
   -5.1556  -11.3075    4.4067 C   0  0  0  0  0  0  0  0  0  0  0  0
    2.3628  -10.9564    3.6021 C   0  0  0  0  0  0  0  0  0  0  0  0
   -4.9768   -9.9887    4.7282 C   0  0  0  0  0  0  0  0  0  0  0  0
   -3.6942   -9.4353    4.4934 C   0  0  0  0  0  0  0  0  0  0  0  0
   -2.6491  -10.1809    3.8811 C   0  0  0  0  0  0  0  0  0  0  0  0
  3  7  1  0
  7  8  1  0
  8  9  2  3
  9 10  1  0
  6 11  1  0
  7 15  1  0
 10 12  1  0
  1  2  2  0
  2  6  1  0
  5  6  2  0
  4  5  1  0
  3  4  2  0
  1  3  1  0
 12 13  2  0
 13 14  1  0
 14 16  2  0
 16 17  1  0
 17 18  2  0
 12 18  1  0
M  END

$$$$
No_2062-/export/home/yangzhenyu/potential_scad_32_flow//YTHDC2/2024-12-06-03-22-00/
     RDKit          3D

 18 18  0  0  0  0  0  0  0  0999 V2000
    1.1787   -8.0297    3.5154 C   0  0  0  0  0  0  0  0  0  0  0  0
    1.1048   -9.2215    3.2892 C   0  0  0  0  0  0  0  0  0  0  0  0
    1.2339   -9.7611    2.0189 C   0  0  0  0  0  0  0  0  0  0  0  0
    1.3583   -9.0036    0.9764 C   0  0  0  0  0  0  0  0  0  0  0  0
    1.5996   -7.6362    1.1311 C   0  0  0  0  0  0  0  0  0  0  0  0
    1.4830   -7.0928    2.3626 C   0  0  0  0  0  0  0  0  0  0  0  0
    1.4898   -5.7274    2.6199 C   0  0  0  0  0  0  0  0  0  0  0  0
    1.1681  -11.2222    1.8390 C   0  0  0  0  0  0  0  0  0  0  0  0
    1.9047  -12.1147    2.3357 C   0  0  0  0  0  0  0  0  0  0  0  0
    1.2927  -13.3233    2.7474 C   0  0  0  0  0  0  0  0  0  0  0  0
    1.7756  -14.5591    2.3026 C   0  0  0  0  0  0  0  0  0  0  0  0
    2.8951  -14.5908    1.5996 O   0  0  0  0  0  0  0  0  0  0  0  0
    1.4230  -15.6959    2.8620 N   0  0  0  0  0  0  0  0  0  0  0  0
    2.0428  -16.9498    2.5353 C   0  0  0  0  0  0  0  0  0  0  0  0
    1.2514   -4.8567    1.6210 O   0  0  0  0  0  0  0  0  0  0  0  0
    1.7691   -5.1405    3.7977 O   0  0  0  0  0  0  0  0  0  0  0  0
    1.3877  -17.8575    2.0090 C   0  0  0  0  0  0  0  0  0  0  0  0
    2.0784  -19.0200    1.5685 O   0  0  0  0  0  0  0  0  0  0  0  0
  6  7  1  0
  3  8  1  0
  8  9  1  0
  9 10  1  0
 10 11  1  0
 11 12  2  0
 11 13  1  0
 13 14  1  0
  7 15  2  0
  7 16  1  0
 14 17  1  0
 17 18  2  0
  1  2  2  0
  2  3  1  0
  3  4  2  0
  4  5  1  0
  5  6  2  0
  1  6  1  0
M  END

$$$$
No_2063-/export/home/yangzhenyu/potential_scad_32_flow//YTHDC2/2024-12-06-03-22-00/
     RDKit          3D

 17 18  0  0  0  0  0  0  0  0999 V2000
    1.1787   -8.0297    3.5154 C   0  0  0  0  0  0  0  0  0  0  0  0
    1.0491   -6.8434    2.9820 C   0  0  0  0  0  0  0  0  0  0  0  0
    0.9905   -9.0774    2.6527 C   0  0  0  0  0  0  0  0  0  0  0  0
    0.7897   -8.9519    1.3691 C   0  0  0  0  0  0  0  0  0  0  0  0
    0.7018   -7.7198    0.7892 C   0  0  0  0  0  0  0  0  0  0  0  0
    0.8918   -6.5957    1.6117 C   0  0  0  0  0  0  0  0  0  0  0  0
    1.0998  -10.4710    3.2437 C   0  0  0  0  0  0  0  0  0  0  0  0
    0.0472  -11.2546    3.3963 C   0  0  0  0  0  0  0  0  0  0  0  0
   -0.3712  -11.7969    2.5371 C   0  0  0  0  0  0  0  0  0  0  0  0
   -1.6982  -12.5008    2.6364 C   0  0  0  0  0  0  0  0  0  0  0  0
    0.8677   -5.2786    1.2169 C   0  0  0  0  0  0  0  0  0  0  0  0
   -2.0253  -13.7275    2.2810 C   0  0  0  0  0  0  0  0  0  0  0  0
   -1.0805  -14.4349    1.5489 C   0  0  0  0  0  0  0  0  0  0  0  0
    0.2146  -13.9211    1.2618 C   0  0  0  0  0  0  0  0  0  0  0  0
    0.5640  -12.7526    1.8110 C   0  0  0  0  0  0  0  0  0  0  0  0
    1.9227  -12.4616    1.7449 C   0  0  0  0  0  0  0  0  0  0  0  0
    0.1819   -4.2963    2.0052 C   0  0  0  0  0  0  0  0  0  0  0  0
  3  7  1  0
  7  8  1  0
  6 11  1  0
 15 16  1  0
 11 17  1  0
  8  9  1  0
  1  2  2  0
  2  6  1  0
  5  6  2  0
  4  5  1  0
  3  4  2  0
  1  3  1  0
  9 10  2  0
 10 12  1  0
 12 13  2  0
 13 14  1  0
 14 15  2  0
  9 15  1  0
M  END

$$$$
No_2064-/export/home/yangzhenyu/potential_scad_32_flow//YTHDC2/2024-12-06-03-22-00/
     RDKit          3D

 18 18  0  0  0  0  0  0  0  0999 V2000
    1.1787   -8.0297    3.5154 C   0  0  0  0  0  0  0  0  0  0  0  0
    1.0491   -6.8434    2.9820 C   0  0  0  0  0  0  0  0  0  0  0  0
    0.9905   -9.0774    2.6527 C   0  0  0  0  0  0  0  0  0  0  0  0
    0.7897   -8.9519    1.3691 C   0  0  0  0  0  0  0  0  0  0  0  0
    0.7018   -7.7198    0.7892 C   0  0  0  0  0  0  0  0  0  0  0  0
    0.8918   -6.5957    1.6117 C   0  0  0  0  0  0  0  0  0  0  0  0
    1.0998  -10.4710    3.2437 C   0  0  0  0  0  0  0  0  0  0  0  0
    0.0472  -11.2546    3.3963 C   0  0  0  0  0  0  0  0  0  0  0  0
    0.1622  -12.5732    3.4140 C   0  0  0  0  0  0  0  0  0  0  0  0
    1.4182  -13.1957    3.4048 C   0  0  0  0  0  0  0  0  0  0  0  0
    1.4947  -14.7093    3.1402 C   0  0  0  0  0  0  0  0  0  0  0  0
    2.3930  -15.3249    2.4636 C   0  0  0  0  0  0  0  0  0  0  0  0
    0.8575   -5.2936    1.1724 C   0  0  0  0  0  0  0  0  0  0  0  0
    3.2918  -14.6237    1.7692 C   0  0  0  0  0  0  0  0  0  0  0  0
    2.9034  -16.4481    3.1403 C   0  0  0  0  0  0  0  0  0  0  0  0
    1.5320   -4.3364    1.8849 O   0  0  0  0  0  0  0  0  0  0  0  0
    0.2270   -4.9178    0.2749 O   0  0  0  0  0  0  0  0  0  0  0  0
    2.4288  -10.8279    3.6607 O   0  0  0  0  0  0  0  0  0  0  0  0
  3  7  1  0
  7  8  1  0
  8  9  2  3
  9 10  1  0
 10 11  1  0
 11 12  1  0
  6 13  1  0
 12 14  1  0
 12 15  1  0
 13 16  1  0
 13 17  2  0
  7 18  2  0
  1  2  2  0
  2  6  1  0
  5  6  2  0
  4  5  1  0
  3  4  2  0
  1  3  1  0
M  END

$$$$
No_2065-/export/home/yangzhenyu/potential_scad_32_flow//YTHDC2/2024-12-06-03-22-00/
     RDKit          3D

 19 19  0  0  0  0  0  0  0  0999 V2000
    1.1787   -8.0297    3.5154 C   0  0  0  0  0  0  0  0  0  0  0  0
    1.0491   -6.8434    2.9820 C   0  0  0  0  0  0  0  0  0  0  0  0
    0.9905   -9.0774    2.6527 C   0  0  0  0  0  0  0  0  0  0  0  0
    0.7897   -8.9519    1.3691 C   0  0  0  0  0  0  0  0  0  0  0  0
    0.8824   -7.5617    0.9293 C   0  0  0  0  0  0  0  0  0  0  0  0
    1.0828   -6.5260    1.6856 C   0  0  0  0  0  0  0  0  0  0  0  0
    0.9482  -10.4875    3.1638 C   0  0  0  0  0  0  0  0  0  0  0  0
    1.1380  -11.5604    2.3253 N   0  0  0  0  0  0  0  0  0  0  0  0
    1.2800  -12.8033    2.8344 C   0  0  0  0  0  0  0  0  0  0  0  0
    0.5108  -13.8268    2.3125 C   0  0  0  0  0  0  0  0  0  0  0  0
    0.5489  -15.1382    2.9057 C   0  0  0  0  0  0  0  0  0  0  0  0
    1.7737  -15.3628    3.6948 C   0  0  0  0  0  0  0  0  0  0  0  0
    1.0645  -10.6931    4.4934 O   0  0  0  0  0  0  0  0  0  0  0  0
    1.0134   -5.2193    1.1912 O   0  0  0  0  0  0  0  0  0  0  0  0
    1.8279  -16.7700    3.9874 C   0  0  0  0  0  0  0  0  0  0  0  0
    2.6761  -17.5666    3.3384 O   0  0  0  0  0  0  0  0  0  0  0  0
    1.0989  -17.3617    4.8784 O   0  0  0  0  0  0  0  0  0  0  0  0
    1.2378   -4.1395    1.9755 C   0  0  0  0  0  0  0  0  0  0  0  0
   -0.5761  -13.4999    1.3786 C   0  0  0  0  0  0  0  0  0  0  0  0
  3  7  1  0
  7  8  1  0
  8  9  1  0
  9 10  1  0
 10 11  2  3
 11 12  1  0
  7 13  2  0
  6 14  1  0
 12 15  1  0
 15 16  2  0
 15 17  1  0
 14 18  1  0
 10 19  1  0
  1  2  2  0
  2  6  1  0
  5  6  2  0
  4  5  1  0
  3  4  2  0
  1  3  1  0
M  END

$$$$
No_2066-/export/home/yangzhenyu/potential_scad_32_flow//YTHDC2/2024-12-06-03-22-00/
     RDKit          3D

 15 16  0  0  0  0  0  0  0  0999 V2000
    1.1787   -8.0297    3.5154 C   0  0  0  0  0  0  0  0  0  0  0  0
    1.1048   -9.2215    3.2892 C   0  0  0  0  0  0  0  0  0  0  0  0
    1.3627  -10.1721    4.3044 C   0  0  0  0  0  0  0  0  0  0  0  0
    1.7354  -11.4730    3.9023 C   0  0  0  0  0  0  0  0  0  0  0  0
    1.8080  -11.8127    2.7216 C   0  0  0  0  0  0  0  0  0  0  0  0
    1.5854  -11.0021    1.7249 C   0  0  0  0  0  0  0  0  0  0  0  0
    1.3573   -9.7389    1.9287 C   0  0  0  0  0  0  0  0  0  0  0  0
    1.2865   -8.8078    0.9161 C   0  0  0  0  0  0  0  0  0  0  0  0
    0.9210   -7.5140    1.1674 C   0  0  0  0  0  0  0  0  0  0  0  0
    1.0097   -7.0192    2.4369 C   0  0  0  0  0  0  0  0  0  0  0  0
    0.9449   -5.6296    2.7100 C   0  0  0  0  0  0  0  0  0  0  0  0
    2.0493  -13.2614    2.4251 C   0  0  0  0  0  0  0  0  0  0  0  0
    1.8230  -14.1933    3.3159 C   0  0  0  0  0  0  0  0  0  0  0  0
    1.9159  -15.5609    2.8437 N   0  0  0  0  0  0  0  0  0  0  0  0
    2.9667  -15.7223    1.9340 O   0  0  0  0  0  0  0  0  0  0  0  0
 10 11  1  0
  5 12  1  0
 12 13  1  0
 13 14  1  0
 14 15  2  0
  1  2  2  0
  7  8  2  0
  8  9  1  0
  9 10  2  0
  1 10  1  0
  2  3  1  0
  3  4  2  0
  4  5  1  0
  5  6  2  0
  6  7  1  0
  2  7  1  0
M  END

$$$$
No_2067-/export/home/yangzhenyu/potential_scad_32_flow//YTHDC2/2024-12-06-03-22-00/
     RDKit          3D

 18 18  0  0  0  0  0  0  0  0999 V2000
    1.1787   -8.0297    3.5154 O   0  0  0  0  0  0  0  0  0  0  0  0
    0.9969   -8.9689    3.0048 C   0  0  0  0  0  0  0  0  0  0  0  0
    1.3055  -10.1056    3.6616 C   0  0  0  0  0  0  0  0  0  0  0  0
    1.1249  -11.3503    3.0941 C   0  0  0  0  0  0  0  0  0  0  0  0
    0.6932  -11.4484    1.8586 C   0  0  0  0  0  0  0  0  0  0  0  0
    0.5498  -10.3736    1.0579 C   0  0  0  0  0  0  0  0  0  0  0  0
    0.7643   -9.1185    1.6383 C   0  0  0  0  0  0  0  0  0  0  0  0
    0.4151   -7.8542    1.0784 C   0  0  0  0  0  0  0  0  0  0  0  0
    1.2617   -6.9596    0.8839 O   0  0  0  0  0  0  0  0  0  0  0  0
   -0.7681   -7.5590    0.5014 Cl  0  0  0  0  0  0  0  0  0  0  0  0
    1.2309  -12.6408    3.8284 O   0  0  0  0  0  0  0  0  0  0  0  0
    0.5061  -12.7068    1.1102 C   0  0  0  0  0  0  0  0  0  0  0  0
   -0.4746  -13.0622    0.5306 C   0  0  0  0  0  0  0  0  0  0  0  0
   -0.6407  -14.2430   -0.2173 C   0  0  0  0  0  0  0  0  0  0  0  0
   -1.3647  -14.3985   -1.2995 C   0  0  0  0  0  0  0  0  0  0  0  0
   -2.2397  -13.4652   -1.6763 C   0  0  0  0  0  0  0  0  0  0  0  0
   -2.2645  -12.2401   -1.0174 C   0  0  0  0  0  0  0  0  0  0  0  0
   -3.2696  -11.2568   -1.4425 C   0  0  0  0  0  0  0  0  0  0  0  0
  1  2  1  0
  7  8  1  0
  8  9  2  0
  8 10  1  0
  4 11  1  0
  5 12  1  0
 12 13  2  3
 13 14  1  0
 14 15  2  3
 15 16  1  0
 16 17  2  3
 17 18  1  0
  2  3  2  0
  3  4  1  0
  4  5  2  0
  5  6  1  0
  6  7  2  0
  2  7  1  0
M  END

$$$$
No_2068-/export/home/yangzhenyu/potential_scad_32_flow//YTHDC2/2024-12-06-03-22-00/
     RDKit          3D

 21 23  0  0  0  0  0  0  0  0999 V2000
    1.1787   -8.0297    3.5154 C   0  0  0  0  0  0  0  0  0  0  0  0
    1.0491   -6.8434    2.9820 C   0  0  0  0  0  0  0  0  0  0  0  0
    0.0950   -8.8404    3.2292 C   0  0  0  0  0  0  0  0  0  0  0  0
    0.0602  -10.1764    3.8231 C   0  0  0  0  0  0  0  0  0  0  0  0
    0.2248   -6.3830    2.0648 C   0  0  0  0  0  0  0  0  0  0  0  0
   -0.6745   -7.2322    1.6857 C   0  0  0  0  0  0  0  0  0  0  0  0
   -0.7374   -8.4992    2.1291 C   0  0  0  0  0  0  0  0  0  0  0  0
   -1.2197  -10.6611    4.0385 C   0  0  0  0  0  0  0  0  0  0  0  0
   -2.2122  -10.2766    3.1435 C   0  0  0  0  0  0  0  0  0  0  0  0
   -2.0039   -9.1685    2.3315 C   0  0  0  0  0  0  0  0  0  0  0  0
    0.3313   -4.9845    1.2380 O   0  0  0  0  0  0  0  0  0  0  0  0
   -0.6141   -4.1702    1.3136 C   0  0  0  0  0  0  0  0  0  0  0  0
   -3.4325  -10.9525    3.0649 Cl  0  0  0  0  0  0  0  0  0  0  0  0
    1.2955  -10.6198    4.8317 C   0  0  0  0  0  0  0  0  0  0  0  0
    2.1002  -11.4512    3.9501 C   0  0  0  0  0  0  0  0  0  0  0  0
    1.4804  -12.3710    3.1692 C   0  0  0  0  0  0  0  0  0  0  0  0
    1.3181  -13.7931    3.6387 C   0  0  0  0  0  0  0  0  0  0  0  0
    0.7215  -14.7065    2.7064 C   0  0  0  0  0  0  0  0  0  0  0  0
    0.4692  -14.3467    1.4713 C   0  0  0  0  0  0  0  0  0  0  0  0
    0.5950  -13.0888    1.0032 C   0  0  0  0  0  0  0  0  0  0  0  0
    1.1397  -12.0820    1.8027 C   0  0  0  0  0  0  0  0  0  0  0  0
  5 11  1  0
 11 12  1  0
  9 13  1  0
  4 14  1  0
 14 15  1  0
 15 16  1  0
 16 17  2  0
 17 18  1  0
 18 19  2  0
 19 20  1  0
 20 21  2  0
 16 21  1  0
  1  2  2  0
  2  5  1  0
  5  6  2  0
  6  7  1  0
  1  3  1  0
  3  4  2  0
  4  8  1  0
  8  9  2  0
  9 10  1  0
  7 10  2  0
  3  7  1  0
M  END

$$$$
No_2069-/export/home/yangzhenyu/potential_scad_32_flow//YTHDC2/2024-12-06-03-22-00/
     RDKit          3D

 19 19  0  0  1  0  0  0  0  0999 V2000
    1.1787   -8.0297    3.5154 C   0  0  0  0  0  0  0  0  0  0  0  0
    1.0491   -6.8434    2.9820 C   0  0  1  0  0  0  0  0  0  0  0  0
    0.9905   -9.0774    2.6527 C   0  0  0  0  0  0  0  0  0  0  0  0
    1.1655  -10.4663    3.1286 C   0  0  2  0  0  0  0  0  0  0  0  0
    1.7409  -10.6480    4.4599 C   0  0  0  0  0  0  0  0  0  0  0  0
    1.6536   -5.6667    3.5105 N   0  0  0  0  0  0  0  0  0  0  0  0
    0.5630   -6.5950    1.7693 C   0  0  0  0  0  0  0  0  0  0  0  0
    0.6229   -7.3207    0.8628 O   0  0  0  0  0  0  0  0  0  0  0  0
    0.1352   -5.2812    1.5503 N   0  0  0  0  0  0  0  0  0  0  0  0
    1.0904  -11.6110    2.3474 C   0  0  2  0  0  0  0  0  0  0  0  0
    1.2395  -12.8217    2.9246 C   0  0  0  0  0  0  0  0  0  0  0  0
    1.8753  -13.6976    2.7230 C   0  0  2  0  0  0  0  0  0  0  0  0
    2.6314  -13.7065    1.3618 C   0  0  0  0  0  0  0  0  0  0  0  0
    1.9408  -11.8059    1.1199 C   0  0  0  0  0  0  0  0  0  0  0  0
    2.5277  -12.6982    0.6934 C   0  0  0  0  0  0  0  0  0  0  0  0
    1.6317  -10.6220    0.2159 O   0  0  0  0  0  0  0  0  0  0  0  0
    1.8780  -15.0668    3.2948 O   0  0  0  0  0  0  0  0  0  0  0  0
    2.1885  -16.2046    2.7042 C   0  0  0  0  0  0  0  0  0  0  0  0
   -0.3986   -4.9112    0.3990 C   0  0  0  0  0  0  0  0  0  0  0  0
  1  2  1  0
  1  3  2  3
  3  4  1  0
  4  5  1  6
  2  6  1  6
  2  7  1  0
  7  8  2  0
  7  9  1  0
  4 10  1  0
 10 11  1  1
 12 13  1  0
 10 14  1  0
 13 15  1  0
 14 15  1  0
 14 16  2  0
 12 17  1  6
 17 18  1  0
  9 19  1  0
 11 12  1  0
M  END

$$$$
No_2070-/export/home/yangzhenyu/potential_scad_32_flow//YTHDC2/2024-12-06-03-22-00/
     RDKit          3D

 15 16  0  0  0  0  0  0  0  0999 V2000
    1.1787   -8.0297    3.5154 O   0  0  0  0  0  0  0  0  0  0  0  0
    0.6747   -7.4019    2.7838 C   0  0  0  0  0  0  0  0  0  0  0  0
    0.7594   -8.0032    1.4295 C   0  0  0  0  0  0  0  0  0  0  0  0
    0.3459   -9.1500    1.3581 C   0  0  0  0  0  0  0  0  0  0  0  0
   -0.4155   -9.6726    2.0241 C   0  0  0  0  0  0  0  0  0  0  0  0
   -0.9777   -9.0614    3.0813 C   0  0  0  0  0  0  0  0  0  0  0  0
   -0.2389   -7.9325    3.6014 C   0  0  0  0  0  0  0  0  0  0  0  0
    1.8929   -7.4194    0.7421 C   0  0  0  0  0  0  0  0  0  0  0  0
   -1.9664   -9.7008    3.9687 C   0  0  0  0  0  0  0  0  0  0  0  0
   -2.7142   -9.1444    4.8587 C   0  0  0  0  0  0  0  0  0  0  0  0
   -2.3408   -8.2619    5.7241 O   0  0  0  0  0  0  0  0  0  0  0  0
   -3.9334   -9.7305    5.2733 O   0  0  0  0  0  0  0  0  0  0  0  0
    2.4964   -8.1957   -0.1405 C   0  0  0  0  0  0  0  0  0  0  0  0
    0.8415   -9.8723    0.0749 C   0  0  0  0  0  0  0  0  0  0  0  0
    2.0350   -9.3950   -0.5490 C   0  0  0  0  0  0  0  0  0  0  0  0
  1  2  1  0
  6  9  1  0
  9 10  1  0
 10 11  2  0
 10 12  1  0
  2  3  2  0
  4  5  2  0
  5  6  1  0
  6  7  2  0
  2  7  1  0
  3  4  1  0
  4 14  1  0
 14 15  2  0
 13 15  1  0
  8 13  2  0
  3  8  1  0
M  END

$$$$
No_2071-/export/home/yangzhenyu/potential_scad_32_flow//YTHDC2/2024-12-06-03-22-00/
     RDKit          3D

 18 19  0  0  1  0  0  0  0  0999 V2000
    1.1787   -8.0297    3.5154 C   0  0  0  0  0  0  0  0  0  0  0  0
    1.1048   -9.2215    3.2892 C   0  0  0  0  0  0  0  0  0  0  0  0
    1.3627  -10.1721    4.3044 C   0  0  0  0  0  0  0  0  0  0  0  0
    1.0682  -11.5187    4.0618 C   0  0  0  0  0  0  0  0  0  0  0  0
    0.6332  -11.9655    2.9682 C   0  0  0  0  0  0  0  0  0  0  0  0
    0.4776  -11.1308    1.9203 C   0  0  0  0  0  0  0  0  0  0  0  0
    0.7470   -9.8274    2.0368 C   0  0  0  0  0  0  0  0  0  0  0  0
    1.0387   -7.0301    2.5175 C   0  0  2  0  0  0  0  0  0  0  0  0
    0.9130   -7.5288    1.2013 C   0  0  0  0  0  0  0  0  0  0  0  0
    0.7893   -8.7979    0.9542 C   0  0  2  0  0  0  0  0  0  0  0  0
    0.5241   -9.2578   -0.2817 C   0  0  0  0  0  0  0  0  0  0  0  0
   -0.1121   -8.6523   -1.0898 O   0  0  0  0  0  0  0  0  0  0  0  0
    0.4916  -13.3676    2.6814 C   0  0  0  0  0  0  0  0  0  0  0  0
    0.8930  -13.9924    1.7241 Cl  0  0  0  0  0  0  0  0  0  0  0  0
   -0.1621  -14.1105    3.7111 O   0  0  0  0  0  0  0  0  0  0  0  0
    1.0962  -10.2477   -0.7899 O   0  0  0  0  0  0  0  0  0  0  0  0
    1.2837   -5.6022    2.7272 C   0  0  0  0  0  0  0  0  0  0  0  0
    0.8244   -6.6675    0.2961 O   0  0  0  0  0  0  0  0  0  0  0  0
  1  2  1  0
  8  9  1  0
  7 10  1  0
  9 10  1  0
 10 11  1  1
 11 12  2  0
  5 13  1  0
 13 14  1  0
 13 15  2  0
 11 16  1  0
  8 17  1  6
  9 18  2  0
  1  8  1  0
  2  3  2  0
  3  4  1  0
  4  5  2  0
  5  6  1  0
  6  7  2  0
  2  7  1  0
M  END

$$$$
No_2072-/export/home/yangzhenyu/potential_scad_32_flow//YTHDC2/2024-12-06-03-22-00/
     RDKit          3D

 11 11  0  0  0  0  0  0  0  0999 V2000
    1.1787   -8.0297    3.5154 C   0  0  0  0  0  0  0  0  0  0  0  0
    1.0491   -6.8434    2.9820 C   0  0  0  0  0  0  0  0  0  0  0  0
    0.0950   -8.8404    3.2292 C   0  0  0  0  0  0  0  0  0  0  0  0
   -0.9173   -8.4596    2.5152 C   0  0  0  0  0  0  0  0  0  0  0  0
   -1.0331   -7.2162    2.0653 C   0  0  0  0  0  0  0  0  0  0  0  0
   -0.0105   -6.3168    2.3081 C   0  0  0  0  0  0  0  0  0  0  0  0
    0.1465  -10.2446    3.6981 S   0  0  0  0  0  0  0  0  0  0  0  0
   -1.0557  -10.6666    4.1668 N   0  0  0  0  0  0  0  0  0  0  0  0
    1.0861  -10.3688    5.0497 O   0  0  0  0  0  0  0  0  0  0  0  0
    0.6669  -11.0377    2.6393 O   0  0  0  0  0  0  0  0  0  0  0  0
   -0.0297   -4.9770    1.8604 F   0  0  0  0  0  0  0  0  0  0  0  0
  3  7  1  0
  7  8  1  0
  7  9  2  0
  7 10  2  0
  6 11  1  0
  1  2  2  0
  2  6  1  0
  5  6  2  0
  4  5  1  0
  3  4  2  0
  1  3  1  0
M  END

$$$$
No_2073-/export/home/yangzhenyu/potential_scad_32_flow//YTHDC2/2024-12-06-03-22-00/
     RDKit          3D

 19 20  0  0  0  0  0  0  0  0999 V2000
    1.1787   -8.0297    3.5154 C   0  0  0  0  0  0  0  0  0  0  0  0
    1.0491   -6.8434    2.9820 C   0  0  0  0  0  0  0  0  0  0  0  0
    0.0950   -8.8404    3.2292 C   0  0  0  0  0  0  0  0  0  0  0  0
   -0.9173   -8.4596    2.5152 C   0  0  0  0  0  0  0  0  0  0  0  0
   -1.0331   -7.2162    2.0653 C   0  0  0  0  0  0  0  0  0  0  0  0
   -0.0105   -6.3168    2.3081 C   0  0  0  0  0  0  0  0  0  0  0  0
    0.1935  -10.3737    3.7416 C   0  0  0  0  0  0  0  0  0  0  0  0
    1.2407  -10.8901    4.0986 C   0  0  0  0  0  0  0  0  0  0  0  0
    1.1186  -12.3145    4.4006 C   0  0  0  0  0  0  0  0  0  0  0  0
    0.8333  -12.9811    3.2728 C   0  0  0  0  0  0  0  0  0  0  0  0
   -0.2759  -12.4547    2.6113 C   0  0  0  0  0  0  0  0  0  0  0  0
   -0.5108  -11.1235    2.7228 C   0  0  0  0  0  0  0  0  0  0  0  0
   -0.1284   -4.8379    1.7805 C   0  0  0  0  0  0  0  0  0  0  0  0
   -0.8346   -4.1038    2.3412 C   0  0  0  0  0  0  0  0  0  0  0  0
    0.9166  -14.4459    3.3234 O   0  0  0  0  0  0  0  0  0  0  0  0
   -1.9787   -4.1286    2.4814 C   0  0  0  0  0  0  0  0  0  0  0  0
   -0.2685   -2.6670    2.4618 C   0  0  0  0  0  0  0  0  0  0  0  0
    1.1700  -15.0575    2.1420 C   0  0  0  0  0  0  0  0  0  0  0  0
    2.1711  -15.8194    2.3219 C   0  0  0  0  0  0  0  0  0  0  0  0
  3  7  1  0
  6 13  1  0
 13 14  1  0
 10 15  1  0
 14 16  2  0
 14 17  1  0
 15 18  1  0
 18 19  1  0
  1  2  2  0
  2  6  1  0
  5  6  2  0
  4  5  1  0
  3  4  2  0
  1  3  1  0
  7  8  2  0
  8  9  1  0
  9 10  2  0
 10 11  1  0
 11 12  2  0
  7 12  1  0
M  END

$$$$
No_2074-/export/home/yangzhenyu/potential_scad_32_flow//YTHDC2/2024-12-06-03-22-00/
     RDKit          3D

 20 21  0  0  1  0  0  0  0  0999 V2000
    1.1787   -8.0297    3.5154 C   0  0  0  0  0  0  0  0  0  0  0  0
    1.0491   -6.8434    2.9820 C   0  0  0  0  0  0  0  0  0  0  0  0
    0.0950   -8.8404    3.2292 C   0  0  0  0  0  0  0  0  0  0  0  0
   -0.9173   -8.4596    2.5152 C   0  0  0  0  0  0  0  0  0  0  0  0
   -0.8043   -7.0775    2.1508 C   0  0  0  0  0  0  0  0  0  0  0  0
    0.0928   -6.2803    2.3573 C   0  0  0  0  0  0  0  0  0  0  0  0
    0.2231   -4.9448    1.9326 C   0  0  2  0  0  0  0  0  0  0  0  0
   -0.3290   -4.5590    0.8179 C   0  0  0  0  0  0  0  0  0  0  0  0
   -0.3744   -3.2038    0.4234 C   0  0  1  0  0  0  0  0  0  0  0  0
    0.5207   -2.2803    1.0303 C   0  0  0  0  0  0  0  0  0  0  0  0
    1.3504   -2.6491    2.0187 C   0  0  0  0  0  0  0  0  0  0  0  0
    1.1672   -3.9910    2.5465 C   0  0  0  0  0  0  0  0  0  0  0  0
    0.1809  -10.4528    3.7567 C   0  0  0  0  0  0  0  0  0  0  0  0
    1.2030  -11.0059    4.2229 Cl  0  0  0  0  0  0  0  0  0  0  0  0
   -1.1366  -10.9120    3.8215 O   0  0  0  0  0  0  0  0  0  0  0  0
   -1.0236   -2.7520   -0.7931 Cl  0  0  0  0  0  0  0  0  0  0  0  0
    1.8891   -4.3342    3.6746 O   0  0  0  0  0  0  0  0  0  0  0  0
   -2.2966   -6.6816    1.2988 O   0  0  0  0  0  0  0  0  0  0  0  0
   -3.2857   -6.4447    2.2427 C   0  0  0  0  0  0  0  0  0  0  0  0
   -3.3873   -5.3915    2.8081 C   0  0  0  0  0  0  0  0  0  0  0  0
  7  6  1  6
  7  8  1  0
  9 10  1  0
  7 12  1  0
 11 12  1  0
  3 13  1  0
 13 14  1  0
 13 15  2  0
  9 16  1  6
 12 17  2  0
  5 18  1  0
 18 19  1  0
 19 20  1  0
  8  9  1  0
 10 11  1  0
  1  2  2  0
  2  6  1  0
  5  6  2  0
  4  5  1  0
  3  4  2  0
  1  3  1  0
M  END

$$$$
No_2075-/export/home/yangzhenyu/potential_scad_32_flow//YTHDC2/2024-12-06-03-22-00/
     RDKit          3D

 18 19  0  0  0  0  0  0  0  0999 V2000
    1.1787   -8.0297    3.5154 C   0  0  0  0  0  0  0  0  0  0  0  0
    1.0491   -6.8434    2.9820 C   0  0  0  0  0  0  0  0  0  0  0  0
    0.0950   -8.8404    3.2292 C   0  0  0  0  0  0  0  0  0  0  0  0
   -0.9173   -8.4596    2.5152 C   0  0  0  0  0  0  0  0  0  0  0  0
   -1.0331   -7.2162    2.0653 C   0  0  0  0  0  0  0  0  0  0  0  0
   -0.0105   -6.3168    2.3081 C   0  0  0  0  0  0  0  0  0  0  0  0
    0.1150   -4.9910    1.8495 F   0  0  0  0  0  0  0  0  0  0  0  0
    0.1328  -10.2569    3.6409 C   0  0  0  0  0  0  0  0  0  0  0  0
   -1.0491  -10.8751    3.9633 C   0  0  0  0  0  0  0  0  0  0  0  0
    1.3879  -10.9692    3.8485 C   0  0  0  0  0  0  0  0  0  0  0  0
    1.4592  -12.2630    4.1378 C   0  0  0  0  0  0  0  0  0  0  0  0
   -1.0057  -12.2739    4.1775 C   0  0  0  0  0  0  0  0  0  0  0  0
    0.3058  -12.9521    4.1838 C   0  0  0  0  0  0  0  0  0  0  0  0
    0.3393  -14.1795    3.6002 C   0  0  0  0  0  0  0  0  0  0  0  0
   -0.7174  -15.0366    3.5266 O   0  0  0  0  0  0  0  0  0  0  0  0
    1.5354  -14.7346    3.0511 O   0  0  0  0  0  0  0  0  0  0  0  0
    1.6187  -16.0602    2.5613 C   0  0  0  0  0  0  0  0  0  0  0  0
    2.9082  -16.5072    2.6515 C   0  0  0  0  0  0  0  0  0  0  0  0
  6  7  1  0
  3  8  1  0
 13 14  1  0
 14 15  2  0
 14 16  1  0
 16 17  1  0
 17 18  1  0
  1  2  2  0
  2  6  1  0
  5  6  2  0
  4  5  1  0
  3  4  2  0
  1  3  1  0
  8  9  2  0
  9 12  1  0
 12 13  2  0
 11 13  1  0
 10 11  2  0
  8 10  1  0
M  END

$$$$
No_2076-/export/home/yangzhenyu/potential_scad_32_flow//YTHDC2/2024-12-06-03-22-00/
     RDKit          3D

 19 20  0  0  0  0  0  0  0  0999 V2000
    1.1787   -8.0297    3.5154 C   0  0  0  0  0  0  0  0  0  0  0  0
    1.1048   -9.2215    3.2892 C   0  0  0  0  0  0  0  0  0  0  0  0
    1.2339   -9.7611    2.0189 C   0  0  0  0  0  0  0  0  0  0  0  0
    1.3583   -9.0036    0.9764 C   0  0  0  0  0  0  0  0  0  0  0  0
    1.5996   -7.6362    1.1311 C   0  0  0  0  0  0  0  0  0  0  0  0
    1.4830   -7.0928    2.3626 C   0  0  0  0  0  0  0  0  0  0  0  0
    1.1008  -11.2372    1.8542 C   0  0  0  0  0  0  0  0  0  0  0  0
    1.9749  -12.0938    2.2342 N   0  0  0  0  0  0  0  0  0  0  0  0
    1.6470  -13.3117    2.5080 C   0  0  0  0  0  0  0  0  0  0  0  0
    2.2420  -14.4140    1.8751 C   0  0  0  0  0  0  0  0  0  0  0  0
    2.0197  -15.7879    2.1939 C   0  0  0  0  0  0  0  0  0  0  0  0
    1.0462  -16.0129    3.1163 C   0  0  0  0  0  0  0  0  0  0  0  0
    0.4004  -14.9468    3.7783 C   0  0  0  0  0  0  0  0  0  0  0  0
    0.6947  -13.6612    3.4817 C   0  0  0  0  0  0  0  0  0  0  0  0
    0.2347  -11.6819    0.7750 O   0  0  0  0  0  0  0  0  0  0  0  0
    1.5397   -5.6648    2.6590 Cl  0  0  0  0  0  0  0  0  0  0  0  0
    0.7758  -17.3946    3.3639 O   0  0  0  0  0  0  0  0  0  0  0  0
    1.5843   -9.4832   -0.3254 C   0  0  0  0  0  0  0  0  0  0  0  0
    1.8456   -8.7758   -1.2665 O   0  0  0  0  0  0  0  0  0  0  0  0
  3  7  1  0
  7  8  1  0
  8  9  1  0
  7 15  2  0
  6 16  1  0
 12 17  1  0
  4 18  1  0
 18 19  2  0
  1  2  2  0
  2  3  1  0
  3  4  2  0
  4  5  1  0
  5  6  2  0
  1  6  1  0
  9 10  2  0
 10 11  1  0
 11 12  2  0
 12 13  1  0
 13 14  2  0
  9 14  1  0
M  END

$$$$
No_2077-/export/home/yangzhenyu/potential_scad_32_flow//YTHDC2/2024-12-06-03-22-00/
     RDKit          3D

 17 18  0  0  1  0  0  0  0  0999 V2000
    1.1787   -8.0297    3.5154 C   0  0  0  0  0  0  0  0  0  0  0  0
    1.1048   -9.2215    3.2892 C   0  0  0  0  0  0  0  0  0  0  0  0
    1.2339   -9.7611    2.0189 C   0  0  0  0  0  0  0  0  0  0  0  0
    1.3583   -9.0036    0.9764 C   0  0  0  0  0  0  0  0  0  0  0  0
    1.5996   -7.6362    1.1311 C   0  0  0  0  0  0  0  0  0  0  0  0
    1.4830   -7.0928    2.3626 C   0  0  0  0  0  0  0  0  0  0  0  0
    1.5395   -5.7300    2.6182 C   0  0  0  0  0  0  0  0  0  0  0  0
    1.1969  -11.3760    1.8433 C   0  0  2  0  0  0  0  0  0  0  0  0
    1.7910  -12.1287    2.5491 C   0  0  0  0  0  0  0  0  0  0  0  0
    1.6251  -13.4926    2.1118 C   0  0  2  0  0  0  0  0  0  0  0  0
    0.9177  -13.8665    1.0867 C   0  0  0  0  0  0  0  0  0  0  0  0
    0.3045  -12.8579    0.2778 C   0  0  0  0  0  0  0  0  0  0  0  0
    0.4464  -11.5554    0.6353 C   0  0  0  0  0  0  0  0  0  0  0  0
    2.2715  -14.5026    2.9519 Cl  0  0  0  0  0  0  0  0  0  0  0  0
    0.6140   -4.8897    2.7773 O   0  0  0  0  0  0  0  0  0  0  0  0
    0.8544   -3.5117    3.1560 C   0  0  0  0  0  0  0  0  0  0  0  0
   -0.1513  -10.6966   -0.1622 O   0  0  0  0  0  0  0  0  0  0  0  0
  6  7  1  0
  8  3  1  6
  8  9  1  0
 10 11  1  0
  8 13  1  0
 12 13  1  0
 10 14  1  1
  7 15  1  0
 15 16  1  0
 13 17  2  0
  9 10  1  0
 11 12  1  0
  1  2  2  0
  2  3  1  0
  3  4  2  0
  4  5  1  0
  5  6  2  0
  1  6  1  0
M  END

$$$$
No_2078-/export/home/yangzhenyu/potential_scad_32_flow//YTHDC2/2024-12-06-03-22-00/
     RDKit          3D

 19 20  0  0  1  0  0  0  0  0999 V2000
    1.1787   -8.0297    3.5154 C   0  0  0  0  0  0  0  0  0  0  0  0
    1.1048   -9.2215    3.2892 C   0  0  0  0  0  0  0  0  0  0  0  0
    1.2339   -9.7611    2.0189 C   0  0  0  0  0  0  0  0  0  0  0  0
    1.3583   -9.0036    0.9764 C   0  0  0  0  0  0  0  0  0  0  0  0
    1.5996   -7.6362    1.1311 C   0  0  0  0  0  0  0  0  0  0  0  0
    1.4830   -7.0928    2.3626 C   0  0  0  0  0  0  0  0  0  0  0  0
    1.5395   -5.7300    2.6182 C   0  0  0  0  0  0  0  0  0  0  0  0
    1.1969  -11.3760    1.8433 C   0  0  2  0  0  0  0  0  0  0  0  0
    1.7910  -12.1287    2.5491 C   0  0  0  0  0  0  0  0  0  0  0  0
    1.6251  -13.4926    2.1118 C   0  0  2  0  0  0  0  0  0  0  0  0
    0.9177  -13.8665    1.0867 C   0  0  0  0  0  0  0  0  0  0  0  0
    0.3045  -12.8579    0.2778 C   0  0  0  0  0  0  0  0  0  0  0  0
    0.4464  -11.5554    0.6353 C   0  0  0  0  0  0  0  0  0  0  0  0
    2.2715  -14.5026    2.9518 Cl  0  0  0  0  0  0  0  0  0  0  0  0
    1.6574   -5.1827    3.8794 O   0  0  0  0  0  0  0  0  0  0  0  0
    1.4046   -4.8418    1.6608 O   0  0  0  0  0  0  0  0  0  0  0  0
   -0.1723  -10.6828   -0.1437 O   0  0  0  0  0  0  0  0  0  0  0  0
    0.9054  -10.0873    4.4264 C   0  0  0  0  0  0  0  0  0  0  0  0
    1.5850  -10.3956    5.3903 O   0  0  0  0  0  0  0  0  0  0  0  0
  6  7  1  0
  8  3  1  6
  8  9  1  0
 10 11  1  0
  8 13  1  0
 12 13  1  0
 10 14  1  1
  7 15  1  0
  7 16  2  0
 13 17  2  0
  2 18  1  0
 18 19  2  0
  9 10  1  0
 11 12  1  0
  1  2  2  0
  2  3  1  0
  3  4  2  0
  4  5  1  0
  5  6  2  0
  1  6  1  0
M  END

$$$$
No_2079-/export/home/yangzhenyu/potential_scad_32_flow//YTHDC2/2024-12-06-03-22-00/
     RDKit          3D

 17 17  0  0  0  0  0  0  0  0999 V2000
    1.1787   -8.0297    3.5154 C   0  0  0  0  0  0  0  0  0  0  0  0
    1.1048   -9.2215    3.2892 C   0  0  0  0  0  0  0  0  0  0  0  0
    1.2339   -9.7611    2.0189 C   0  0  0  0  0  0  0  0  0  0  0  0
    1.3583   -9.0036    0.9764 C   0  0  0  0  0  0  0  0  0  0  0  0
    1.5996   -7.6362    1.1311 C   0  0  0  0  0  0  0  0  0  0  0  0
    1.4830   -7.0928    2.3626 C   0  0  0  0  0  0  0  0  0  0  0  0
    1.1008  -11.2372    1.8542 C   0  0  0  0  0  0  0  0  0  0  0  0
    0.5178  -11.9759    2.3445 C   0  0  0  0  0  0  0  0  0  0  0  0
    0.4575  -13.3705    2.1281 C   0  0  0  0  0  0  0  0  0  0  0  0
    1.1632  -14.1013    2.0451 C   0  0  0  0  0  0  0  0  0  0  0  0
    2.4646  -13.5566    1.4445 C   0  0  0  0  0  0  0  0  0  0  0  0
    1.2467  -15.5603    2.2927 C   0  0  0  0  0  0  0  0  0  0  0  0
    0.3854  -15.9779    3.1650 O   0  0  0  0  0  0  0  0  0  0  0  0
    2.1231  -16.4014    1.8509 O   0  0  0  0  0  0  0  0  0  0  0  0
    1.5556   -5.6572    2.6304 C   0  0  0  0  0  0  0  0  0  0  0  0
    1.7464   -5.1503    3.7705 O   0  0  0  0  0  0  0  0  0  0  0  0
    1.0898   -4.7933    1.6422 O   0  0  0  0  0  0  0  0  0  0  0  0
  3  7  1  0
  7  8  2  3
  8  9  1  0
  9 10  2  3
 10 11  1  0
 10 12  1  0
 12 13  1  0
 12 14  2  0
  6 15  1  0
 15 16  1  0
 15 17  2  0
  1  2  2  0
  2  3  1  0
  3  4  2  0
  4  5  1  0
  5  6  2  0
  1  6  1  0
M  END

$$$$
No_2080-/export/home/yangzhenyu/potential_scad_32_flow//YTHDC2/2024-12-06-03-22-00/
     RDKit          3D

 18 19  0  0  1  0  0  0  0  0999 V2000
    1.1787   -8.0297    3.5154 C   0  0  0  0  0  0  0  0  0  0  0  0
    1.1048   -9.2215    3.2892 C   0  0  0  0  0  0  0  0  0  0  0  0
    1.3627  -10.1721    4.3044 C   0  0  0  0  0  0  0  0  0  0  0  0
    1.0682  -11.5187    4.0618 C   0  0  0  0  0  0  0  0  0  0  0  0
    0.6332  -11.9655    2.9682 C   0  0  0  0  0  0  0  0  0  0  0  0
    0.4776  -11.1308    1.9203 C   0  0  0  0  0  0  0  0  0  0  0  0
    0.7470   -9.8274    2.0368 C   0  0  0  0  0  0  0  0  0  0  0  0
    0.5535   -7.1314    2.6861 C   0  0  0  0  0  0  0  0  0  0  0  0
    0.2950   -7.6000    1.3275 C   0  0  0  0  0  0  0  0  0  0  0  0
    0.2693   -8.8631    1.0973 C   0  0  1  0  0  0  0  0  0  0  0  0
   -0.0513   -6.7125    0.4242 O   0  0  0  0  0  0  0  0  0  0  0  0
    0.4918  -13.3974    2.7285 C   0  0  0  0  0  0  0  0  0  0  0  0
    1.3073  -14.3404    3.2390 C   0  0  0  0  0  0  0  0  0  0  0  0
    1.1245  -15.6941    3.0268 F   0  0  0  0  0  0  0  0  0  0  0  0
    0.0159   -9.2863   -0.1886 C   0  0  0  0  0  0  0  0  0  0  0  0
   -1.1004   -9.9727   -0.3620 C   0  0  0  0  0  0  0  0  0  0  0  0
   -1.4333  -10.3817   -1.7808 C   0  0  0  0  0  0  0  0  0  0  0  0
   -2.4977  -10.3463   -2.2032 C   0  0  0  0  0  0  0  0  0  0  0  0
  1  2  1  0
  8  9  1  0
  7 10  1  0
  9 10  1  0
  9 11  2  0
  5 12  1  0
 12 13  1  0
 13 14  1  0
 10 15  1  6
 15 16  2  3
 16 17  1  0
 17 18  2  0
  1  8  1  0
  2  3  2  0
  3  4  1  0
  4  5  2  0
  5  6  1  0
  6  7  2  0
  2  7  1  0
M  END

$$$$
No_2081-/export/home/yangzhenyu/potential_scad_32_flow//YTHDC2/2024-12-06-03-22-00/
     RDKit          3D

 18 20  0  0  1  0  0  0  0  0999 V2000
    1.1787   -8.0297    3.5154 C   0  0  0  0  0  0  0  0  0  0  0  0
    1.1048   -9.2215    3.2892 C   0  0  0  0  0  0  0  0  0  0  0  0
    1.3627  -10.1721    4.3044 C   0  0  0  0  0  0  0  0  0  0  0  0
    1.0682  -11.5187    4.0618 C   0  0  0  0  0  0  0  0  0  0  0  0
    0.6332  -11.9655    2.9682 C   0  0  0  0  0  0  0  0  0  0  0  0
    0.4776  -11.1308    1.9203 C   0  0  0  0  0  0  0  0  0  0  0  0
    0.7470   -9.8274    2.0368 C   0  0  0  0  0  0  0  0  0  0  0  0
    1.0387   -7.0301    2.5175 N   0  0  0  0  0  0  0  0  0  0  0  0
    1.0482   -5.6912    2.8349 C   0  0  0  0  0  0  0  0  0  0  0  0
    0.4271  -13.4280    2.7942 Cl  0  0  0  0  0  0  0  0  0  0  0  0
    0.6739   -4.7814    1.7889 C   0  0  0  0  0  0  0  0  0  0  0  0
    1.0133   -3.4367    1.9319 C   0  0  0  0  0  0  0  0  0  0  0  0
    1.6930   -3.0682    3.1226 C   0  0  0  0  0  0  0  0  0  0  0  0
    2.0507   -3.9991    4.1145 C   0  0  0  0  0  0  0  0  0  0  0  0
    1.7952   -5.2916    3.9206 C   0  0  0  0  0  0  0  0  0  0  0  0
    0.3372   -8.9415    1.0784 C   0  0  1  0  0  0  0  0  0  0  0  0
    0.7914   -7.4620    1.1486 C   0  0  0  0  0  0  0  0  0  0  0  0
   -0.0377   -9.2257   -0.1711 C   0  0  0  0  0  0  0  0  0  0  0  0
  1  2  1  0
  1  8  1  0
  8  9  1  0
  5 10  1  0
  7 16  1  0
  8 17  1  0
 16 17  1  0
 16 18  1  6
  2  3  2  0
  3  4  1  0
  4  5  2  0
  5  6  1  0
  6  7  2  0
  2  7  1  0
  9 11  2  0
 11 12  1  0
 12 13  2  0
 13 14  1  0
 14 15  2  0
  9 15  1  0
M  END

$$$$
No_2082-/export/home/yangzhenyu/potential_scad_32_flow//YTHDC2/2024-12-06-03-22-00/
     RDKit          3D

 20 21  0  0  0  0  0  0  0  0999 V2000
    1.1787   -8.0297    3.5154 C   0  0  0  0  0  0  0  0  0  0  0  0
    1.1048   -9.2215    3.2892 C   0  0  0  0  0  0  0  0  0  0  0  0
    1.3627  -10.1721    4.3044 C   0  0  0  0  0  0  0  0  0  0  0  0
    1.0682  -11.5187    4.0618 C   0  0  0  0  0  0  0  0  0  0  0  0
    0.6332  -11.9655    2.9682 C   0  0  0  0  0  0  0  0  0  0  0  0
    0.4719  -13.4293    2.7591 C   0  0  0  0  0  0  0  0  0  0  0  0
    1.3208  -14.3288    3.3604 C   0  0  0  0  0  0  0  0  0  0  0  0
    0.7459   -7.1093    2.4923 C   0  0  0  0  0  0  0  0  0  0  0  0
    0.2742   -7.5013    1.3750 C   0  0  0  0  0  0  0  0  0  0  0  0
    0.2016   -8.8240    1.0888 C   0  0  0  0  0  0  0  0  0  0  0  0
    0.6516   -9.8000    2.0275 C   0  0  0  0  0  0  0  0  0  0  0  0
    0.6623  -11.0795    1.7583 C   0  0  0  0  0  0  0  0  0  0  0  0
    1.5420  -15.5825    2.6965 C   0  0  0  0  0  0  0  0  0  0  0  0
    2.5543  -15.7293    1.8487 C   0  0  0  0  0  0  0  0  0  0  0  0
    0.9402   -5.5762    2.6578 Cl  0  0  0  0  0  0  0  0  0  0  0  0
    0.6695  -16.6062    2.9931 C   0  0  0  0  0  0  0  0  0  0  0  0
    0.5193  -11.5491    0.5601 C   0  0  0  0  0  0  0  0  0  0  0  0
   -0.5467  -11.6776    0.0020 O   0  0  0  0  0  0  0  0  0  0  0  0
    1.5826  -12.4072    0.1679 O   0  0  0  0  0  0  0  0  0  0  0  0
    3.5023  -14.7942    1.6014 Cl  0  0  0  0  0  0  0  0  0  0  0  0
  5  6  1  0
  6  7  1  0
  7 13  1  0
 13 14  1  0
  8 15  1  0
 13 16  1  0
 12 17  1  0
 17 18  2  0
 17 19  1  0
 14 20  1  0
  1  2  2  0
 10 11  2  0
  9 10  1  0
  8  9  2  0
  1  8  1  0
  2  3  1  0
  3  4  2  0
  4  5  1  0
  5 12  2  0
 11 12  1  0
  2 11  1  0
M  END

$$$$
No_2083-/export/home/yangzhenyu/potential_scad_32_flow//YTHDC2/2024-12-06-03-22-00/
     RDKit          3D

 18 19  0  0  0  0  0  0  0  0999 V2000
    1.1787   -8.0297    3.5154 N   0  0  0  0  0  0  0  0  0  0  0  0
    1.0818   -9.0751    3.2053 C   0  0  0  0  0  0  0  0  0  0  0  0
    0.7576   -9.3725    1.9159 C   0  0  0  0  0  0  0  0  0  0  0  0
    0.8823   -8.4917    1.0547 C   0  0  0  0  0  0  0  0  0  0  0  0
    1.4631   -7.3107    1.2451 C   0  0  0  0  0  0  0  0  0  0  0  0
    1.6470   -6.9326    2.5669 C   0  0  0  0  0  0  0  0  0  0  0  0
    1.0024  -10.2234    4.2810 C   0  0  0  0  0  0  0  0  0  0  0  0
    0.8214  -11.5596    3.6826 C   0  0  0  0  0  0  0  0  0  0  0  0
    0.6406  -11.8466    2.4643 C   0  0  0  0  0  0  0  0  0  0  0  0
    0.6539  -10.7626    1.5385 C   0  0  0  0  0  0  0  0  0  0  0  0
    0.4525  -13.1454    2.0450 C   0  0  0  0  0  0  0  0  0  0  0  0
   -0.5707  -13.5671    1.3828 C   0  0  0  0  0  0  0  0  0  0  0  0
   -1.7172  -13.0830    1.4966 C   0  0  0  0  0  0  0  0  0  0  0  0
   -2.0664  -12.1037    2.4896 C   0  0  0  0  0  0  0  0  0  0  0  0
   -3.2572  -11.7161    2.7226 C   0  0  0  0  0  0  0  0  0  0  0  0
   -4.3292  -12.2957    2.1072 C   0  0  0  0  0  0  0  0  0  0  0  0
    1.7286   -5.5870    3.0298 C   0  0  0  0  0  0  0  0  0  0  0  0
   -4.0640  -13.2128    1.1227 C   0  0  0  0  0  0  0  0  0  0  0  0
  9 11  1  0
 11 12  1  0
 12 13  2  3
 13 14  1  0
 14 15  2  3
 15 16  1  0
  6 17  1  0
 16 18  2  0
  1  2  2  0
  3  4  2  0
  4  5  1  0
  5  6  2  0
  1  6  1  0
  2  3  1  0
  3 10  1  0
  9 10  2  0
  8  9  1  0
  7  8  2  0
  2  7  1  0
M  END

$$$$
No_2084-/export/home/yangzhenyu/potential_scad_32_flow//YTHDC2/2024-12-06-03-22-00/
     RDKit          3D

 18 20  0  0  1  0  0  0  0  0999 V2000
    1.1787   -8.0297    3.5154 C   0  0  0  0  0  0  0  0  0  0  0  0
    1.0491   -6.8434    2.9820 C   0  0  0  0  0  0  0  0  0  0  0  0
    0.9905   -9.0774    2.6527 C   0  0  0  0  0  0  0  0  0  0  0  0
    0.7897   -8.9519    1.3691 C   0  0  0  0  0  0  0  0  0  0  0  0
    0.7018   -7.7198    0.7892 C   0  0  0  0  0  0  0  0  0  0  0  0
    0.8918   -6.5957    1.6117 C   0  0  0  0  0  0  0  0  0  0  0  0
    1.0774  -10.6059    3.3145 C   0  0  1  0  0  0  0  0  0  0  0  0
   -0.1032  -11.1934    3.4585 C   0  0  0  0  0  0  0  0  0  0  0  0
   -1.2292  -10.4461    3.8202 C   0  0  0  0  0  0  0  0  0  0  0  0
   -2.3855  -10.6231    3.2117 C   0  0  0  0  0  0  0  0  0  0  0  0
   -2.5867  -11.6961    2.4523 C   0  0  0  0  0  0  0  0  0  0  0  0
   -1.5413  -12.5316    2.1595 C   0  0  0  0  0  0  0  0  0  0  0  0
   -0.2676  -12.3009    2.5948 C   0  0  0  0  0  0  0  0  0  0  0  0
    2.2137  -11.2399    2.9331 C   0  0  0  0  0  0  0  0  0  0  0  0
    0.7467  -13.1297    2.2627 C   0  0  0  0  0  0  0  0  0  0  0  0
    2.1225  -12.4429    2.3057 C   0  0  0  0  0  0  0  0  0  0  0  0
    0.7795  -14.3108    1.9391 C   0  0  0  0  0  0  0  0  0  0  0  0
    1.1724  -15.2427    2.2599 C   0  0  0  0  0  0  0  0  0  0  0  0
  7  3  1  6
  7  8  1  0
  7 14  1  0
 13 15  1  0
 14 16  1  0
 15 16  1  0
 15 17  1  0
 17 18  2  0
  1  2  2  0
  2  6  1  0
  5  6  2  0
  4  5  1  0
  3  4  2  0
  1  3  1  0
  8  9  2  0
  9 10  1  0
 10 11  2  0
 11 12  1  0
 12 13  2  0
  8 13  1  0
M  END

$$$$
No_2085-/export/home/yangzhenyu/potential_scad_32_flow//YTHDC2/2024-12-06-03-22-00/
     RDKit          3D

 17 18  0  0  0  0  0  0  0  0999 V2000
    1.1787   -8.0297    3.5154 C   0  0  0  0  0  0  0  0  0  0  0  0
    1.1048   -9.2215    3.2892 C   0  0  0  0  0  0  0  0  0  0  0  0
    1.2339   -9.7611    2.0189 C   0  0  0  0  0  0  0  0  0  0  0  0
    1.1954  -11.2312    1.8661 C   0  0  0  0  0  0  0  0  0  0  0  0
    1.2996  -11.5815    0.5387 C   0  0  0  0  0  0  0  0  0  0  0  0
    1.3263   -7.1208    2.3229 C   0  0  0  0  0  0  0  0  0  0  0  0
    1.3693   -7.6408    1.0625 C   0  0  0  0  0  0  0  0  0  0  0  0
    1.4358   -8.9950    0.8622 C   0  0  0  0  0  0  0  0  0  0  0  0
    1.6034  -10.8414   -0.4738 C   0  0  0  0  0  0  0  0  0  0  0  0
    1.5954   -9.4621   -0.3677 C   0  0  0  0  0  0  0  0  0  0  0  0
    1.7474   -8.6617   -1.3337 O   0  0  0  0  0  0  0  0  0  0  0  0
    1.3241   -5.4242    2.6200 Br  0  0  0  0  0  0  0  0  0  0  0  0
    1.0792  -11.9817    2.9504 C   0  0  0  0  0  0  0  0  0  0  0  0
    1.5265  -13.3291    2.9086 C   0  0  0  0  0  0  0  0  0  0  0  0
    0.9613  -14.3052    2.1520 C   0  0  0  0  0  0  0  0  0  0  0  0
    1.7725  -15.1223    1.3782 C   0  0  0  0  0  0  0  0  0  0  0  0
    3.0975  -15.0442    1.5089 C   0  0  0  0  0  0  0  0  0  0  0  0
  3  4  1  0
  4  5  1  0
  8 10  1  0
  9 10  1  0
 10 11  2  0
  6 12  1  0
  4 13  1  0
 13 14  1  0
 14 15  1  0
 15 16  1  0
 16 17  1  0
  5  9  1  0
  1  2  2  0
  2  3  1  0
  3  8  2  0
  7  8  1  0
  6  7  2  0
  1  6  1  0
M  END

$$$$
No_2086-/export/home/yangzhenyu/potential_scad_32_flow//YTHDC2/2024-12-06-03-22-00/
     RDKit          3D

 19 20  0  0  0  0  0  0  0  0999 V2000
    1.1787   -8.0297    3.5154 C   0  0  0  0  0  0  0  0  0  0  0  0
    1.0491   -6.8434    2.9820 C   0  0  0  0  0  0  0  0  0  0  0  0
    0.0950   -8.8404    3.2292 C   0  0  0  0  0  0  0  0  0  0  0  0
   -0.9173   -8.4596    2.5152 C   0  0  0  0  0  0  0  0  0  0  0  0
   -1.0331   -7.2162    2.0653 C   0  0  0  0  0  0  0  0  0  0  0  0
   -0.0105   -6.3168    2.3081 C   0  0  0  0  0  0  0  0  0  0  0  0
    0.1465  -10.2446    3.6981 C   0  0  0  0  0  0  0  0  0  0  0  0
   -1.0337  -10.8619    3.9439 C   0  0  0  0  0  0  0  0  0  0  0  0
   -2.1702  -10.4673    3.2991 C   0  0  0  0  0  0  0  0  0  0  0  0
   -2.1358   -9.2084    2.5791 C   0  0  0  0  0  0  0  0  0  0  0  0
   -3.3468  -11.1306    3.2649 C   0  0  0  0  0  0  0  0  0  0  0  0
   -0.0443   -4.9791    1.8066 C   0  0  0  0  0  0  0  0  0  0  0  0
    0.8367   -4.0961    2.2091 C   0  0  0  0  0  0  0  0  0  0  0  0
    0.8630   -2.7368    1.6965 C   0  0  0  0  0  0  0  0  0  0  0  0
    1.5540   -1.6799    2.2531 C   0  0  0  0  0  0  0  0  0  0  0  0
   -3.2899  -12.4972    2.9968 C   0  0  0  0  0  0  0  0  0  0  0  0
   -4.3224  -13.3895    3.5696 C   0  0  0  0  0  0  0  0  0  0  0  0
   -5.4150  -12.8416    4.1325 C   0  0  0  0  0  0  0  0  0  0  0  0
   -5.4946  -11.4574    4.4521 C   0  0  0  0  0  0  0  0  0  0  0  0
  9 11  1  0
  6 12  1  0
 12 13  2  3
 13 14  1  0
 14 15  1  0
 11 16  1  0
 16 17  2  3
 17 18  1  0
 18 19  2  0
  4 10  2  0
  9 10  1  0
  8  9  2  0
  7  8  1  0
  3  7  2  0
  1  2  2  0
  2  6  1  0
  5  6  2  0
  4  5  1  0
  3  4  1  0
  1  3  1  0
M  END

$$$$
No_2087-/export/home/yangzhenyu/potential_scad_32_flow//YTHDC2/2024-12-06-03-22-00/
     RDKit          3D

 19 20  0  0  0  0  0  0  0  0999 V2000
    1.1787   -8.0297    3.5154 C   0  0  0  0  0  0  0  0  0  0  0  0
    1.1048   -9.2215    3.2892 C   0  0  0  0  0  0  0  0  0  0  0  0
    1.3627  -10.1721    4.3044 C   0  0  0  0  0  0  0  0  0  0  0  0
    1.0682  -11.5187    4.0618 C   0  0  0  0  0  0  0  0  0  0  0  0
    0.6332  -11.9655    2.9682 C   0  0  0  0  0  0  0  0  0  0  0  0
    0.4776  -11.1308    1.9203 C   0  0  0  0  0  0  0  0  0  0  0  0
    0.7470   -9.8274    2.0368 C   0  0  0  0  0  0  0  0  0  0  0  0
    1.0387   -7.0301    2.5175 C   0  0  0  0  0  0  0  0  0  0  0  0
    0.9130   -7.5288    1.2013 C   0  0  0  0  0  0  0  0  0  0  0  0
    0.7893   -8.7979    0.9542 C   0  0  0  0  0  0  0  0  0  0  0  0
    0.5241   -9.2578   -0.2817 C   0  0  0  0  0  0  0  0  0  0  0  0
    1.2450   -9.2169   -1.2769 N   0  0  0  0  0  0  0  0  0  0  0  0
   -0.8363   -9.2928   -0.6404 O   0  0  0  0  0  0  0  0  0  0  0  0
    0.5219  -13.3834    2.7051 N   0  0  0  0  0  0  0  0  0  0  0  0
    1.5635  -14.3125    2.9344 C   0  0  0  0  0  0  0  0  0  0  0  0
    1.1509  -15.6586    2.7494 C   0  0  0  0  0  0  0  0  0  0  0  0
   -0.0066  -16.0678    3.3089 C   0  0  0  0  0  0  0  0  0  0  0  0
   -0.5160  -17.1467    2.9162 C   0  0  0  0  0  0  0  0  0  0  0  0
    0.0989  -18.1737    2.2419 C   0  0  0  0  0  0  0  0  0  0  0  0
 10 11  1  0
 11 12  1  0
 11 13  2  0
  5 14  1  0
 14 15  1  0
 15 16  1  0
 16 17  1  0
 17 18  2  3
 18 19  1  0
  2  3  1  0
  3  4  2  0
  4  5  1  0
  5  6  2  0
  6  7  1  0
  1  2  2  0
  2  7  1  0
  7 10  2  0
  9 10  1  0
  8  9  2  0
  1  8  1  0
M  END

$$$$
No_2088-/export/home/yangzhenyu/potential_scad_32_flow//YTHDC2/2024-12-06-03-22-00/
     RDKit          3D

 18 18  0  0  0  0  0  0  0  0999 V2000
    1.1787   -8.0297    3.5154 C   0  0  0  0  0  0  0  0  0  0  0  0
    1.1048   -9.2215    3.2892 C   0  0  0  0  0  0  0  0  0  0  0  0
    1.2339   -9.7611    2.0189 C   0  0  0  0  0  0  0  0  0  0  0  0
    1.3583   -9.0036    0.9764 C   0  0  0  0  0  0  0  0  0  0  0  0
    1.5996   -7.6362    1.1311 C   0  0  0  0  0  0  0  0  0  0  0  0
    1.4830   -7.0928    2.3626 C   0  0  0  0  0  0  0  0  0  0  0  0
    1.1008  -11.2372    1.8542 C   0  0  0  0  0  0  0  0  0  0  0  0
    0.5178  -11.9759    2.3445 C   0  0  0  0  0  0  0  0  0  0  0  0
    0.4575  -13.3705    2.1281 C   0  0  0  0  0  0  0  0  0  0  0  0
   -0.4455  -13.9844    1.5572 C   0  0  0  0  0  0  0  0  0  0  0  0
   -1.4581  -13.1036    0.8544 C   0  0  0  0  0  0  0  0  0  0  0  0
   -1.4685  -11.7182    1.1745 C   0  0  0  0  0  0  0  0  0  0  0  0
   -2.6598  -10.9155    0.5834 C   0  0  0  0  0  0  0  0  0  0  0  0
   -2.5943   -9.5293    0.9090 C   0  0  0  0  0  0  0  0  0  0  0  0
   -3.5227   -8.7569    0.2804 C   0  0  0  0  0  0  0  0  0  0  0  0
   -3.3518   -7.3191    0.5749 C   0  0  0  0  0  0  0  0  0  0  0  0
    1.4009  -14.3563    2.6938 C   0  0  0  0  0  0  0  0  0  0  0  0
    1.5633   -5.6489    2.6323 C   0  0  0  0  0  0  0  0  0  0  0  0
  3  7  1  0
  7  8  2  3
  8  9  1  0
  9 10  2  3
 10 11  1  0
 11 12  2  3
 12 13  1  0
 13 14  2  3
 14 15  1  0
 15 16  2  0
  9 17  1  0
  6 18  1  0
  1  2  2  0
  2  3  1  0
  3  4  2  0
  4  5  1  0
  5  6  2  0
  1  6  1  0
M  END

$$$$
No_2089-/export/home/yangzhenyu/potential_scad_32_flow//YTHDC2/2024-12-06-03-22-00/
     RDKit          3D

 19 21  0  0  0  0  0  0  0  0999 V2000
    1.1787   -8.0297    3.5154 C   0  0  0  0  0  0  0  0  0  0  0  0
    1.1048   -9.2215    3.2892 C   0  0  0  0  0  0  0  0  0  0  0  0
    1.3627  -10.1721    4.3044 C   0  0  0  0  0  0  0  0  0  0  0  0
    1.0682  -11.5187    4.0618 C   0  0  0  0  0  0  0  0  0  0  0  0
    0.6332  -11.9655    2.9682 C   0  0  0  0  0  0  0  0  0  0  0  0
    0.4776  -11.1308    1.9203 C   0  0  0  0  0  0  0  0  0  0  0  0
    0.7470   -9.8274    2.0368 C   0  0  0  0  0  0  0  0  0  0  0  0
    1.0387   -7.0301    2.5175 C   0  0  0  0  0  0  0  0  0  0  0  0
    0.9130   -7.5288    1.2013 C   0  0  0  0  0  0  0  0  0  0  0  0
    0.7893   -8.7979    0.9542 C   0  0  0  0  0  0  0  0  0  0  0  0
    0.3998  -13.3695    2.7114 C   0  0  0  0  0  0  0  0  0  0  0  0
    1.2819  -14.3216    3.1282 C   0  0  0  0  0  0  0  0  0  0  0  0
    2.2989  -14.6323    2.7023 C   0  0  0  0  0  0  0  0  0  0  0  0
    2.6523  -15.9893    2.4225 C   0  0  0  0  0  0  0  0  0  0  0  0
    1.8974  -17.0133    2.6848 C   0  0  0  0  0  0  0  0  0  0  0  0
    0.7607  -16.8513    3.3111 C   0  0  0  0  0  0  0  0  0  0  0  0
    0.3082  -15.5123    3.5164 C   0  0  0  0  0  0  0  0  0  0  0  0
    0.4257   -9.3518   -0.4788 C   0  0  0  0  0  0  0  0  0  0  0  0
   -0.4538   -8.6265   -1.1107 O   0  0  0  0  0  0  0  0  0  0  0  0
  5 11  1  0
 11 12  1  0
 10 18  1  0
 18 19  2  0
 12 13  2  0
 13 14  1  0
 14 15  2  0
 15 16  1  0
 16 17  2  0
 12 17  1  0
  2  3  1  0
  3  4  2  0
  4  5  1  0
  5  6  2  0
  6  7  1  0
  1  2  2  0
  2  7  1  0
  7 10  2  0
  9 10  1  0
  8  9  2  0
  1  8  1  0
M  END

$$$$
No_2090-/export/home/yangzhenyu/potential_scad_32_flow//YTHDC2/2024-12-06-03-22-00/
     RDKit          3D

 19 19  0  0  0  0  0  0  0  0999 V2000
    1.1787   -8.0297    3.5154 C   0  0  0  0  0  0  0  0  0  0  0  0
    1.0491   -6.8434    2.9820 C   0  0  0  0  0  0  0  0  0  0  0  0
    1.9985   -8.9840    2.8958 C   0  0  0  0  0  0  0  0  0  0  0  0
    1.1814  -10.1889    2.5497 C   0  0  0  0  0  0  0  0  0  0  0  0
    0.9817  -11.1388    2.8133 C   0  0  0  0  0  0  0  0  0  0  0  0
    0.1125  -12.0891    2.4837 C   0  0  0  0  0  0  0  0  0  0  0  0
   -0.6446  -11.8250    1.4596 C   0  0  0  0  0  0  0  0  0  0  0  0
   -0.2941  -10.7597    0.6431 C   0  0  0  0  0  0  0  0  0  0  0  0
    0.5711   -9.8346    1.1239 C   0  0  0  0  0  0  0  0  0  0  0  0
    1.7128   -5.7488    3.1464 N   0  0  0  0  0  0  0  0  0  0  0  0
    0.9099   -8.6537    0.4760 C   0  0  0  0  0  0  0  0  0  0  0  0
    2.0634   -8.4214   -0.1130 C   0  0  0  0  0  0  0  0  0  0  0  0
    2.8952   -9.2964   -0.3844 O   0  0  0  0  0  0  0  0  0  0  0  0
    2.5300   -7.2063   -0.2568 O   0  0  0  0  0  0  0  0  0  0  0  0
    1.3466   -4.5328    2.5873 C   0  0  0  0  0  0  0  0  0  0  0  0
   -0.1260  -13.3383    3.1913 C   0  0  0  0  0  0  0  0  0  0  0  0
    1.0685  -14.1338    3.4800 C   0  0  0  0  0  0  0  0  0  0  0  0
    0.8310  -15.5944    3.4189 C   0  0  0  0  0  0  0  0  0  0  0  0
    1.8039  -16.3509    2.7080 C   0  0  0  0  0  0  0  0  0  0  0  0
  1  2  1  0
  1  3  1  0
  3  4  1  0
  2 10  1  0
  9 11  1  0
 11 12  1  0
 12 13  2  0
 12 14  1  0
 10 15  1  0
  6 16  1  0
 16 17  1  0
 17 18  1  0
 18 19  1  0
  4  5  2  0
  5  6  1  0
  6  7  2  0
  7  8  1  0
  8  9  2  0
  4  9  1  0
M  END

$$$$
No_2091-/export/home/yangzhenyu/potential_scad_32_flow//YTHDC2/2024-12-06-03-22-00/
     RDKit          3D

 20 21  0  0  0  0  0  0  0  0999 V2000
    1.1787   -8.0297    3.5154 N   0  0  0  0  0  0  0  0  0  0  0  0
    1.0818   -9.0751    3.2053 C   0  0  0  0  0  0  0  0  0  0  0  0
    0.7576   -9.3725    1.9159 C   0  0  0  0  0  0  0  0  0  0  0  0
    0.7445  -10.8746    1.6491 C   0  0  0  0  0  0  0  0  0  0  0  0
    0.9910  -11.7526    2.6067 C   0  0  0  0  0  0  0  0  0  0  0  0
    1.4405  -11.4331    3.8064 C   0  0  0  0  0  0  0  0  0  0  0  0
    1.4304  -10.0463    4.1669 C   0  0  0  0  0  0  0  0  0  0  0  0
    1.1048   -6.8241    2.6625 C   0  0  0  0  0  0  0  0  0  0  0  0
    0.9671   -7.2362    1.3168 C   0  0  0  0  0  0  0  0  0  0  0  0
    0.8766   -8.4752    0.9274 C   0  0  0  0  0  0  0  0  0  0  0  0
    0.9092  -13.1707    2.3132 C   0  0  0  0  0  0  0  0  0  0  0  0
    1.7587  -14.0612    2.6315 O   0  0  0  0  0  0  0  0  0  0  0  0
   -0.2618  -13.6685    1.9260 O   0  0  0  0  0  0  0  0  0  0  0  0
    1.3302   -5.4962    3.1321 C   0  0  0  0  0  0  0  0  0  0  0  0
    0.6425   -8.7488   -0.4256 C   0  0  0  0  0  0  0  0  0  0  0  0
    1.4428   -8.9020   -1.2870 O   0  0  0  0  0  0  0  0  0  0  0  0
   -0.6247   -9.1892   -0.8540 O   0  0  0  0  0  0  0  0  0  0  0  0
    1.9743  -15.2583    2.0846 C   0  0  0  0  0  0  0  0  0  0  0  0
    2.6694  -16.0257    2.2396 C   0  0  0  0  0  0  0  0  0  0  0  0
    2.5045  -17.4589    2.0042 C   0  0  0  0  0  0  0  0  0  0  0  0
  5 11  1  0
 11 12  1  0
 11 13  2  0
  8 14  1  0
 10 15  1  0
 15 16  2  0
 15 17  1  0
 12 18  1  0
 18 19  1  0
 19 20  2  0
  3  4  1  0
  4  5  2  0
  5  6  1  0
  6  7  2  0
  2  7  1  0
  1  2  2  0
  2  3  1  0
  3 10  2  0
  9 10  1  0
  8  9  2  0
  1  8  1  0
M  END

$$$$
No_2092-/export/home/yangzhenyu/potential_scad_32_flow//YTHDC2/2024-12-06-03-22-00/
     RDKit          3D

 19 19  0  0  1  0  0  0  0  0999 V2000
    1.1787   -8.0297    3.5154 C   0  0  0  0  0  0  0  0  0  0  0  0
    1.1048   -9.2215    3.2892 C   0  0  0  0  0  0  0  0  0  0  0  0
    1.2339   -9.7611    2.0189 C   0  0  0  0  0  0  0  0  0  0  0  0
    1.3583   -9.0036    0.9764 C   0  0  0  0  0  0  0  0  0  0  0  0
    1.5996   -7.6362    1.1311 C   0  0  0  0  0  0  0  0  0  0  0  0
    1.4830   -7.0928    2.3626 C   0  0  0  0  0  0  0  0  0  0  0  0
    1.1171  -11.3311    1.8661 C   0  0  0  0  0  0  0  0  0  0  0  0
    1.9975  -12.1095    2.2478 C   0  0  1  0  0  0  0  0  0  0  0  0
    1.9221  -12.5193    3.3839 C   0  0  0  0  0  0  0  0  0  0  0  0
    1.5242  -11.7933    4.2621 C   0  0  0  0  0  0  0  0  0  0  0  0
    1.5376   -5.6803    2.6431 C   0  0  0  0  0  0  0  0  0  0  0  0
    2.1016  -13.2317    1.2092 C   0  0  0  0  0  0  0  0  0  0  0  0
    0.6467   -4.8571    2.6103 C   0  0  0  0  0  0  0  0  0  0  0  0
    0.7552   -3.4495    2.8737 C   0  0  0  0  0  0  0  0  0  0  0  0
   -0.6011   -5.1283    1.6510 C   0  0  0  0  0  0  0  0  0  0  0  0
   -1.6324   -4.2343    1.6862 O   0  0  0  0  0  0  0  0  0  0  0  0
   -0.7935   -6.1988    1.0133 O   0  0  0  0  0  0  0  0  0  0  0  0
    1.7338   -9.5166   -0.5125 C   0  0  0  0  0  0  0  0  0  0  0  0
    2.6937   -9.8633   -0.7776 O   0  0  0  0  0  0  0  0  0  0  0  0
  3  7  1  0
  7  8  1  0
  8  9  1  0
  9 10  1  0
  6 11  1  0
  8 12  1  6
 11 13  2  3
 13 14  1  0
 13 15  1  0
 15 16  1  0
 15 17  2  0
  4 18  1  0
 18 19  1  0
  1  2  2  0
  2  3  1  0
  3  4  2  0
  4  5  1  0
  5  6  2  0
  1  6  1  0
M  END

$$$$
No_2093-/export/home/yangzhenyu/potential_scad_32_flow//YTHDC2/2024-12-06-03-22-00/
     RDKit          3D

 18 19  0  0  1  0  0  0  0  0999 V2000
    1.1787   -8.0297    3.5154 N   0  0  0  0  0  0  0  0  0  0  0  0
    0.8669   -7.0905    2.8589 C   0  0  1  0  0  0  0  0  0  0  0  0
    0.8842   -5.8387    3.2677 C   0  0  0  0  0  0  0  0  0  0  0  0
    1.2819   -9.4050    3.1259 C   0  0  1  0  0  0  0  0  0  0  0  0
    1.6248  -10.3891    4.1371 C   0  0  0  0  0  0  0  0  0  0  0  0
    0.9194   -9.9202    1.9389 C   0  0  1  0  0  0  0  0  0  0  0  0
    0.6544   -8.9289    0.9288 C   0  0  0  0  0  0  0  0  0  0  0  0
    0.6522   -7.5322    1.3555 C   0  0  0  0  0  0  0  0  0  0  0  0
    1.9503  -11.7761    3.6138 C   0  0  0  0  0  0  0  0  0  0  0  0
    1.5739  -12.1663    2.4296 C   0  0  2  0  0  0  0  0  0  0  0  0
    1.9133  -13.4760    1.8526 O   0  0  0  0  0  0  0  0  0  0  0  0
    1.0535  -11.2845    1.5226 C   0  0  0  0  0  0  0  0  0  0  0  0
    0.2574   -6.5312    0.5629 O   0  0  0  0  0  0  0  0  0  0  0  0
    2.1237   -5.0921    3.4402 C   0  0  0  0  0  0  0  0  0  0  0  0
    0.7348  -11.6094    0.3369 O   0  0  0  0  0  0  0  0  0  0  0  0
    1.6870   -3.7167    3.8648 O   0  0  0  0  0  0  0  0  0  0  0  0
    1.7473   -2.6717    2.9733 C   0  0  0  0  0  0  0  0  0  0  0  0
    2.1079  -14.5400    2.7381 C   0  0  0  0  0  0  0  0  0  0  0  0
  1  2  1  0
  2  3  1  6
  4  5  1  1
  4  6  1  0
  2  8  1  0
  7  8  1  0
  9 10  1  0
 10 11  1  6
  6 12  1  0
 10 12  1  0
  8 13  2  0
  3 14  1  0
 12 15  2  0
 14 16  1  0
 16 17  1  0
 11 18  1  0
  1  4  1  0
  6  7  1  6
  5  9  1  0
M  END

$$$$
No_2094-/export/home/yangzhenyu/potential_scad_32_flow//YTHDC2/2024-12-06-03-22-00/
     RDKit          3D

 19 19  0  0  1  0  0  0  0  0999 V2000
    1.1787   -8.0297    3.5154 C   0  0  0  0  0  0  0  0  0  0  0  0
    1.0491   -6.8434    2.9820 C   0  0  0  0  0  0  0  0  0  0  0  0
    0.9905   -9.0774    2.6527 C   0  0  0  0  0  0  0  0  0  0  0  0
    0.7897   -8.9519    1.3691 C   0  0  0  0  0  0  0  0  0  0  0  0
    0.7018   -7.7198    0.7892 C   0  0  0  0  0  0  0  0  0  0  0  0
    0.8918   -6.5957    1.6117 C   0  0  0  0  0  0  0  0  0  0  0  0
    1.0600  -10.5680    3.3321 C   0  0  0  0  0  0  0  0  0  0  0  0
    1.1634  -11.6086    2.5010 C   0  0  0  0  0  0  0  0  0  0  0  0
    1.3344  -12.8974    3.1596 C   0  0  0  0  0  0  0  0  0  0  0  0
    1.1355  -14.0095    2.4199 C   0  0  1  0  0  0  0  0  0  0  0  0
    0.2298  -14.2909    1.6470 Cl  0  0  0  0  0  0  0  0  0  0  0  0
    0.8431   -5.2609    1.1994 C   0  0  0  0  0  0  0  0  0  0  0  0
    2.5586  -14.6098    2.0504 C   0  0  0  0  0  0  0  0  0  0  0  0
    1.5015   -4.2933    1.8966 O   0  0  0  0  0  0  0  0  0  0  0  0
   -0.1048   -4.7854    0.4823 O   0  0  0  0  0  0  0  0  0  0  0  0
    2.6111  -15.9206    1.9674 C   0  0  0  0  0  0  0  0  0  0  0  0
    1.5839  -16.7534    2.6279 C   0  0  0  0  0  0  0  0  0  0  0  0
    1.4877  -17.4571    3.3384 C   0  0  0  0  0  0  0  0  0  0  0  0
    0.7495  -18.5744    4.1155 C   0  0  0  0  0  0  0  0  0  0  0  0
  3  7  1  0
  7  8  2  3
  8  9  1  0
  9 10  1  0
 10 11  1  6
  6 12  1  0
 10 13  1  0
 12 14  1  0
 12 15  2  0
 13 16  2  3
 16 17  1  0
 17 18  3  0
 18 19  1  0
  1  2  2  0
  2  6  1  0
  5  6  2  0
  4  5  1  0
  3  4  2  0
  1  3  1  0
M  END

$$$$
No_2095-/export/home/yangzhenyu/potential_scad_32_flow//YTHDC2/2024-12-06-03-22-00/
     RDKit          3D

 18 19  0  0  1  0  0  0  0  0999 V2000
    1.1787   -8.0297    3.5154 C   0  0  0  0  0  0  0  0  0  0  0  0
    1.1048   -9.2215    3.2892 C   0  0  0  0  0  0  0  0  0  0  0  0
    1.2339   -9.7611    2.0189 C   0  0  0  0  0  0  0  0  0  0  0  0
    1.3583   -9.0036    0.9764 C   0  0  0  0  0  0  0  0  0  0  0  0
    1.5996   -7.6362    1.1311 C   0  0  0  0  0  0  0  0  0  0  0  0
    1.4830   -7.0928    2.3626 C   0  0  0  0  0  0  0  0  0  0  0  0
    1.1008  -11.2372    1.8542 N   0  0  0  0  0  0  0  0  0  0  0  0
    1.9253  -12.1082    2.1966 C   0  0  0  0  0  0  0  0  0  0  0  0
    1.6496  -13.4126    1.7623 C   0  0  0  0  0  0  0  0  0  0  0  0
    2.0318  -14.4736    2.4916 C   0  0  0  0  0  0  0  0  0  0  0  0
    1.2633  -15.5984    2.5756 C   0  0  2  0  0  0  0  0  0  0  0  0
   -0.1008  -15.4818    2.7250 C   0  0  0  0  0  0  0  0  0  0  0  0
   -0.8527  -16.6041    3.0988 S   0  0  0  0  0  0  0  0  0  0  0  0
    0.3554  -17.6672    3.4524 C   0  0  0  0  0  0  0  0  0  0  0  0
    1.5381  -16.9557    3.0777 C   0  0  1  0  0  0  0  0  0  0  0  0
    1.5280   -5.6648    2.6826 C   0  0  0  0  0  0  0  0  0  0  0  0
    2.8386  -17.4075    3.0631 C   0  0  0  0  0  0  0  0  0  0  0  0
    3.1690  -18.5996    3.5561 O   0  0  0  0  0  0  0  0  0  0  0  0
  3  7  1  0
  7  8  1  0
  8  9  1  0
  9 10  1  0
 11 10  1  1
 11 12  1  0
 12 13  1  0
 13 14  1  0
 11 15  1  0
 14 15  1  0
  6 16  1  0
 15 17  1  6
 17 18  1  0
  1  2  2  0
  2  3  1  0
  3  4  2  0
  4  5  1  0
  5  6  2  0
  1  6  1  0
M  END

$$$$
No_2096-/export/home/yangzhenyu/potential_scad_32_flow//YTHDC2/2024-12-06-03-22-00/
     RDKit          3D

 19 20  0  0  1  0  0  0  0  0999 V2000
    1.1787   -8.0297    3.5154 C   0  0  0  0  0  0  0  0  0  0  0  0
    1.1048   -9.2215    3.2892 C   0  0  0  0  0  0  0  0  0  0  0  0
    1.3627  -10.1721    4.3044 C   0  0  0  0  0  0  0  0  0  0  0  0
    1.7354  -11.4730    3.9023 C   0  0  0  0  0  0  0  0  0  0  0  0
    1.6166  -11.5515    2.5159 C   0  0  1  0  0  0  0  0  0  0  0  0
    1.4080  -10.1475    2.0704 C   0  0  0  0  0  0  0  0  0  0  0  0
    0.6131   -7.0752    2.5759 C   0  0  0  0  0  0  0  0  0  0  0  0
    0.2423   -7.6345    1.3565 C   0  0  0  0  0  0  0  0  0  0  0  0
    0.7492   -9.0993    1.0947 C   0  0  0  0  0  0  0  0  0  0  0  0
    1.7198  -12.4113    1.6668 C   0  0  0  0  0  0  0  0  0  0  0  0
    1.3842  -12.2768    0.3139 O   0  0  0  0  0  0  0  0  0  0  0  0
    2.0452  -13.7049    2.0006 N   0  0  0  0  0  0  0  0  0  0  0  0
    0.4649   -5.6811    2.6702 C   0  0  0  0  0  0  0  0  0  0  0  0
    0.8356   -4.8835    1.6690 C   0  0  0  0  0  0  0  0  0  0  0  0
    1.4564   -3.6171    1.9020 C   0  0  0  0  0  0  0  0  0  0  0  0
    2.1689  -14.8364    1.2033 C   0  0  0  0  0  0  0  0  0  0  0  0
    1.5389  -15.9663    1.9522 C   0  0  0  0  0  0  0  0  0  0  0  0
    1.1177  -15.9057    3.1313 C   0  0  0  0  0  0  0  0  0  0  0  0
    0.6278  -17.0531    3.8586 C   0  0  0  0  0  0  0  0  0  0  0  0
  2  3  1  0
  3  4  2  0
  4  5  1  0
  5  6  1  0
  5 10  1  6
 10 11  2  0
 10 12  1  0
  7 13  1  0
 13 14  1  0
 14 15  1  0
 12 16  1  0
 16 17  1  0
 17 18  1  0
 18 19  2  0
  1  2  2  0
  2  6  1  0
  6  9  2  0
  8  9  1  0
  7  8  2  0
  1  7  1  0
M  END

$$$$
No_2097-/export/home/yangzhenyu/potential_scad_32_flow//YTHDC2/2024-12-06-03-22-00/
     RDKit          3D

 18 19  0  0  0  0  0  0  0  0999 V2000
    1.1787   -8.0297    3.5154 C   0  0  0  0  0  0  0  0  0  0  0  0
    1.0491   -6.8434    2.9820 C   0  0  0  0  0  0  0  0  0  0  0  0
    0.0950   -8.8404    3.2292 C   0  0  0  0  0  0  0  0  0  0  0  0
   -0.9173   -8.4596    2.5152 C   0  0  0  0  0  0  0  0  0  0  0  0
   -1.0331   -7.2162    2.0653 C   0  0  0  0  0  0  0  0  0  0  0  0
   -0.0105   -6.3168    2.3081 C   0  0  0  0  0  0  0  0  0  0  0  0
    0.0485   -4.9783    1.8782 C   0  0  0  0  0  0  0  0  0  0  0  0
   -0.4744   -4.1559    2.2381 N   0  0  0  0  0  0  0  0  0  0  0  0
    0.2200  -10.4585    3.7735 C   0  0  0  0  0  0  0  0  0  0  0  0
   -0.9481  -11.1513    3.5499 C   0  0  0  0  0  0  0  0  0  0  0  0
    1.2671  -10.7834    4.6004 C   0  0  0  0  0  0  0  0  0  0  0  0
    1.4131  -12.1552    4.6504 C   0  0  0  0  0  0  0  0  0  0  0  0
   -0.8027  -12.4900    3.7539 C   0  0  0  0  0  0  0  0  0  0  0  0
    0.4893  -12.9774    4.2443 C   0  0  0  0  0  0  0  0  0  0  0  0
    0.9017   -4.6838    0.8025 N   0  0  0  0  0  0  0  0  0  0  0  0
   -0.6048   -3.1366    2.1333 C   0  0  0  0  0  0  0  0  0  0  0  0
   -1.4468   -2.3636    1.6094 C   0  0  0  0  0  0  0  0  0  0  0  0
   -2.6501   -3.0519    1.2000 C   0  0  0  0  0  0  0  0  0  0  0  0
  6  7  1  0
  7  8  2  3
  3  9  1  0
  7 15  1  0
  8 16  1  0
 16 17  1  0
 17 18  1  0
  9 10  2  0
 10 13  1  0
 13 14  2  0
 12 14  1  0
 11 12  2  0
  9 11  1  0
  1  2  2  0
  2  6  1  0
  5  6  2  0
  4  5  1  0
  3  4  2  0
  1  3  1  0
M  END

$$$$
No_2098-/export/home/yangzhenyu/potential_scad_32_flow//YTHDC2/2024-12-06-03-22-00/
     RDKit          3D

 21 21  0  0  1  0  0  0  0  0999 V2000
    1.1787   -8.0297    3.5154 C   0  0  0  0  0  0  0  0  0  0  0  0
    1.0491   -6.8434    2.9820 C   0  0  0  0  0  0  0  0  0  0  0  0
    0.9905   -9.0774    2.6527 C   0  0  0  0  0  0  0  0  0  0  0  0
    0.7897   -8.9519    1.3691 C   0  0  0  0  0  0  0  0  0  0  0  0
    0.7018   -7.7198    0.7892 C   0  0  0  0  0  0  0  0  0  0  0  0
    0.8918   -6.5957    1.6117 C   0  0  0  0  0  0  0  0  0  0  0  0
    1.0711  -10.4814    3.2282 C   0  0  2  0  0  0  0  0  0  0  0  0
   -0.1055  -11.1328    3.5223 C   0  0  0  0  0  0  0  0  0  0  0  0
   -0.1824  -12.4513    3.3816 F   0  0  0  0  0  0  0  0  0  0  0  0
   -0.9437  -10.5857    4.2049 F   0  0  0  0  0  0  0  0  0  0  0  0
    0.8465   -5.3062    1.0932 O   0  0  0  0  0  0  0  0  0  0  0  0
    1.9863  -10.4673    4.4045 C   0  0  0  0  0  0  0  0  0  0  0  0
    1.2079   -4.2261    1.8755 C   0  0  0  0  0  0  0  0  0  0  0  0
    2.6725  -11.8966    4.2569 O   0  0  0  0  0  0  0  0  0  0  0  0
    0.6007  -10.0836    0.4031 C   0  0  0  0  0  0  0  0  0  0  0  0
    1.6384  -10.9289    0.2607 O   0  0  0  0  0  0  0  0  0  0  0  0
   -0.3839  -10.2243   -0.4347 N   0  0  0  0  0  0  0  0  0  0  0  0
   -0.6403  -11.1871   -1.2815 C   0  0  0  0  0  0  0  0  0  0  0  0
   -1.5570  -12.1457   -0.5144 C   0  0  0  0  0  0  0  0  0  0  0  0
   -2.5094  -11.5606    0.1859 C   0  0  0  0  0  0  0  0  0  0  0  0
   -2.6500  -11.8915    1.4603 C   0  0  0  0  0  0  0  0  0  0  0  0
  3  7  1  0
  7  8  1  0
  8  9  1  0
  8 10  1  0
  6 11  1  0
  7 12  1  1
 11 13  1  0
 12 14  1  0
  4 15  1  0
 15 16  2  0
 15 17  1  0
 17 18  1  0
 18 19  1  0
 19 20  1  0
 20 21  1  0
  1  2  2  0
  2  6  1  0
  5  6  2  0
  4  5  1  0
  3  4  2  0
  1  3  1  0
M  END

$$$$
No_2099-/export/home/yangzhenyu/potential_scad_32_flow//YTHDC2/2024-12-06-03-22-00/
     RDKit          3D

 18 20  0  0  0  0  0  0  0  0999 V2000
    1.1787   -8.0297    3.5154 C   0  0  0  0  0  0  0  0  0  0  0  0
    1.0491   -6.8434    2.9820 N   0  0  0  0  0  0  0  0  0  0  0  0
    0.1476   -8.8697    3.1493 C   0  0  0  0  0  0  0  0  0  0  0  0
   -0.7634   -8.3679    2.4311 C   0  0  0  0  0  0  0  0  0  0  0  0
   -0.1709   -6.9105    2.2426 C   0  0  0  0  0  0  0  0  0  0  0  0
    0.1990  -10.3018    3.6029 C   0  0  0  0  0  0  0  0  0  0  0  0
   -0.9187  -10.9695    3.5830 C   0  0  0  0  0  0  0  0  0  0  0  0
    1.2396  -10.7996    4.4673 C   0  0  0  0  0  0  0  0  0  0  0  0
    1.8211  -11.8500    4.0311 C   0  0  0  0  0  0  0  0  0  0  0  0
    0.9118  -12.7976    3.4792 C   0  0  0  0  0  0  0  0  0  0  0  0
   -0.3908  -12.4476    3.2377 C   0  0  0  0  0  0  0  0  0  0  0  0
    1.1811  -14.1692    3.5131 O   0  0  0  0  0  0  0  0  0  0  0  0
   -0.7388   -5.8121    1.6072 C   0  0  0  0  0  0  0  0  0  0  0  0
   -0.3388   -4.6733    1.6379 C   0  0  0  0  0  0  0  0  0  0  0  0
   -0.9616   -3.5390    1.0991 N   0  0  0  0  0  0  0  0  0  0  0  0
   -1.9943   -5.9558    0.7810 C   0  0  0  0  0  0  0  0  0  0  0  0
   -2.5571   -5.0940    0.2236 C   0  0  0  0  0  0  0  0  0  0  0  0
   -2.0882   -3.7628    0.3727 C   0  0  0  0  0  0  0  0  0  0  0  0
  1  2  1  0
  1  3  2  0
  3  4  1  0
  2  5  1  0
  4  5  2  0
  3  6  1  0
 10 12  1  0
  5 13  1  0
 13 14  2  0
 14 15  1  0
 15 18  2  0
 17 18  1  0
 16 17  2  0
 13 16  1  0
  6  7  2  0
  7 11  1  0
 10 11  2  0
  9 10  1  0
  8  9  2  0
  6  8  1  0
M  END

$$$$
No_2100-/export/home/yangzhenyu/potential_scad_32_flow//YTHDC2/2024-12-06-03-22-00/
     RDKit          3D

 19 20  0  0  0  0  0  0  0  0999 V2000
    1.1787   -8.0297    3.5154 C   0  0  0  0  0  0  0  0  0  0  0  0
    1.0491   -6.8434    2.9820 C   0  0  0  0  0  0  0  0  0  0  0  0
    0.0950   -8.8404    3.2292 C   0  0  0  0  0  0  0  0  0  0  0  0
   -0.9173   -8.4596    2.5152 C   0  0  0  0  0  0  0  0  0  0  0  0
   -1.0331   -7.2162    2.0653 C   0  0  0  0  0  0  0  0  0  0  0  0
   -0.0105   -6.3168    2.3081 C   0  0  0  0  0  0  0  0  0  0  0  0
    0.1465  -10.2446    3.6981 C   0  0  0  0  0  0  0  0  0  0  0  0
    1.2433  -10.8239    4.0166 C   0  0  0  0  0  0  0  0  0  0  0  0
    1.0790  -12.2885    4.3779 C   0  0  0  0  0  0  0  0  0  0  0  0
    0.8834  -12.9822    3.2583 C   0  0  0  0  0  0  0  0  0  0  0  0
    0.0265  -12.5445    2.3035 C   0  0  0  0  0  0  0  0  0  0  0  0
   -0.3056  -11.1111    2.4912 C   0  0  0  0  0  0  0  0  0  0  0  0
    1.1104  -14.4324    3.2943 C   0  0  0  0  0  0  0  0  0  0  0  0
    0.8881  -15.2045    2.1918 C   0  0  0  0  0  0  0  0  0  0  0  0
    0.4923  -16.3943    2.3551 C   0  0  0  0  0  0  0  0  0  0  0  0
   -0.0824   -4.8049    1.8201 Cl  0  0  0  0  0  0  0  0  0  0  0  0
    0.9693  -17.4012    1.9046 N   0  0  0  0  0  0  0  0  0  0  0  0
   -0.4834  -16.5979    3.3895 C   0  0  0  0  0  0  0  0  0  0  0  0
    1.7209  -17.3470    1.2321 H   0  0  0  0  0  0  0  0  0  0  0  0
  3  7  1  0
 10 13  1  0
 13 14  1  0
 14 15  1  0
  6 16  1  0
 15 17  2  0
 15 18  1  0
  1  2  2  0
  2  6  1  0
  5  6  2  0
  4  5  1  0
  3  4  2  0
  1  3  1  0
  7  8  2  0
  8  9  1  0
  9 10  2  0
 10 11  1  0
 11 12  2  0
  7 12  1  0
 17 19  1  0
M  END

$$$$
No_2101-/export/home/yangzhenyu/potential_scad_32_flow//YTHDC2/2024-12-06-03-22-00/
     RDKit          3D

 21 22  0  0  1  0  0  0  0  0999 V2000
    1.1787   -8.0297    3.5154 C   0  0  0  0  0  0  0  0  0  0  0  0
    1.1048   -9.2215    3.2892 C   0  0  0  0  0  0  0  0  0  0  0  0
    1.3627  -10.1721    4.3044 C   0  0  0  0  0  0  0  0  0  0  0  0
    1.0682  -11.5187    4.0618 C   0  0  0  0  0  0  0  0  0  0  0  0
    0.6332  -11.9655    2.9682 C   0  0  0  0  0  0  0  0  0  0  0  0
    0.4776  -11.1308    1.9203 C   0  0  0  0  0  0  0  0  0  0  0  0
    0.7470   -9.8274    2.0368 C   0  0  0  0  0  0  0  0  0  0  0  0
    1.8804   -7.1616    3.5539 N   0  0  0  0  0  0  0  0  0  0  0  0
    0.3734  -13.4254    2.7840 Cl  0  0  0  0  0  0  0  0  0  0  0  0
   -0.2556   -7.5441    3.6524 N   0  0  0  0  0  0  0  0  0  0  0  0
    0.7858   -8.9127    0.9782 C   0  0  0  0  0  0  0  0  0  0  0  0
    1.0322   -8.9269   -0.0058 O   0  0  0  0  0  0  0  0  0  0  0  0
    0.1223   -7.6528    1.1906 N   0  0  0  0  0  0  0  0  0  0  0  0
   -0.4229   -6.9993    2.3414 C   0  0  1  0  0  0  0  0  0  0  0  0
   -1.2909   -5.9772    2.0308 C   0  0  0  0  0  0  0  0  0  0  0  0
   -0.6700   -4.6707    2.0281 C   0  0  0  0  0  0  0  0  0  0  0  0
   -0.1359   -4.2447    1.2715 C   0  0  0  0  0  0  0  0  0  0  0  0
    0.5900   -2.9443    1.4738 C   0  0  0  0  0  0  0  0  0  0  0  0
    0.2825   -2.2367    2.6110 C   0  0  0  0  0  0  0  0  0  0  0  0
   -0.3539   -2.8523    3.6140 C   0  0  0  0  0  0  0  0  0  0  0  0
    2.8722   -7.3081    3.4317 H   0  0  0  0  0  0  0  0  0  0  0  0
  1  2  1  0
  1  8  2  0
  5  9  1  0
  1 10  1  0
  7 11  1  0
 11 12  2  0
 11 13  1  0
 10 14  1  0
 13 14  1  0
 14 15  1  6
 15 16  1  0
 16 17  2  3
 17 18  1  0
 18 19  2  3
 19 20  1  0
  2  3  2  0
  3  4  1  0
  4  5  2  0
  5  6  1  0
  6  7  2  0
  2  7  1  0
  8 21  1  0
M  END

$$$$
No_2102-/export/home/yangzhenyu/potential_scad_32_flow//YTHDC2/2024-12-06-03-22-00/
     RDKit          3D

 18 18  0  0  1  0  0  0  0  0999 V2000
    1.1787   -8.0297    3.5154 C   0  0  0  0  0  0  0  0  0  0  0  0
    1.1048   -9.2215    3.2892 C   0  0  0  0  0  0  0  0  0  0  0  0
    1.3627  -10.1721    4.3044 C   0  0  0  0  0  0  0  0  0  0  0  0
    1.0682  -11.5187    4.0618 C   0  0  0  0  0  0  0  0  0  0  0  0
    0.6332  -11.9655    2.9682 C   0  0  1  0  0  0  0  0  0  0  0  0
    0.4776  -11.1308    1.9203 C   0  0  0  0  0  0  0  0  0  0  0  0
    0.7470   -9.8274    2.0368 C   0  0  0  0  0  0  0  0  0  0  0  0
    0.5535   -7.1314    2.6861 N   0  0  0  0  0  0  0  0  0  0  0  0
    0.8107   -5.6615    2.8397 C   0  0  1  0  0  0  0  0  0  0  0  0
    1.5892   -5.3057    3.8098 C   0  0  0  0  0  0  0  0  0  0  0  0
    0.3885   -4.8768    1.8708 C   0  0  0  0  0  0  0  0  0  0  0  0
   -0.2251   -5.3601    0.8717 O   0  0  0  0  0  0  0  0  0  0  0  0
    1.1420   -3.6702    1.5129 Cl  0  0  0  0  0  0  0  0  0  0  0  0
    0.3297  -13.4990    2.7132 O   0  0  0  0  0  0  0  0  0  0  0  0
    1.4182  -14.3375    2.9999 C   0  0  0  0  0  0  0  0  0  0  0  0
    0.3412   -9.0111    1.0557 O   0  0  0  0  0  0  0  0  0  0  0  0
    0.8633  -15.6358    2.9520 C   0  0  0  0  0  0  0  0  0  0  0  0
    1.8386  -16.5932    2.9741 C   0  0  0  0  0  0  0  0  0  0  0  0
  1  2  1  0
  2  3  1  0
  4  5  1  0
  2  7  1  0
  6  7  1  0
  1  8  1  0
  8  9  1  0
  9 10  1  6
  9 11  1  0
 11 12  2  0
 11 13  1  0
  5 14  1  6
 14 15  1  0
  7 16  2  0
 15 17  1  0
 17 18  1  0
  3  4  1  0
  5  6  1  0
M  END

$$$$
No_2103-/export/home/yangzhenyu/potential_scad_32_flow//YTHDC2/2024-12-06-03-22-00/
     RDKit          3D

 12 12  0  0  0  0  0  0  0  0999 V2000
    1.1787   -8.0297    3.5154 C   0  0  0  0  0  0  0  0  0  0  0  0
    1.1048   -9.2215    3.2892 C   0  0  0  0  0  0  0  0  0  0  0  0
    1.3627  -10.1721    4.3044 C   0  0  0  0  0  0  0  0  0  0  0  0
    1.7354  -11.4730    3.9023 C   0  0  0  0  0  0  0  0  0  0  0  0
    1.8080  -11.8127    2.7216 C   0  0  0  0  0  0  0  0  0  0  0  0
    1.5854  -11.0021    1.7249 C   0  0  0  0  0  0  0  0  0  0  0  0
    1.3573   -9.7389    1.9287 C   0  0  0  0  0  0  0  0  0  0  0  0
    1.2865   -8.8078    0.9161 C   0  0  0  0  0  0  0  0  0  0  0  0
    1.6845   -9.1638   -0.2896 O   0  0  0  0  0  0  0  0  0  0  0  0
    0.9531   -7.5121    1.0883 O   0  0  0  0  0  0  0  0  0  0  0  0
    2.1275  -13.4199    2.2768 N   0  0  0  0  0  0  0  0  0  0  0  0
    1.9708  -13.8057    1.0900 O   0  0  0  0  0  0  0  0  0  0  0  0
  1  2  1  0
  7  8  1  0
  8  9  2  0
  8 10  1  0
  5 11  1  0
 11 12  2  0
  2  3  2  0
  3  4  1  0
  4  5  2  0
  5  6  1  0
  6  7  2  0
  2  7  1  0
M  END

$$$$
No_2104-/export/home/yangzhenyu/potential_scad_32_flow//YTHDC2/2024-12-06-03-22-00/
     RDKit          3D

 19 19  0  0  1  0  0  0  0  0999 V2000
    1.1787   -8.0297    3.5154 O   0  0  0  0  0  0  0  0  0  0  0  0
    0.6747   -7.4019    2.7838 C   0  0  0  0  0  0  0  0  0  0  0  0
    0.5570   -6.0797    2.8560 C   0  0  0  0  0  0  0  0  0  0  0  0
   -0.2158   -5.3007    2.0284 C   0  0  0  0  0  0  0  0  0  0  0  0
   -0.8260   -5.9169    1.0290 C   0  0  0  0  0  0  0  0  0  0  0  0
   -0.6925   -7.2407    0.8216 C   0  0  0  0  0  0  0  0  0  0  0  0
    0.1645   -8.0156    1.6621 C   0  0  0  0  0  0  0  0  0  0  0  0
    0.4049   -9.3434    1.4877 C   0  0  2  0  0  0  0  0  0  0  0  0
    1.4848   -9.6364    0.5257 C   0  0  0  0  0  0  0  0  0  0  0  0
    2.0741   -8.6266   -0.2725 O   0  0  0  0  0  0  0  0  0  0  0  0
    1.8185  -10.8585    0.1960 O   0  0  0  0  0  0  0  0  0  0  0  0
   -0.3958   -3.6229    2.3527 O   0  0  0  0  0  0  0  0  0  0  0  0
   -0.1728  -10.2981    1.9238 C   0  0  0  0  0  0  0  0  0  0  0  0
   -1.1605  -10.4625    2.1407 C   0  0  0  0  0  0  0  0  0  0  0  0
   -1.9978  -11.5485    2.7227 C   0  0  0  0  0  0  0  0  0  0  0  0
   -2.2633  -12.4711    2.4108 C   0  0  0  0  0  0  0  0  0  0  0  0
   -3.0470  -13.4990    3.1675 C   0  0  0  0  0  0  0  0  0  0  0  0
   -3.7346  -12.7247    4.1446 C   0  0  0  0  0  0  0  0  0  0  0  0
   -3.6692  -11.4585    4.4829 C   0  0  0  0  0  0  0  0  0  0  0  0
  1  2  1  0
  7  8  1  0
  8  9  1  6
  9 10  2  0
  9 11  1  0
  4 12  1  0
  8 13  1  0
 13 14  2  3
 14 15  1  0
 15 16  2  3
 16 17  1  0
 17 18  2  3
 18 19  1  0
  2  3  2  0
  3  4  1  0
  4  5  2  0
  5  6  1  0
  6  7  2  0
  2  7  1  0
M  END

$$$$
No_2105-/export/home/yangzhenyu/potential_scad_32_flow//YTHDC2/2024-12-06-03-22-00/
     RDKit          3D

 17 17  0  0  1  0  0  0  0  0999 V2000
    1.1787   -8.0297    3.5154 C   0  0  0  0  0  0  0  0  0  0  0  0
    1.0491   -6.8434    2.9820 C   0  0  0  0  0  0  0  0  0  0  0  0
    0.0950   -8.8404    3.2292 C   0  0  0  0  0  0  0  0  0  0  0  0
   -0.9173   -8.4596    2.5152 C   0  0  0  0  0  0  0  0  0  0  0  0
   -1.0331   -7.2162    2.0653 C   0  0  0  0  0  0  0  0  0  0  0  0
   -0.0105   -6.3168    2.3081 C   0  0  0  0  0  0  0  0  0  0  0  0
    0.1150   -4.9910    1.8495 C   0  0  0  0  0  0  0  0  0  0  0  0
    0.9121   -4.1017    2.4010 O   0  0  0  0  0  0  0  0  0  0  0  0
   -0.1664   -4.6494    0.5591 N   0  0  0  0  0  0  0  0  0  0  0  0
    0.1681  -10.2746    3.6734 C   0  0  1  0  0  0  0  0  0  0  0  0
   -1.0140  -10.9015    3.9783 C   0  0  0  0  0  0  0  0  0  0  0  0
    1.2078  -11.1402    3.1715 C   0  0  0  0  0  0  0  0  0  0  0  0
    0.7710  -12.2447    2.5620 C   0  0  0  0  0  0  0  0  0  0  0  0
    1.7213  -13.2741    2.4061 C   0  0  0  0  0  0  0  0  0  0  0  0
    1.8053  -14.3507    2.9692 C   0  0  0  0  0  0  0  0  0  0  0  0
    2.3181  -15.5407    2.5953 C   0  0  0  0  0  0  0  0  0  0  0  0
    1.8252  -16.3808    1.8131 O   0  0  0  0  0  0  0  0  0  0  0  0
  6  7  1  0
  7  8  2  0
  7  9  1  0
  3 10  1  0
 10 11  1  6
 10 12  1  0
 12 13  1  0
 13 14  1  0
 14 15  1  0
 15 16  1  0
 16 17  2  0
  1  2  2  0
  2  6  1  0
  5  6  2  0
  4  5  1  0
  3  4  2  0
  1  3  1  0
M  END

$$$$
No_2106-/export/home/yangzhenyu/potential_scad_32_flow//YTHDC2/2024-12-06-03-22-00/
     RDKit          3D

 18 20  0  0  1  0  0  0  0  0999 V2000
    1.1787   -8.0297    3.5154 C   0  0  0  0  0  0  0  0  0  0  0  0
    1.1048   -9.2215    3.2892 C   0  0  0  0  0  0  0  0  0  0  0  0
    1.3627  -10.1721    4.3044 C   0  0  0  0  0  0  0  0  0  0  0  0
    1.0682  -11.5187    4.0618 C   0  0  0  0  0  0  0  0  0  0  0  0
    0.6332  -11.9655    2.9682 C   0  0  2  0  0  0  0  0  0  0  0  0
    0.4719  -13.4293    2.7591 C   0  0  0  0  0  0  0  0  0  0  0  0
    1.3208  -14.3288    3.3604 C   0  0  0  0  0  0  0  0  0  0  0  0
    0.7459   -7.1093    2.4923 C   0  0  0  0  0  0  0  0  0  0  0  0
    0.2742   -7.5013    1.3750 C   0  0  0  0  0  0  0  0  0  0  0  0
    0.2016   -8.8240    1.0888 C   0  0  0  0  0  0  0  0  0  0  0  0
    0.6516   -9.8000    2.0275 C   0  0  0  0  0  0  0  0  0  0  0  0
    0.3988  -11.0989    1.8796 C   0  0  0  0  0  0  0  0  0  0  0  0
    1.1091  -15.7175    3.1109 C   0  0  0  0  0  0  0  0  0  0  0  0
    0.1074  -16.1452    2.4447 C   0  0  0  0  0  0  0  0  0  0  0  0
   -0.7375  -15.3229    1.8575 C   0  0  0  0  0  0  0  0  0  0  0  0
   -0.5365  -13.9620    2.0017 C   0  0  0  0  0  0  0  0  0  0  0  0
    0.9761   -5.5808    2.6592 C   0  0  0  0  0  0  0  0  0  0  0  0
    0.1179  -11.5204    0.6829 O   0  0  0  0  0  0  0  0  0  0  0  0
  2  3  1  0
  4  5  1  0
  5  6  1  6
  5 12  1  0
 11 12  1  0
  8 17  1  0
 12 18  2  0
  3  4  1  0
  1  2  2  0
  2 11  1  0
 10 11  2  0
  9 10  1  0
  8  9  2  0
  1  8  1  0
  6  7  2  0
  7 13  1  0
 13 14  2  0
 14 15  1  0
 15 16  2  0
  6 16  1  0
M  END

$$$$
No_2107-/export/home/yangzhenyu/potential_scad_32_flow//YTHDC2/2024-12-06-03-22-00/
     RDKit          3D

 17 18  0  0  0  0  0  0  0  0999 V2000
    1.1787   -8.0297    3.5154 C   0  0  0  0  0  0  0  0  0  0  0  0
    1.0491   -6.8434    2.9820 C   0  0  0  0  0  0  0  0  0  0  0  0
    0.0950   -8.8404    3.2292 C   0  0  0  0  0  0  0  0  0  0  0  0
   -0.9173   -8.4596    2.5152 C   0  0  0  0  0  0  0  0  0  0  0  0
   -1.0331   -7.2162    2.0653 C   0  0  0  0  0  0  0  0  0  0  0  0
   -0.0105   -6.3168    2.3081 C   0  0  0  0  0  0  0  0  0  0  0  0
    0.1465  -10.2446    3.6981 C   0  0  0  0  0  0  0  0  0  0  0  0
    0.1907  -11.3369    2.8651 C   0  0  0  0  0  0  0  0  0  0  0  0
    0.7661  -12.5788    3.2923 C   0  0  0  0  0  0  0  0  0  0  0  0
    1.3881  -13.3018    2.4169 C   0  0  0  0  0  0  0  0  0  0  0  0
    1.4359  -13.1470    1.1819 C   0  0  0  0  0  0  0  0  0  0  0  0
    0.9983  -11.9492    0.5983 C   0  0  0  0  0  0  0  0  0  0  0  0
    0.3676  -11.0296    1.5003 C   0  0  0  0  0  0  0  0  0  0  0  0
    1.9466  -14.6827    2.8709 N   0  0  0  0  0  0  0  0  0  0  0  0
   -0.0568   -4.8678    1.7416 O   0  0  0  0  0  0  0  0  0  0  0  0
   -0.1801  -10.4467    4.9985 O   0  0  0  0  0  0  0  0  0  0  0  0
    0.8086   -3.9814    2.3272 C   0  0  0  0  0  0  0  0  0  0  0  0
  3  7  1  0
  7  8  1  0
 10 14  1  0
  6 15  1  0
  7 16  2  0
 15 17  1  0
  1  2  2  0
  2  6  1  0
  5  6  2  0
  4  5  1  0
  3  4  2  0
  1  3  1  0
  8  9  2  0
  9 10  1  0
 10 11  2  0
 11 12  1  0
 12 13  2  0
  8 13  1  0
M  END

$$$$
No_2108-/export/home/yangzhenyu/potential_scad_32_flow//YTHDC2/2024-12-06-03-22-00/
     RDKit          3D

 17 19  0  0  0  0  0  0  0  0999 V2000
    1.1787   -8.0297    3.5154 N   0  0  0  0  0  0  0  0  0  0  0  0
    1.0818   -9.0751    3.2053 C   0  0  0  0  0  0  0  0  0  0  0  0
    0.7576   -9.3725    1.9159 C   0  0  0  0  0  0  0  0  0  0  0  0
    0.8823   -8.4917    1.0547 C   0  0  0  0  0  0  0  0  0  0  0  0
    1.4631   -7.3107    1.2451 N   0  0  0  0  0  0  0  0  0  0  0  0
    1.6157   -6.9601    2.5253 C   0  0  0  0  0  0  0  0  0  0  0  0
    1.0572  -10.2267    4.2336 C   0  0  0  0  0  0  0  0  0  0  0  0
    0.9173  -11.5103    3.6053 C   0  0  0  0  0  0  0  0  0  0  0  0
    0.7407  -11.8053    2.3819 C   0  0  0  0  0  0  0  0  0  0  0  0
    0.7263  -10.7000    1.4580 C   0  0  0  0  0  0  0  0  0  0  0  0
    0.5194  -13.1524    1.9243 C   0  0  0  0  0  0  0  0  0  0  0  0
    1.4704  -13.9659    2.0365 C   0  0  0  0  0  0  0  0  0  0  0  0
    1.3894  -15.3183    1.8790 C   0  0  0  0  0  0  0  0  0  0  0  0
    0.2791  -15.8607    1.5340 C   0  0  0  0  0  0  0  0  0  0  0  0
   -0.7842  -15.0842    1.2737 C   0  0  0  0  0  0  0  0  0  0  0  0
   -0.6471  -13.6843    1.4580 C   0  0  0  0  0  0  0  0  0  0  0  0
    0.8499   -8.6498   -0.4254 C   0  0  0  0  0  0  0  0  0  0  0  0
  9 11  1  0
  4 17  1  0
 11 12  2  0
 12 13  1  0
 13 14  2  0
 14 15  1  0
 15 16  2  0
 11 16  1  0
  1  2  2  0
  3  4  2  0
  4  5  1  0
  5  6  2  0
  1  6  1  0
  2  3  1  0
  3 10  1  0
  9 10  2  0
  8  9  1  0
  7  8  2  0
  2  7  1  0
M  END

$$$$
No_2109-/export/home/yangzhenyu/potential_scad_32_flow//YTHDC2/2024-12-06-03-22-00/
     RDKit          3D

 17 18  0  0  0  0  0  0  0  0999 V2000
    1.1787   -8.0297    3.5154 C   0  0  0  0  0  0  0  0  0  0  0  0
    1.1048   -9.2215    3.2892 C   0  0  0  0  0  0  0  0  0  0  0  0
    1.2339   -9.7611    2.0189 C   0  0  0  0  0  0  0  0  0  0  0  0
    1.3583   -9.0036    0.9764 C   0  0  0  0  0  0  0  0  0  0  0  0
    1.5996   -7.6362    1.1311 C   0  0  0  0  0  0  0  0  0  0  0  0
    1.4830   -7.0928    2.3626 C   0  0  0  0  0  0  0  0  0  0  0  0
    1.1008  -11.2372    1.8542 C   0  0  0  0  0  0  0  0  0  0  0  0
    0.5178  -11.9759    2.3445 C   0  0  0  0  0  0  0  0  0  0  0  0
   -0.4557  -11.5167    3.4352 C   0  0  0  0  0  0  0  0  0  0  0  0
    0.2605  -13.4149    2.0553 C   0  0  0  0  0  0  0  0  0  0  0  0
   -0.4594  -13.7051    1.2705 C   0  0  0  0  0  0  0  0  0  0  0  0
   -0.5963  -15.1270    0.9170 C   0  0  0  0  0  0  0  0  0  0  0  0
   -1.3648  -15.4598   -0.0887 C   0  0  0  0  0  0  0  0  0  0  0  0
   -1.9746  -14.5604   -0.7747 C   0  0  0  0  0  0  0  0  0  0  0  0
   -1.8539  -13.2575   -0.7142 C   0  0  0  0  0  0  0  0  0  0  0  0
   -1.0901  -12.7863    0.3762 C   0  0  0  0  0  0  0  0  0  0  0  0
    1.5754   -9.4511   -0.3632 C   0  0  0  0  0  0  0  0  0  0  0  0
  3  7  1  0
  7  8  2  3
  8  9  1  0
  8 10  1  0
  4 17  1  0
 10 11  1  0
 11 12  2  0
 12 13  1  0
 13 14  2  0
 14 15  1  0
 15 16  2  0
 11 16  1  0
  1  2  2  0
  2  3  1  0
  3  4  2  0
  4  5  1  0
  5  6  2  0
  1  6  1  0
M  END

$$$$
No_2110-/export/home/yangzhenyu/potential_scad_32_flow//YTHDC2/2024-12-06-03-22-00/
     RDKit          3D

 18 19  0  0  1  0  0  0  0  0999 V2000
    1.1787   -8.0297    3.5154 C   0  0  0  0  0  0  0  0  0  0  0  0
    1.0491   -6.8434    2.9820 C   0  0  0  0  0  0  0  0  0  0  0  0
    1.0690   -9.1150    2.7206 C   0  0  0  0  0  0  0  0  0  0  0  0
    0.9689   -6.6391    1.6260 C   0  0  0  0  0  0  0  0  0  0  0  0
    0.9670   -9.0334    1.3824 C   0  0  0  0  0  0  0  0  0  0  0  0
    0.8189   -7.7113    0.8022 C   0  0  0  0  0  0  0  0  0  0  0  0
    1.2114  -10.5217    3.2468 C   0  0  0  0  0  0  0  0  0  0  0  0
    2.2860  -10.8211    3.8520 C   0  0  0  0  0  0  0  0  0  0  0  0
    2.2631  -12.2056    4.3066 C   0  0  0  0  0  0  0  0  0  0  0  0
    1.5043  -13.0726    3.7970 C   0  0  0  0  0  0  0  0  0  0  0  0
    0.4356  -12.7585    3.0321 C   0  0  0  0  0  0  0  0  0  0  0  0
    0.3494  -11.3600    2.6725 C   0  0  0  0  0  0  0  0  0  0  0  0
    0.8907   -5.3255    1.0421 Cl  0  0  0  0  0  0  0  0  0  0  0  0
   -0.6901  -11.0473    1.9515 C   0  0  0  0  0  0  0  0  0  0  0  0
   -1.8922  -10.5855    2.3891 C   0  0  1  0  0  0  0  0  0  0  0  0
   -2.0291  -10.4073    3.7927 C   0  0  0  0  0  0  0  0  0  0  0  0
   -2.9540  -10.1012    1.7145 C   0  0  0  0  0  0  0  0  0  0  0  0
   -3.1621   -9.9267    4.4387 C   0  0  0  0  0  0  0  0  0  0  0  0
  3  7  1  0
  4 13  1  0
 12 14  1  0
 14 15  1  0
 15 16  1  0
 15 17  1  6
 16 18  2  0
  1  2  2  0
  2  4  1  0
  4  6  2  0
  5  6  1  0
  3  5  2  0
  1  3  1  0
  7  8  2  0
  8  9  1  0
  9 10  2  0
 10 11  1  0
 11 12  2  0
  7 12  1  0
M  END

$$$$
No_2111-/export/home/yangzhenyu/potential_scad_32_flow//YTHDC2/2024-12-06-03-22-00/
     RDKit          3D

 20 22  0  0  0  0  0  0  0  0999 V2000
    1.1787   -8.0297    3.5154 C   0  0  0  0  0  0  0  0  0  0  0  0
    1.0491   -6.8434    2.9820 C   0  0  0  0  0  0  0  0  0  0  0  0
    0.0950   -8.8404    3.2292 C   0  0  0  0  0  0  0  0  0  0  0  0
   -0.9173   -8.4596    2.5152 C   0  0  0  0  0  0  0  0  0  0  0  0
   -1.0331   -7.2162    2.0653 C   0  0  0  0  0  0  0  0  0  0  0  0
   -0.0105   -6.3168    2.3081 C   0  0  0  0  0  0  0  0  0  0  0  0
    0.1935  -10.3737    3.7416 C   0  0  0  0  0  0  0  0  0  0  0  0
    1.2406  -10.8901    4.0986 C   0  0  0  0  0  0  0  0  0  0  0  0
    1.1186  -12.3145    4.4006 C   0  0  0  0  0  0  0  0  0  0  0  0
    0.1013  -12.9075    3.8532 C   0  0  0  0  0  0  0  0  0  0  0  0
   -0.9044  -12.4076    3.3546 C   0  0  0  0  0  0  0  0  0  0  0  0
   -0.9318  -11.0156    3.2558 C   0  0  0  0  0  0  0  0  0  0  0  0
   -0.1471   -5.0370    1.8051 C   0  0  0  0  0  0  0  0  0  0  0  0
    0.6993   -4.0080    2.3226 O   0  0  0  0  0  0  0  0  0  0  0  0
   -1.2822   -4.4876    1.4023 O   0  0  0  0  0  0  0  0  0  0  0  0
   -2.0888  -13.1002    3.1851 C   0  0  0  0  0  0  0  0  0  0  0  0
   -3.3160  -12.4484    3.1854 C   0  0  0  0  0  0  0  0  0  0  0  0
   -3.2825  -10.9934    3.1890 C   0  0  0  0  0  0  0  0  0  0  0  0
   -2.1486  -10.3311    3.3043 C   0  0  0  0  0  0  0  0  0  0  0  0
   -4.4959  -13.2005    3.0020 O   0  0  0  0  0  0  0  0  0  0  0  0
  3  7  1  0
  6 13  1  0
 13 14  2  0
 13 15  1  0
 17 20  1  0
  1  2  2  0
  2  6  1  0
  5  6  2  0
  4  5  1  0
  3  4  2  0
  1  3  1  0
 12 19  2  0
 18 19  1  0
 17 18  2  0
 16 17  1  0
 11 16  2  0
  7  8  2  0
  8  9  1  0
  9 10  2  0
 10 11  1  0
 11 12  1  0
  7 12  1  0
M  END

$$$$
No_2112-/export/home/yangzhenyu/potential_scad_32_flow//YTHDC2/2024-12-06-03-22-00/
     RDKit          3D

 15 15  0  0  0  0  0  0  0  0999 V2000
    1.1787   -8.0297    3.5154 C   0  0  0  0  0  0  0  0  0  0  0  0
    1.1048   -9.2215    3.2892 C   0  0  0  0  0  0  0  0  0  0  0  0
    1.2339   -9.7611    2.0189 C   0  0  0  0  0  0  0  0  0  0  0  0
    1.1954  -11.2312    1.8661 C   0  0  0  0  0  0  0  0  0  0  0  0
    1.5546  -12.1691    2.7931 C   0  0  0  0  0  0  0  0  0  0  0  0
    0.5849   -7.0929    2.5729 C   0  0  0  0  0  0  0  0  0  0  0  0
    0.5567   -7.6699    1.1955 C   0  0  0  0  0  0  0  0  0  0  0  0
    0.7903   -8.9699    0.9209 C   0  0  0  0  0  0  0  0  0  0  0  0
    1.5521  -13.4960    2.3485 C   0  0  0  0  0  0  0  0  0  0  0  0
    1.2403  -13.8919    1.1557 C   0  0  0  0  0  0  0  0  0  0  0  0
    1.0311  -12.9707    0.1488 Cl  0  0  0  0  0  0  0  0  0  0  0  0
    0.7081   -9.4960   -0.2909 C   0  0  0  0  0  0  0  0  0  0  0  0
    0.5762   -5.5197    2.6332 C   0  0  0  0  0  0  0  0  0  0  0  0
   -0.4554  -10.0536   -0.6917 O   0  0  0  0  0  0  0  0  0  0  0  0
    1.5760   -9.1253   -1.2386 O   0  0  0  0  0  0  0  0  0  0  0  0
  3  4  1  0
  4  5  1  0
  5  9  2  3
  9 10  1  0
 10 11  1  0
  8 12  1  0
  6 13  1  0
 12 14  2  0
 12 15  1  0
  1  2  2  0
  2  3  1  0
  3  8  2  0
  7  8  1  0
  6  7  2  0
  1  6  1  0
M  END

$$$$
No_2113-/export/home/yangzhenyu/potential_scad_32_flow//YTHDC2/2024-12-06-03-22-00/
     RDKit          3D

 19 21  0  0  0  0  0  0  0  0999 V2000
    1.1787   -8.0297    3.5154 C   0  0  0  0  0  0  0  0  0  0  0  0
    1.1048   -9.2215    3.2892 C   0  0  0  0  0  0  0  0  0  0  0  0
    1.3627  -10.1721    4.3044 C   0  0  0  0  0  0  0  0  0  0  0  0
    1.0682  -11.5187    4.0618 C   0  0  0  0  0  0  0  0  0  0  0  0
    0.6332  -11.9655    2.9682 C   0  0  0  0  0  0  0  0  0  0  0  0
    0.4776  -11.1308    1.9203 C   0  0  0  0  0  0  0  0  0  0  0  0
    0.7470   -9.8274    2.0368 C   0  0  0  0  0  0  0  0  0  0  0  0
    0.5535   -7.1314    2.6861 C   0  0  0  0  0  0  0  0  0  0  0  0
    0.2950   -7.6000    1.3275 C   0  0  0  0  0  0  0  0  0  0  0  0
    0.2692   -8.8631    1.0973 C   0  0  0  0  0  0  0  0  0  0  0  0
    0.4787  -13.3960    2.7088 O   0  0  0  0  0  0  0  0  0  0  0  0
    1.2441  -14.1045    1.9789 C   0  0  0  0  0  0  0  0  0  0  0  0
   -0.1135   -9.2635   -0.2220 N   0  0  0  0  0  0  0  0  0  0  0  0
   -0.7737   -8.5778   -1.0539 C   0  0  0  0  0  0  0  0  0  0  0  0
   -1.5841   -7.6460   -0.5953 C   0  0  0  0  0  0  0  0  0  0  0  0
   -0.6039   -8.6466   -2.4503 C   0  0  0  0  0  0  0  0  0  0  0  0
   -1.4264   -8.0113   -3.3098 C   0  0  0  0  0  0  0  0  0  0  0  0
   -2.2743   -6.9942   -2.7986 C   0  0  0  0  0  0  0  0  0  0  0  0
   -2.4056   -6.9219   -1.4630 C   0  0  0  0  0  0  0  0  0  0  0  0
  5 11  1  0
 11 12  1  0
 10 13  1  0
 13 14  1  0
  2  3  1  0
  3  4  2  0
  4  5  1  0
  5  6  2  0
  6  7  1  0
  1  2  2  0
  2  7  1  0
  7 10  2  0
  9 10  1  0
  8  9  2  0
  1  8  1  0
 14 15  2  0
 15 19  1  0
 18 19  2  0
 17 18  1  0
 16 17  2  0
 14 16  1  0
M  END

$$$$
No_2114-/export/home/yangzhenyu/potential_scad_32_flow//YTHDC2/2024-12-06-03-22-00/
     RDKit          3D

 20 22  0  0  0  0  0  0  0  0999 V2000
    1.1787   -8.0297    3.5154 C   0  0  0  0  0  0  0  0  0  0  0  0
    1.0491   -6.8434    2.9820 C   0  0  0  0  0  0  0  0  0  0  0  0
    0.9905   -9.0774    2.6527 C   0  0  0  0  0  0  0  0  0  0  0  0
    0.9687   -8.6883    1.3634 C   0  0  0  0  0  0  0  0  0  0  0  0
    1.0948   -6.3768    1.7686 C   0  0  0  0  0  0  0  0  0  0  0  0
    0.9504   -7.3975    0.8471 C   0  0  0  0  0  0  0  0  0  0  0  0
    0.7712   -9.7492    0.3219 C   0  0  0  0  0  0  0  0  0  0  0  0
    1.2375  -10.9204    0.4464 N   0  0  0  0  0  0  0  0  0  0  0  0
   -0.1603   -9.6490   -0.6610 N   0  0  0  0  0  0  0  0  0  0  0  0
    1.1211  -10.4266    3.0326 C   0  0  0  0  0  0  0  0  0  0  0  0
    1.3601  -11.4061    1.8973 C   0  0  0  0  0  0  0  0  0  0  0  0
    1.7347  -12.7624    2.2473 C   0  0  0  0  0  0  0  0  0  0  0  0
    1.4297  -13.3074    3.3337 C   0  0  0  0  0  0  0  0  0  0  0  0
    1.4939  -14.8150    3.2088 C   0  0  0  0  0  0  0  0  0  0  0  0
    1.7561  -15.4574    2.1643 C   0  0  0  0  0  0  0  0  0  0  0  0
    2.2490  -14.7678    1.0428 C   0  0  0  0  0  0  0  0  0  0  0  0
    2.0940  -13.3683    1.0326 C   0  0  0  0  0  0  0  0  0  0  0  0
    1.9975  -16.8572    2.2505 Cl  0  0  0  0  0  0  0  0  0  0  0  0
    1.0817   -5.0255    1.3639 Br  0  0  0  0  0  0  0  0  0  0  0  0
   -1.2087  -10.2093   -1.0319 C   0  0  0  0  0  0  0  0  0  0  0  0
  7  9  1  0
 11 12  1  0
 15 18  1  0
  5 19  1  0
  9 20  1  0
 12 13  2  0
 13 14  1  0
 14 15  2  0
 15 16  1  0
 16 17  2  0
 12 17  1  0
  1  2  2  0
  2  5  1  0
  5  6  2  0
  4  6  1  0
  1  3  1  0
  3  4  2  0
  4  7  1  0
  7  8  2  0
  8 11  1  0
 10 11  2  0
  3 10  1  0
M  END

$$$$
No_2115-/export/home/yangzhenyu/potential_scad_32_flow//YTHDC2/2024-12-06-03-22-00/
     RDKit          3D

 18 20  0  0  1  0  0  0  0  0999 V2000
    1.1787   -8.0297    3.5154 N   0  0  0  0  0  0  0  0  0  0  0  0
    1.0818   -9.0751    3.2053 C   0  0  1  0  0  0  0  0  0  0  0  0
    1.5216  -10.1164    3.9747 Cl  0  0  0  0  0  0  0  0  0  0  0  0
    0.3642   -9.3280    2.0084 C   0  0  0  0  0  0  0  0  0  0  0  0
    0.3764  -10.4018    1.3932 C   0  0  0  0  0  0  0  0  0  0  0  0
   -0.4601  -11.2733    1.1982 C   0  0  0  0  0  0  0  0  0  0  0  0
   -1.7829  -10.7293    1.1037 C   0  0  0  0  0  0  0  0  0  0  0  0
   -1.9446   -9.3706    1.6926 C   0  0  0  0  0  0  0  0  0  0  0  0
   -0.8399   -8.6919    2.0458 C   0  0  0  0  0  0  0  0  0  0  0  0
   -1.1197   -7.5994    2.8222 C   0  0  1  0  0  0  0  0  0  0  0  0
    0.2521   -7.0241    3.5100 C   0  0  0  0  0  0  0  0  0  0  0  0
   -2.0522   -6.6613    2.8366 C   0  0  0  0  0  0  0  0  0  0  0  0
   -3.0136   -6.5310    3.7795 C   0  0  0  0  0  0  0  0  0  0  0  0
   -2.1814   -5.5358    1.7928 C   0  0  0  0  0  0  0  0  0  0  0  0
   -3.1652   -4.8033    1.6510 C   0  0  0  0  0  0  0  0  0  0  0  0
   -4.0634   -4.7130    2.6936 C   0  0  0  0  0  0  0  0  0  0  0  0
   -3.9926   -5.6781    3.6922 C   0  0  0  0  0  0  0  0  0  0  0  0
    1.8395  -10.9396    1.1578 Cl  0  0  0  0  0  0  0  0  0  0  0  0
  1  2  1  0
  2  3  1  1
  2  4  1  0
  9 10  1  0
  1 11  1  0
 10 11  1  0
 10 12  1  6
  5 18  1  0
 12 13  2  0
 13 17  1  0
 16 17  2  0
 15 16  1  0
 14 15  2  0
 12 14  1  0
  4  5  2  0
  5  6  1  0
  6  7  2  0
  7  8  1  0
  8  9  2  0
  4  9  1  0
M  END

$$$$
No_2116-/export/home/yangzhenyu/potential_scad_32_flow//YTHDC2/2024-12-06-03-22-00/
     RDKit          3D

 20 20  0  0  0  0  0  0  0  0999 V2000
    1.1787   -8.0297    3.5154 C   0  0  0  0  0  0  0  0  0  0  0  0
    1.1048   -9.2215    3.2892 C   0  0  0  0  0  0  0  0  0  0  0  0
    1.3627  -10.1721    4.3044 C   0  0  0  0  0  0  0  0  0  0  0  0
    1.7354  -11.4730    3.9023 C   0  0  0  0  0  0  0  0  0  0  0  0
    1.8080  -11.8127    2.7216 C   0  0  0  0  0  0  0  0  0  0  0  0
    1.5854  -11.0021    1.7249 C   0  0  0  0  0  0  0  0  0  0  0  0
    1.3573   -9.7389    1.9287 C   0  0  0  0  0  0  0  0  0  0  0  0
    1.2865   -8.8078    0.9161 C   0  0  0  0  0  0  0  0  0  0  0  0
    1.6845   -9.1638   -0.2896 C   0  0  0  0  0  0  0  0  0  0  0  0
    2.2611   -8.4546   -1.0900 O   0  0  0  0  0  0  0  0  0  0  0  0
    1.0783  -10.1149   -0.8465 O   0  0  0  0  0  0  0  0  0  0  0  0
    2.0614  -13.2399    2.4034 O   0  0  0  0  0  0  0  0  0  0  0  0
    0.1036   -7.2064    3.3760 O   0  0  0  0  0  0  0  0  0  0  0  0
    2.2137   -7.2198    3.8745 O   0  0  0  0  0  0  0  0  0  0  0  0
    1.9241  -13.8381    1.1933 C   0  0  0  0  0  0  0  0  0  0  0  0
    1.1630  -14.9323    1.4101 C   0  0  0  0  0  0  0  0  0  0  0  0
    0.4890  -15.1683    0.2465 O   0  0  0  0  0  0  0  0  0  0  0  0
    0.9471  -15.6714    2.3071 O   0  0  0  0  0  0  0  0  0  0  0  0
    0.2965  -16.8149    2.2929 C   0  0  0  0  0  0  0  0  0  0  0  0
   -0.5008  -17.1787    3.1276 C   0  0  0  0  0  0  0  0  0  0  0  0
  1  2  1  0
  7  8  1  0
  8  9  1  0
  9 10  2  0
  9 11  1  0
  5 12  1  0
  1 13  2  0
  1 14  1  0
 12 15  1  0
 15 16  1  0
 16 17  2  0
 16 18  1  0
 18 19  1  0
 19 20  1  0
  2  3  2  0
  3  4  1  0
  4  5  2  0
  5  6  1  0
  6  7  2  0
  2  7  1  0
M  END

$$$$
No_2117-/export/home/yangzhenyu/potential_scad_32_flow//YTHDC2/2024-12-06-03-22-00/
     RDKit          3D

 19 20  0  0  1  0  0  0  0  0999 V2000
    1.1787   -8.0297    3.5154 C   0  0  0  0  0  0  0  0  0  0  0  0
    1.1048   -9.2215    3.2892 C   0  0  0  0  0  0  0  0  0  0  0  0
    1.2339   -9.7611    2.0189 C   0  0  0  0  0  0  0  0  0  0  0  0
    1.4306   -8.9466    1.1170 C   0  0  0  0  0  0  0  0  0  0  0  0
    1.6532   -7.5949    1.1786 C   0  0  0  0  0  0  0  0  0  0  0  0
    1.4947   -6.9880    2.2363 C   0  0  0  0  0  0  0  0  0  0  0  0
    1.7000   -9.5648   -0.3905 C   0  0  0  0  0  0  0  0  0  0  0  0
    0.8613  -10.5133   -0.5534 O   0  0  0  0  0  0  0  0  0  0  0  0
    2.0780   -8.9465   -1.3538 O   0  0  0  0  0  0  0  0  0  0  0  0
    0.9190  -10.3149    4.5716 C   0  0  0  0  0  0  0  0  0  0  0  0
    0.6885  -11.7125    3.9812 C   0  0  2  0  0  0  0  0  0  0  0  0
    1.9385  -12.5534    4.1723 C   0  0  0  0  0  0  0  0  0  0  0  0
    1.6803  -13.7889    3.4002 N   0  0  0  0  0  0  0  0  0  0  0  0
    1.2062  -13.8303    2.2529 C   0  0  2  0  0  0  0  0  0  0  0  0
    0.1133  -12.8829    1.9461 C   0  0  0  0  0  0  0  0  0  0  0  0
   -0.0083  -11.7844    2.7911 C   0  0  0  0  0  0  0  0  0  0  0  0
    1.1528  -15.0812    1.5722 C   0  0  0  0  0  0  0  0  0  0  0  0
    2.1533  -15.9255    1.8098 N   0  0  0  0  0  0  0  0  0  0  0  0
    0.3722  -15.4122    0.7228 O   0  0  0  0  0  0  0  0  0  0  0  0
  4  7  1  0
  7  8  2  0
  7  9  1  0
  2 10  1  0
 11 10  1  6
 11 12  1  0
 12 13  1  0
 13 14  1  0
 14 15  1  0
 11 16  1  0
 15 16  1  0
 14 17  1  1
 17 18  1  0
 17 19  2  0
  1  2  2  0
  2  3  1  0
  3  4  2  0
  4  5  1  0
  5  6  2  0
  1  6  1  0
M  END

$$$$
No_2118-/export/home/yangzhenyu/potential_scad_32_flow//YTHDC2/2024-12-06-03-22-00/
     RDKit          3D

 17 18  0  0  0  0  0  0  0  0999 V2000
    1.1787   -8.0297    3.5154 C   0  0  0  0  0  0  0  0  0  0  0  0
    1.0491   -6.8434    2.9820 C   0  0  0  0  0  0  0  0  0  0  0  0
    0.0950   -8.8404    3.2292 C   0  0  0  0  0  0  0  0  0  0  0  0
   -0.9173   -8.4596    2.5152 C   0  0  0  0  0  0  0  0  0  0  0  0
   -1.0331   -7.2162    2.0653 C   0  0  0  0  0  0  0  0  0  0  0  0
   -0.0105   -6.3168    2.3081 C   0  0  0  0  0  0  0  0  0  0  0  0
    0.0485   -4.9783    1.8782 C   0  0  0  0  0  0  0  0  0  0  0  0
   -0.6974   -4.6139    0.8644 C   0  0  0  0  0  0  0  0  0  0  0  0
   -0.9180   -3.5193    0.5672 C   0  0  0  0  0  0  0  0  0  0  0  0
   -0.1429   -2.4115    1.0656 C   0  0  0  0  0  0  0  0  0  0  0  0
    0.7432   -2.6592    1.9795 C   0  0  0  0  0  0  0  0  0  0  0  0
    0.8890   -3.9997    2.3855 C   0  0  0  0  0  0  0  0  0  0  0  0
    0.1075  -10.2415    3.7148 C   0  0  0  0  0  0  0  0  0  0  0  0
    0.1405  -11.3197    2.9739 C   0  0  0  0  0  0  0  0  0  0  0  0
   -0.6559  -11.6962    2.2415 C   0  0  0  0  0  0  0  0  0  0  0  0
    1.3920  -12.2002    3.1770 C   0  0  0  0  0  0  0  0  0  0  0  0
    1.5149  -13.3301    2.5555 C   0  0  0  0  0  0  0  0  0  0  0  0
  6  7  1  0
  3 13  1  0
 13 14  1  0
 14 15  2  0
 14 16  1  0
 16 17  2  0
  1  2  2  0
  2  6  1  0
  5  6  2  0
  4  5  1  0
  3  4  2  0
  1  3  1  0
  7  8  2  0
  8  9  1  0
  9 10  2  0
 10 11  1  0
 11 12  2  0
  7 12  1  0
M  END

$$$$
No_2119-/export/home/yangzhenyu/potential_scad_32_flow//YTHDC2/2024-12-06-03-22-00/
     RDKit          3D

 19 19  0  0  1  0  0  0  0  0999 V2000
    1.1787   -8.0297    3.5154 C   0  0  0  0  0  0  0  0  0  0  0  0
    1.0491   -6.8434    2.9820 C   0  0  0  0  0  0  0  0  0  0  0  0
    0.9905   -9.0774    2.6527 C   0  0  1  0  0  0  0  0  0  0  0  0
    0.7897   -8.9519    1.3691 C   0  0  0  0  0  0  0  0  0  0  0  0
    0.7018   -7.7198    0.7892 C   0  0  0  0  0  0  0  0  0  0  0  0
    0.8918   -6.5957    1.6117 C   0  0  0  0  0  0  0  0  0  0  0  0
    1.0998  -10.4710    3.2437 C   0  0  1  0  0  0  0  0  0  0  0  0
    2.1917  -10.8879    3.7399 C   0  0  0  0  0  0  0  0  0  0  0  0
    0.8983   -5.2566    1.2088 O   0  0  0  0  0  0  0  0  0  0  0  0
   -0.0200  -11.2248    3.3627 C   0  0  0  0  0  0  0  0  0  0  0  0
   -0.0780  -12.5021    3.1735 O   0  0  0  0  0  0  0  0  0  0  0  0
    2.1634  -11.6712    4.8909 Cl  0  0  0  0  0  0  0  0  0  0  0  0
   -1.2088  -10.6541    3.8017 O   0  0  0  0  0  0  0  0  0  0  0  0
    0.5924  -10.1312    0.2172 O   0  0  0  0  0  0  0  0  0  0  0  0
    1.3662   -5.7019    3.8074 O   0  0  0  0  0  0  0  0  0  0  0  0
    1.4039  -10.5052   -0.4599 C   0  0  0  0  0  0  0  0  0  0  0  0
    2.5685   -9.6128   -0.1796 C   0  0  0  0  0  0  0  0  0  0  0  0
    3.2061   -9.6376    0.7473 C   0  0  0  0  0  0  0  0  0  0  0  0
    2.9775   -8.7983   -1.4033 C   0  0  0  0  0  0  0  0  0  0  0  0
  1  2  1  0
  3  4  1  0
  2  6  1  0
  5  6  1  0
  3  7  1  0
  7  8  1  1
  6  9  2  0
  7 10  1  0
 10 11  1  0
  8 12  1  0
 10 13  2  0
  4 14  1  0
  2 15  2  0
 14 16  1  0
 16 17  1  0
 17 18  1  0
 17 19  1  0
  3  1  1  6
  4  5  1  0
M  END

$$$$
No_2120-/export/home/yangzhenyu/potential_scad_32_flow//YTHDC2/2024-12-06-03-22-00/
     RDKit          3D

 17 18  0  0  0  0  0  0  0  0999 V2000
    1.1787   -8.0297    3.5154 C   0  0  0  0  0  0  0  0  0  0  0  0
    1.1048   -9.2215    3.2892 C   0  0  0  0  0  0  0  0  0  0  0  0
    1.3627  -10.1721    4.3044 C   0  0  0  0  0  0  0  0  0  0  0  0
    2.3720  -10.8948    4.2468 C   0  0  0  0  0  0  0  0  0  0  0  0
    0.8234   -7.0464    2.5717 C   0  0  0  0  0  0  0  0  0  0  0  0
    0.4328   -7.4736    1.3042 C   0  0  0  0  0  0  0  0  0  0  0  0
    0.3532   -8.7488    0.9919 C   0  0  0  0  0  0  0  0  0  0  0  0
    0.7039   -9.7094    1.9672 C   0  0  0  0  0  0  0  0  0  0  0  0
    0.6986  -10.9809    1.7122 C   0  0  0  0  0  0  0  0  0  0  0  0
    0.2380  -11.4707    0.7534 O   0  0  0  0  0  0  0  0  0  0  0  0
    1.1062  -12.0165    2.5204 N   0  0  0  0  0  0  0  0  0  0  0  0
    1.9527  -12.1470    3.5404 C   0  0  0  0  0  0  0  0  0  0  0  0
    1.0247   -5.3457    2.8382 Cl  0  0  0  0  0  0  0  0  0  0  0  0
    2.2396  -13.3414    3.8983 O   0  0  0  0  0  0  0  0  0  0  0  0
    0.0638   -9.1319   -0.3060 C   0  0  0  0  0  0  0  0  0  0  0  0
   -0.5352   -8.1683   -1.1213 O   0  0  0  0  0  0  0  0  0  0  0  0
    0.4364  -10.0364   -1.0382 O   0  0  0  0  0  0  0  0  0  0  0  0
  2  3  1  0
  3  4  1  0
  8  9  1  0
  9 10  2  0
  9 11  1  0
  4 12  1  0
 11 12  1  0
  5 13  1  0
 12 14  2  0
  7 15  1  0
 15 16  2  0
 15 17  1  0
  1  2  2  0
  2  8  1  0
  7  8  2  0
  6  7  1  0
  5  6  2  0
  1  5  1  0
M  END

$$$$
No_2121-/export/home/yangzhenyu/potential_scad_32_flow//YTHDC2/2024-12-06-03-22-00/
     RDKit          3D

 20 20  0  0  1  0  0  0  0  0999 V2000
    1.1787   -8.0297    3.5154 C   0  0  0  0  0  0  0  0  0  0  0  0
    1.1048   -9.2215    3.2892 C   0  0  0  0  0  0  0  0  0  0  0  0
    1.2339   -9.7611    2.0189 C   0  0  0  0  0  0  0  0  0  0  0  0
    1.1954  -11.2312    1.8661 C   0  0  1  0  0  0  0  0  0  0  0  0
    1.2996  -11.5815    0.5387 C   0  0  0  0  0  0  0  0  0  0  0  0
    1.3263   -7.1208    2.3229 C   0  0  0  0  0  0  0  0  0  0  0  0
    1.3693   -7.6408    1.0625 C   0  0  0  0  0  0  0  0  0  0  0  0
    1.4358   -8.9950    0.8622 C   0  0  0  0  0  0  0  0  0  0  0  0
    1.8955  -11.8446    2.8953 C   0  0  0  0  0  0  0  0  0  0  0  0
    1.0417  -12.9506    3.5023 C   0  0  0  0  0  0  0  0  0  0  0  0
    1.4352  -14.3444    3.0267 C   0  0  0  0  0  0  0  0  0  0  0  0
    0.4817  -15.3805    3.3096 O   0  0  0  0  0  0  0  0  0  0  0  0
    1.3116   -5.4532    2.5996 C   0  0  0  0  0  0  0  0  0  0  0  0
    2.5137  -14.5313    2.3985 O   0  0  0  0  0  0  0  0  0  0  0  0
    0.0421  -11.5756    0.0010 O   0  0  0  0  0  0  0  0  0  0  0  0
    0.9371   -4.7705    1.6411 O   0  0  0  0  0  0  0  0  0  0  0  0
    1.3318   -3.4303    1.5899 C   0  0  0  0  0  0  0  0  0  0  0  0
    1.9584  -12.5642    0.2118 O   0  0  0  0  0  0  0  0  0  0  0  0
    1.8161   -5.0586    3.6996 O   0  0  0  0  0  0  0  0  0  0  0  0
    0.9901  -16.6860    3.2723 C   0  0  0  0  0  0  0  0  0  0  0  0
  3  4  1  0
  4  5  1  0
  4  9  1  1
  9 10  1  0
 10 11  1  0
 11 12  1  0
  6 13  1  0
 11 14  2  0
  5 15  1  0
 13 16  1  0
 16 17  1  0
  5 18  2  0
 13 19  2  0
 12 20  1  0
  1  2  2  0
  2  3  1  0
  3  8  2  0
  7  8  1  0
  6  7  2  0
  1  6  1  0
M  END

$$$$
No_2122-/export/home/yangzhenyu/potential_scad_32_flow//YTHDC2/2024-12-06-03-22-00/
     RDKit          3D

 20 22  0  0  0  0  0  0  0  0999 V2000
    1.1787   -8.0297    3.5154 C   0  0  0  0  0  0  0  0  0  0  0  0
    1.0491   -6.8434    2.9820 C   0  0  0  0  0  0  0  0  0  0  0  0
    0.2462   -8.9560    3.0873 C   0  0  0  0  0  0  0  0  0  0  0  0
    0.3295   -6.5187    1.9069 C   0  0  0  0  0  0  0  0  0  0  0  0
   -0.5260   -8.7862    2.1368 C   0  0  0  0  0  0  0  0  0  0  0  0
   -0.5458   -7.5614    1.5054 C   0  0  0  0  0  0  0  0  0  0  0  0
    0.3663  -10.3301    3.7373 C   0  0  0  0  0  0  0  0  0  0  0  0
   -0.8414  -11.0073    3.8266 C   0  0  0  0  0  0  0  0  0  0  0  0
   -1.8073  -10.7830    2.9067 C   0  0  0  0  0  0  0  0  0  0  0  0
   -1.6751   -9.6316    2.0473 C   0  0  0  0  0  0  0  0  0  0  0  0
    0.3393   -5.3345    1.1521 O   0  0  0  0  0  0  0  0  0  0  0  0
   -0.6785   -4.4364    1.1894 C   0  0  0  0  0  0  0  0  0  0  0  0
   -3.0208  -11.7993    2.6452 C   0  0  0  0  0  0  0  0  0  0  0  0
   -4.0656  -11.4286    3.2771 C   0  0  0  0  0  0  0  0  0  0  0  0
   -4.2450  -10.2812    4.2256 C   0  0  0  0  0  0  0  0  0  0  0  0
   -5.4086  -10.3431    5.0220 C   0  0  0  0  0  0  0  0  0  0  0  0
   -6.2945  -11.4358    4.9932 C   0  0  0  0  0  0  0  0  0  0  0  0
   -5.9769  -12.5424    4.2911 C   0  0  0  0  0  0  0  0  0  0  0  0
   -4.8785  -12.5882    3.4336 C   0  0  0  0  0  0  0  0  0  0  0  0
   -7.3594  -11.3918    5.9311 I   0  0  0  0  0  0  0  0  0  0  0  0
  4 11  1  0
 11 12  1  0
  9 13  1  0
 17 20  1  0
 13 14  1  0
  5 10  2  0
  9 10  1  0
  8  9  2  0
  7  8  1  0
  3  7  2  0
  1  2  2  0
  2  4  1  0
  4  6  2  0
  5  6  1  0
  3  5  1  0
  1  3  1  0
 14 15  2  0
 15 16  1  0
 16 17  2  0
 17 18  1  0
 18 19  2  0
 14 19  1  0
M  END

$$$$
No_2123-/export/home/yangzhenyu/potential_scad_32_flow//YTHDC2/2024-12-06-03-22-00/
     RDKit          3D

 21 22  0  0  1  0  0  0  0  0999 V2000
    1.1787   -8.0297    3.5154 C   0  0  0  0  0  0  0  0  0  0  0  0
    1.0491   -6.8434    2.9820 C   0  0  0  0  0  0  0  0  0  0  0  0
    0.9905   -9.0774    2.6527 C   0  0  0  0  0  0  0  0  0  0  0  0
    0.7897   -8.9519    1.3691 C   0  0  0  0  0  0  0  0  0  0  0  0
    0.7018   -7.7198    0.7892 C   0  0  0  0  0  0  0  0  0  0  0  0
    0.8918   -6.5957    1.6117 C   0  0  0  0  0  0  0  0  0  0  0  0
    1.0998  -10.4710    3.2437 C   0  0  1  0  0  0  0  0  0  0  0  0
    0.0472  -11.2546    3.3963 C   0  0  0  0  0  0  0  0  0  0  0  0
   -1.1989  -10.6161    3.7011 C   0  0  0  0  0  0  0  0  0  0  0  0
    0.8603   -5.2612    1.2139 C   0  0  0  0  0  0  0  0  0  0  0  0
   -2.3157  -10.8626    3.0665 C   0  0  0  0  0  0  0  0  0  0  0  0
   -3.5218  -10.1519    3.4179 C   0  0  0  0  0  0  0  0  0  0  0  0
   -3.3786   -9.3418    4.7139 C   0  0  0  0  0  0  0  0  0  0  0  0
   -2.2134   -8.9887    5.2498 C   0  0  0  0  0  0  0  0  0  0  0  0
   -2.0657   -7.9531    6.0560 C   0  0  0  0  0  0  0  0  0  0  0  0
   -1.1303   -9.8697    4.9556 C   0  0  0  0  0  0  0  0  0  0  0  0
    2.4114  -10.9410    3.3404 C   0  0  0  0  0  0  0  0  0  0  0  0
    2.8306  -11.4602    4.4395 N   0  0  0  0  0  0  0  0  0  0  0  0
   -0.2160   -4.7551    0.7266 C   0  0  0  0  0  0  0  0  0  0  0  0
   -0.3368   -3.4049    0.3869 F   0  0  0  0  0  0  0  0  0  0  0  0
    2.2111  -11.5285    5.2343 H   0  0  0  0  0  0  0  0  0  0  0  0
  3  7  1  0
  7  8  1  6
  8  9  1  0
  6 10  1  0
 14 15  1  0
  7 17  1  0
 17 18  2  0
 10 19  2  3
 19 20  1  0
  9 11  2  0
 11 12  1  0
 12 13  2  0
 13 14  1  0
 14 16  2  0
  9 16  1  0
  1  2  2  0
  2  6  1  0
  5  6  2  0
  4  5  1  0
  3  4  2  0
  1  3  1  0
 18 21  1  0
M  END

$$$$
No_2124-/export/home/yangzhenyu/potential_scad_32_flow//YTHDC2/2024-12-06-03-22-00/
     RDKit          3D

 19 20  0  0  1  0  0  0  0  0999 V2000
    1.1787   -8.0297    3.5154 C   0  0  0  0  0  0  0  0  0  0  0  0
    1.1048   -9.2215    3.2892 C   0  0  0  0  0  0  0  0  0  0  0  0
    1.2339   -9.7611    2.0189 C   0  0  0  0  0  0  0  0  0  0  0  0
    1.3583   -9.0036    0.9764 C   0  0  0  0  0  0  0  0  0  0  0  0
    1.5996   -7.6362    1.1311 C   0  0  0  0  0  0  0  0  0  0  0  0
    1.4830   -7.0928    2.3626 C   0  0  0  0  0  0  0  0  0  0  0  0
    1.5395   -5.7300    2.6182 C   0  0  0  0  0  0  0  0  0  0  0  0
    1.1775  -11.2233    1.8407 C   0  0  0  0  0  0  0  0  0  0  0  0
    1.9057  -12.1147    2.3397 C   0  0  0  0  0  0  0  0  0  0  0  0
    1.6867  -13.4551    2.0621 C   0  0  2  0  0  0  0  0  0  0  0  0
    0.7025  -13.8511    1.3021 C   0  0  0  0  0  0  0  0  0  0  0  0
   -0.1111  -12.9140    0.6527 C   0  0  0  0  0  0  0  0  0  0  0  0
    0.1535  -11.5434    0.9240 C   0  0  0  0  0  0  0  0  0  0  0  0
    1.6688   -5.1779    3.8866 O   0  0  0  0  0  0  0  0  0  0  0  0
    1.0241   -4.8409    1.7123 O   0  0  0  0  0  0  0  0  0  0  0  0
    2.5145  -14.4243    2.7646 Cl  0  0  0  0  0  0  0  0  0  0  0  0
   -0.7704  -10.6972    0.4316 O   0  0  0  0  0  0  0  0  0  0  0  0
    1.6510   -9.4426   -0.5410 N   0  0  0  0  0  0  0  0  0  0  0  0
    0.8907  -10.1586    4.3886 Cl  0  0  0  0  0  0  0  0  0  0  0  0
  6  7  1  0
  3  8  1  0
  8  9  1  0
 10 11  1  0
  8 13  1  0
 12 13  1  0
  7 14  1  0
  7 15  2  0
 10 16  1  1
 13 17  2  0
  4 18  1  0
  2 19  1  0
  9 10  1  0
 11 12  1  0
  1  2  2  0
  2  3  1  0
  3  4  2  0
  4  5  1  0
  5  6  2  0
  1  6  1  0
M  END

$$$$
No_2125-/export/home/yangzhenyu/potential_scad_32_flow//YTHDC2/2024-12-06-03-22-00/
     RDKit          3D

 18 19  0  0  0  0  0  0  0  0999 V2000
    1.1787   -8.0297    3.5154 C   0  0  0  0  0  0  0  0  0  0  0  0
    1.1048   -9.2215    3.2892 C   0  0  0  0  0  0  0  0  0  0  0  0
    1.3627  -10.1721    4.3044 C   0  0  0  0  0  0  0  0  0  0  0  0
    1.0682  -11.5187    4.0618 C   0  0  0  0  0  0  0  0  0  0  0  0
    0.6332  -11.9655    2.9682 C   0  0  0  0  0  0  0  0  0  0  0  0
    0.4776  -11.1308    1.9203 C   0  0  0  0  0  0  0  0  0  0  0  0
    0.7470   -9.8274    2.0368 C   0  0  0  0  0  0  0  0  0  0  0  0
    1.0387   -7.0301    2.5175 C   0  0  0  0  0  0  0  0  0  0  0  0
    1.1486   -5.5562    2.7651 C   0  0  0  0  0  0  0  0  0  0  0  0
    0.4339  -13.5730    2.7982 C   0  0  0  0  0  0  0  0  0  0  0  0
   -0.5147  -14.0607    2.2087 C   0  0  0  0  0  0  0  0  0  0  0  0
    1.5025  -14.3542    3.4547 C   0  0  0  0  0  0  0  0  0  0  0  0
   -1.5562  -13.1636    1.6840 C   0  0  0  0  0  0  0  0  0  0  0  0
    0.8424   -4.6586    1.9218 C   0  0  0  0  0  0  0  0  0  0  0  0
    1.3619   -3.3149    2.2482 C   0  0  0  0  0  0  0  0  0  0  0  0
    2.1733   -3.1092    3.3014 C   0  0  0  0  0  0  0  0  0  0  0  0
    2.5634   -4.1368    4.1290 C   0  0  0  0  0  0  0  0  0  0  0  0
    2.1526   -5.3929    3.8082 C   0  0  0  0  0  0  0  0  0  0  0  0
  1  2  1  0
  1  8  2  3
  8  9  1  0
  5 10  1  0
 10 11  2  3
 10 12  1  0
 11 13  1  0
  2  3  2  0
  3  4  1  0
  4  5  2  0
  5  6  1  0
  6  7  2  0
  2  7  1  0
  9 14  2  0
 14 15  1  0
 15 16  2  0
 16 17  1  0
 17 18  2  0
  9 18  1  0
M  END

$$$$
No_2126-/export/home/yangzhenyu/potential_scad_32_flow//YTHDC2/2024-12-06-03-22-00/
     RDKit          3D

 18 19  0  0  1  0  0  0  0  0999 V2000
    1.1787   -8.0297    3.5154 C   0  0  0  0  0  0  0  0  0  0  0  0
    1.0491   -6.8434    2.9820 C   0  0  0  0  0  0  0  0  0  0  0  0
    0.9905   -9.0774    2.6527 C   0  0  0  0  0  0  0  0  0  0  0  0
    0.7897   -8.9519    1.3691 C   0  0  0  0  0  0  0  0  0  0  0  0
    0.7018   -7.7198    0.7892 C   0  0  0  0  0  0  0  0  0  0  0  0
    0.8918   -6.5957    1.6117 C   0  0  0  0  0  0  0  0  0  0  0  0
    1.0998  -10.4710    3.2437 C   0  0  0  0  0  0  0  0  0  0  0  0
    1.3102  -11.5554    2.5214 C   0  0  0  0  0  0  0  0  0  0  0  0
    1.4257  -12.8124    3.1919 C   0  0  0  0  0  0  0  0  0  0  0  0
    0.9222  -13.9339    2.5039 C   0  0  2  0  0  0  0  0  0  0  0  0
   -0.1904  -14.0081    1.9344 C   0  0  0  0  0  0  0  0  0  0  0  0
    0.8731   -5.2676    1.2061 O   0  0  0  0  0  0  0  0  0  0  0  0
   -1.2028  -13.7036    2.5237 C   0  0  0  0  0  0  0  0  0  0  0  0
   -2.2112  -13.2120    1.9240 C   0  0  0  0  0  0  0  0  0  0  0  0
   -2.3451  -13.2094    0.5361 C   0  0  0  0  0  0  0  0  0  0  0  0
   -1.2258  -13.5403   -0.1750 C   0  0  0  0  0  0  0  0  0  0  0  0
   -0.0870  -13.8884    0.4999 C   0  0  0  0  0  0  0  0  0  0  0  0
    1.7243  -15.0705    2.9676 C   0  0  0  0  0  0  0  0  0  0  0  0
  1  2  1  0
  3  4  1  0
  2  6  1  0
  5  6  1  0
  3  7  1  0
  7  8  2  3
  8  9  1  0
  9 10  1  0
 10 11  1  0
  6 12  2  0
 10 18  1  1
  1  3  1  0
  4  5  1  0
 11 13  2  0
 13 14  1  0
 14 15  2  0
 15 16  1  0
 16 17  2  0
 11 17  1  0
M  END

$$$$
No_2127-/export/home/yangzhenyu/potential_scad_32_flow//YTHDC2/2024-12-06-03-22-00/
     RDKit          3D

 18 19  0  0  0  0  0  0  0  0999 V2000
    1.1787   -8.0297    3.5154 C   0  0  0  0  0  0  0  0  0  0  0  0
    1.1048   -9.2215    3.2892 C   0  0  0  0  0  0  0  0  0  0  0  0
    1.3627  -10.1721    4.3044 C   0  0  0  0  0  0  0  0  0  0  0  0
    1.0682  -11.5187    4.0618 C   0  0  0  0  0  0  0  0  0  0  0  0
    0.6332  -11.9655    2.9682 C   0  0  0  0  0  0  0  0  0  0  0  0
    0.4776  -11.1308    1.9203 C   0  0  0  0  0  0  0  0  0  0  0  0
    0.7470   -9.8274    2.0368 C   0  0  0  0  0  0  0  0  0  0  0  0
    1.0387   -7.0301    2.5175 C   0  0  0  0  0  0  0  0  0  0  0  0
    0.9130   -7.5288    1.2013 C   0  0  0  0  0  0  0  0  0  0  0  0
    0.7893   -8.7979    0.9542 C   0  0  0  0  0  0  0  0  0  0  0  0
    0.0580   -9.1928   -0.1607 C   0  0  0  0  0  0  0  0  0  0  0  0
    0.5404   -9.2875   -1.3724 O   0  0  0  0  0  0  0  0  0  0  0  0
   -1.3372   -9.1462   -0.2002 N   0  0  0  0  0  0  0  0  0  0  0  0
    0.5051  -13.6265    2.7031 C   0  0  0  0  0  0  0  0  0  0  0  0
    1.5450  -14.3748    3.1555 C   0  0  0  0  0  0  0  0  0  0  0  0
    1.6233  -15.5945    2.5183 C   0  0  0  0  0  0  0  0  0  0  0  0
    0.8072  -16.6423    3.0578 C   0  0  0  0  0  0  0  0  0  0  0  0
    0.9909  -17.8452    2.5846 C   0  0  0  0  0  0  0  0  0  0  0  0
 10 11  1  0
 11 12  2  0
 11 13  1  0
  5 14  1  0
 14 15  1  0
 15 16  1  0
 16 17  1  0
 17 18  2  0
  2  3  1  0
  3  4  2  0
  4  5  1  0
  5  6  2  0
  6  7  1  0
  1  2  2  0
  2  7  1  0
  7 10  2  0
  9 10  1  0
  8  9  2  0
  1  8  1  0
M  END

$$$$
No_2128-/export/home/yangzhenyu/potential_scad_32_flow//YTHDC2/2024-12-06-03-22-00/
     RDKit          3D

 18 19  0  0  0  0  0  0  0  0999 V2000
    1.1787   -8.0297    3.5154 F   0  0  0  0  0  0  0  0  0  0  0  0
    0.9085   -8.9213    2.9287 C   0  0  0  0  0  0  0  0  0  0  0  0
    0.9042   -8.7651    1.6474 C   0  0  0  0  0  0  0  0  0  0  0  0
    1.1632   -9.8140    0.8407 C   0  0  0  0  0  0  0  0  0  0  0  0
    1.3763  -11.0768    1.3698 C   0  0  0  0  0  0  0  0  0  0  0  0
    1.4870  -11.2132    2.7065 C   0  0  0  0  0  0  0  0  0  0  0  0
    1.3529  -10.0769    3.4809 C   0  0  0  0  0  0  0  0  0  0  0  0
    0.4878   -7.4216    0.9908 C   0  0  0  0  0  0  0  0  0  0  0  0
   -0.5071   -6.9960    1.0150 C   0  0  0  0  0  0  0  0  0  0  0  0
   -0.9272   -5.7065    0.5669 C   0  0  0  0  0  0  0  0  0  0  0  0
   -0.2610   -4.5794    1.1810 C   0  0  0  0  0  0  0  0  0  0  0  0
   -0.5219   -3.3171    0.7473 C   0  0  0  0  0  0  0  0  0  0  0  0
   -1.5171   -3.0928   -0.2325 C   0  0  0  0  0  0  0  0  0  0  0  0
   -2.0607   -4.1354   -0.8573 C   0  0  0  0  0  0  0  0  0  0  0  0
   -1.7644   -5.3939   -0.4897 C   0  0  0  0  0  0  0  0  0  0  0  0
    1.8843  -12.4299    3.3425 C   0  0  0  0  0  0  0  0  0  0  0  0
    1.5349  -13.5707    2.5237 O   0  0  0  0  0  0  0  0  0  0  0  0
    0.5858  -14.4774    2.8953 C   0  0  0  0  0  0  0  0  0  0  0  0
  1  2  1  0
  3  8  1  0
  8  9  2  3
  9 10  1  0
  6 16  1  0
 16 17  1  0
 17 18  1  0
  2  3  2  0
  3  4  1  0
  4  5  2  0
  5  6  1  0
  6  7  2  0
  2  7  1  0
 10 11  2  0
 11 12  1  0
 12 13  2  0
 13 14  1  0
 14 15  2  0
 10 15  1  0
M  END

$$$$
No_2129-/export/home/yangzhenyu/potential_scad_32_flow//YTHDC2/2024-12-06-03-22-00/
     RDKit          3D

 19 19  0  0  0  0  0  0  0  0999 V2000
    1.1787   -8.0297    3.5154 O   0  0  0  0  0  0  0  0  0  0  0  0
    0.9969   -8.9689    3.0048 C   0  0  0  0  0  0  0  0  0  0  0  0
    1.3055  -10.1056    3.6616 C   0  0  0  0  0  0  0  0  0  0  0  0
    1.1249  -11.3503    3.0941 C   0  0  0  0  0  0  0  0  0  0  0  0
    0.6932  -11.4484    1.8586 C   0  0  0  0  0  0  0  0  0  0  0  0
    0.5498  -10.3736    1.0579 C   0  0  0  0  0  0  0  0  0  0  0  0
    0.7643   -9.1185    1.6383 C   0  0  0  0  0  0  0  0  0  0  0  0
    0.5937   -7.8467    1.0482 C   0  0  0  0  0  0  0  0  0  0  0  0
   -0.4358   -7.6746    0.4159 O   0  0  0  0  0  0  0  0  0  0  0  0
    1.5404   -6.9777    0.8453 O   0  0  0  0  0  0  0  0  0  0  0  0
    1.1769  -12.6398    3.8403 Cl  0  0  0  0  0  0  0  0  0  0  0  0
    0.4659  -12.6495    1.0509 Cl  0  0  0  0  0  0  0  0  0  0  0  0
    0.2418  -10.3910   -0.3093 C   0  0  0  0  0  0  0  0  0  0  0  0
    0.7035   -9.6436   -1.2011 C   0  0  0  0  0  0  0  0  0  0  0  0
    2.0401   -9.2830   -1.1593 O   0  0  0  0  0  0  0  0  0  0  0  0
    0.1171   -9.1134   -2.2319 O   0  0  0  0  0  0  0  0  0  0  0  0
    1.8995  -10.1276    5.0524 O   0  0  0  0  0  0  0  0  0  0  0  0
    3.3722  -10.1243    4.9362 C   0  0  0  0  0  0  0  0  0  0  0  0
    3.7728  -11.0653    6.1352 C   0  0  0  0  0  0  0  0  0  0  0  0
  1  2  1  0
  7  8  1  0
  8  9  2  0
  8 10  1  0
  4 11  1  0
  5 12  1  0
  6 13  1  0
 13 14  1  0
 14 15  1  0
 14 16  2  0
  3 17  1  0
 17 18  1  0
 18 19  1  0
  2  3  2  0
  3  4  1  0
  4  5  2  0
  5  6  1  0
  6  7  2  0
  2  7  1  0
M  END

$$$$
No_2130-/export/home/yangzhenyu/potential_scad_32_flow//YTHDC2/2024-12-06-03-22-00/
     RDKit          3D

 19 20  0  0  0  0  0  0  0  0999 V2000
    1.1787   -8.0297    3.5154 C   0  0  0  0  0  0  0  0  0  0  0  0
    1.0491   -6.8434    2.9820 C   0  0  0  0  0  0  0  0  0  0  0  0
    0.9905   -9.0774    2.6527 C   0  0  0  0  0  0  0  0  0  0  0  0
    0.7897   -8.9519    1.3691 C   0  0  0  0  0  0  0  0  0  0  0  0
    0.7018   -7.7198    0.7892 C   0  0  0  0  0  0  0  0  0  0  0  0
    0.8918   -6.5957    1.6117 C   0  0  0  0  0  0  0  0  0  0  0  0
    1.0998  -10.4710    3.2437 C   0  0  0  0  0  0  0  0  0  0  0  0
    0.0472  -11.2546    3.3963 C   0  0  0  0  0  0  0  0  0  0  0  0
    0.1622  -12.5732    3.4140 C   0  0  0  0  0  0  0  0  0  0  0  0
    1.4182  -13.1957    3.4048 C   0  0  0  0  0  0  0  0  0  0  0  0
    2.5550  -12.3947    3.0877 C   0  0  0  0  0  0  0  0  0  0  0  0
    2.4166  -11.0849    2.9699 C   0  0  0  0  0  0  0  0  0  0  0  0
    0.8571   -5.2495    1.2086 C   0  0  0  0  0  0  0  0  0  0  0  0
    1.4168  -14.5629    3.3677 O   0  0  0  0  0  0  0  0  0  0  0  0
    0.2043   -4.2872    2.0267 O   0  0  0  0  0  0  0  0  0  0  0  0
   -1.0055   -3.9400    1.5461 C   0  0  0  0  0  0  0  0  0  0  0  0
   -1.2822   -4.1497    0.4217 C   0  0  0  0  0  0  0  0  0  0  0  0
   -2.5402   -3.8247    0.0800 C   0  0  0  0  0  0  0  0  0  0  0  0
   -3.4502   -3.2406    0.8834 C   0  0  0  0  0  0  0  0  0  0  0  0
  3  7  1  0
  6 13  1  0
 10 14  1  0
 13 15  1  0
 15 16  1  0
 16 17  1  0
 17 18  2  3
 18 19  1  0
  1  2  2  0
  2  6  1  0
  5  6  2  0
  4  5  1  0
  3  4  2  0
  1  3  1  0
  7  8  2  0
  8  9  1  0
  9 10  2  0
 10 11  1  0
 11 12  2  0
  7 12  1  0
M  END

$$$$
No_2131-/export/home/yangzhenyu/potential_scad_32_flow//YTHDC2/2024-12-06-03-22-00/
     RDKit          3D

 18 18  0  0  1  0  0  0  0  0999 V2000
    1.1787   -8.0297    3.5154 C   0  0  0  0  0  0  0  0  0  0  0  0
    1.0491   -6.8434    2.9820 C   0  0  0  0  0  0  0  0  0  0  0  0
    0.9905   -9.0774    2.6527 C   0  0  0  0  0  0  0  0  0  0  0  0
    0.7897   -8.9519    1.3691 C   0  0  0  0  0  0  0  0  0  0  0  0
    0.7018   -7.7198    0.7892 C   0  0  0  0  0  0  0  0  0  0  0  0
    0.8918   -6.5957    1.6117 C   0  0  0  0  0  0  0  0  0  0  0  0
    1.0998  -10.4710    3.2437 C   0  0  0  0  0  0  0  0  0  0  0  0
    1.3102  -11.5554    2.5214 C   0  0  0  0  0  0  0  0  0  0  0  0
    1.4257  -12.8124    3.1919 C   0  0  0  0  0  0  0  0  0  0  0  0
    1.4301  -14.0627    2.4374 C   0  0  1  0  0  0  0  0  0  0  0  0
    0.8799   -5.2656    1.2046 O   0  0  0  0  0  0  0  0  0  0  0  0
    2.4181  -14.2077    1.4795 C   0  0  0  0  0  0  0  0  0  0  0  0
    1.5967  -15.2824    3.4072 C   0  0  0  0  0  0  0  0  0  0  0  0
    1.8444  -16.4861    2.6100 C   0  0  0  0  0  0  0  0  0  0  0  0
    1.2895  -17.5301    2.7890 C   0  0  0  0  0  0  0  0  0  0  0  0
    0.2396  -17.5309    3.4666 O   0  0  0  0  0  0  0  0  0  0  0  0
    2.1861  -18.5593    3.4634 O   0  0  0  0  0  0  0  0  0  0  0  0
    1.9808  -13.8058    0.2506 C   0  0  0  0  0  0  0  0  0  0  0  0
  1  2  1  0
  3  4  1  0
  2  6  1  0
  5  6  1  0
  3  7  1  0
  7  8  2  3
  8  9  1  0
 10  9  1  1
  6 11  2  0
 10 12  1  0
 10 13  1  0
 13 14  1  0
 14 15  1  0
 15 16  1  0
 15 17  2  0
 12 18  1  0
  1  3  1  0
  4  5  1  0
M  END

$$$$
No_2132-/export/home/yangzhenyu/potential_scad_32_flow//YTHDC2/2024-12-06-03-22-00/
     RDKit          3D

 17 18  0  0  1  0  0  0  0  0999 V2000
    1.1787   -8.0297    3.5154 C   0  0  0  0  0  0  0  0  0  0  0  0
    1.1048   -9.2215    3.2892 C   0  0  0  0  0  0  0  0  0  0  0  0
    1.2339   -9.7611    2.0189 C   0  0  0  0  0  0  0  0  0  0  0  0
    1.3583   -9.0036    0.9764 C   0  0  0  0  0  0  0  0  0  0  0  0
    1.5996   -7.6362    1.1311 C   0  0  0  0  0  0  0  0  0  0  0  0
    1.4830   -7.0928    2.3626 C   0  0  0  0  0  0  0  0  0  0  0  0
    1.5395   -5.7300    2.6182 C   0  0  0  0  0  0  0  0  0  0  0  0
    1.1775  -11.2233    1.8407 C   0  0  2  0  0  0  0  0  0  0  0  0
    1.9057  -12.1147    2.3397 C   0  0  1  0  0  0  0  0  0  0  0  0
    1.8570  -12.2582    3.5930 C   0  0  0  0  0  0  0  0  0  0  0  0
    1.7771  -13.4969    1.6993 C   0  0  0  0  0  0  0  0  0  0  0  0
    1.6782   -5.1631    3.8986 N   0  0  0  0  0  0  0  0  0  0  0  0
    1.4226   -4.8383    1.6325 O   0  0  0  0  0  0  0  0  0  0  0  0
    2.4097  -11.1048    4.1446 O   0  0  0  0  0  0  0  0  0  0  0  0
    0.7833  -13.9147    1.0271 C   0  0  0  0  0  0  0  0  0  0  0  0
    0.0266  -13.0393    0.5645 C   0  0  0  0  0  0  0  0  0  0  0  0
    0.1471  -11.5833    0.7959 N   0  0  0  0  0  0  0  0  0  0  0  0
  6  7  1  0
  8  3  1  6
  8  9  1  0
  9 10  1  1
  9 11  1  0
  7 12  1  0
  7 13  2  0
 10 14  1  0
 11 15  1  0
 15 16  1  0
  8 17  1  0
 16 17  1  0
  1  2  2  0
  2  3  1  0
  3  4  2  0
  4  5  1  0
  5  6  2  0
  1  6  1  0
M  END

$$$$
No_2133-/export/home/yangzhenyu/potential_scad_32_flow//YTHDC2/2024-12-06-03-22-00/
     RDKit          3D

 19 20  0  0  0  0  0  0  0  0999 V2000
    1.1787   -8.0297    3.5154 C   0  0  0  0  0  0  0  0  0  0  0  0
    1.1048   -9.2215    3.2892 C   0  0  0  0  0  0  0  0  0  0  0  0
    1.2339   -9.7611    2.0189 C   0  0  0  0  0  0  0  0  0  0  0  0
    1.3583   -9.0036    0.9764 C   0  0  0  0  0  0  0  0  0  0  0  0
    1.5996   -7.6362    1.1311 C   0  0  0  0  0  0  0  0  0  0  0  0
    1.4830   -7.0928    2.3626 C   0  0  0  0  0  0  0  0  0  0  0  0
    1.1008  -11.2372    1.8542 C   0  0  0  0  0  0  0  0  0  0  0  0
    1.9749  -12.0938    2.2342 N   0  0  0  0  0  0  0  0  0  0  0  0
    1.6470  -13.3117    2.5080 C   0  0  0  0  0  0  0  0  0  0  0  0
    0.6646  -13.5870    3.4010 C   0  0  0  0  0  0  0  0  0  0  0  0
    0.2374  -14.9321    3.4717 C   0  0  0  0  0  0  0  0  0  0  0  0
    0.7544  -15.9835    2.9552 C   0  0  0  0  0  0  0  0  0  0  0  0
    1.9286  -15.7817    2.1672 C   0  0  0  0  0  0  0  0  0  0  0  0
    2.4319  -14.5012    1.9816 C   0  0  0  0  0  0  0  0  0  0  0  0
    0.1967  -11.5927    0.9120 O   0  0  0  0  0  0  0  0  0  0  0  0
    1.5381   -5.6600    2.6545 O   0  0  0  0  0  0  0  0  0  0  0  0
    1.6409   -9.4506   -0.4898 C   0  0  0  0  0  0  0  0  0  0  0  0
    0.5036   -9.5468   -1.1047 O   0  0  0  0  0  0  0  0  0  0  0  0
    2.6958   -9.1993   -1.1311 O   0  0  0  0  0  0  0  0  0  0  0  0
  3  7  1  0
  7  8  1  0
  8  9  1  0
  7 15  2  0
  6 16  1  0
  4 17  1  0
 17 18  2  0
 17 19  1  0
  1  2  2  0
  2  3  1  0
  3  4  2  0
  4  5  1  0
  5  6  2  0
  1  6  1  0
  9 10  2  0
 10 11  1  0
 11 12  2  0
 12 13  1  0
 13 14  2  0
  9 14  1  0
M  END

$$$$
No_2134-/export/home/yangzhenyu/potential_scad_32_flow//YTHDC2/2024-12-06-03-22-00/
     RDKit          3D

 20 22  0  0  1  0  0  0  0  0999 V2000
    1.1787   -8.0297    3.5154 C   0  0  0  0  0  0  0  0  0  0  0  0
    1.0491   -6.8434    2.9820 C   0  0  0  0  0  0  0  0  0  0  0  0
    0.9905   -9.0774    2.6527 C   0  0  0  0  0  0  0  0  0  0  0  0
    1.1655  -10.4663    3.1286 C   0  0  0  0  0  0  0  0  0  0  0  0
    1.2197  -11.4898    2.5831 C   0  0  0  0  0  0  0  0  0  0  0  0
    1.0589  -11.4458    1.1293 C   0  0  0  0  0  0  0  0  0  0  0  0
    0.9638  -10.3069    0.4651 C   0  0  0  0  0  0  0  0  0  0  0  0
    0.9191   -9.0789    1.1942 C   0  0  0  0  0  0  0  0  0  0  0  0
    0.9198   -7.8339    0.6158 C   0  0  0  0  0  0  0  0  0  0  0  0
    1.0184   -6.6904    1.4953 C   0  0  0  0  0  0  0  0  0  0  0  0
    1.3445  -12.8198    3.0746 C   0  0  0  0  0  0  0  0  0  0  0  0
    0.2302  -13.7310    2.9230 N   0  0  0  0  0  0  0  0  0  0  0  0
    0.6210  -15.0671    3.2385 C   0  0  0  0  0  0  0  0  0  0  0  0
   -0.2741  -16.0433    3.2637 C   0  0  1  0  0  0  0  0  0  0  0  0
   -1.5118  -15.8106    2.8210 C   0  0  0  0  0  0  0  0  0  0  0  0
   -1.8766  -14.4938    2.4475 C   0  0  0  0  0  0  0  0  0  0  0  0
   -0.9386  -13.4940    2.3974 C   0  0  0  0  0  0  0  0  0  0  0  0
    1.3403   -5.5938    3.6522 O   0  0  0  0  0  0  0  0  0  0  0  0
    0.2187  -17.5333    3.5877 C   0  0  0  0  0  0  0  0  0  0  0  0
    1.1764  -18.0284    2.9983 C   0  0  0  0  0  0  0  0  0  0  0  0
  1  2  1  0
  8  9  1  0
  2 10  1  0
  5 11  1  0
 11 12  1  0
 12 13  1  0
 13 14  1  0
 15 16  1  0
 12 17  1  0
 16 17  1  0
  2 18  2  0
 14 19  1  6
 19 20  2  0
 14 15  1  0
  1  3  1  0
  9 10  1  0
  3  4  2  0
  4  5  1  0
  5  6  2  0
  6  7  1  0
  7  8  2  0
  3  8  1  0
M  END

$$$$
No_2135-/export/home/yangzhenyu/potential_scad_32_flow//YTHDC2/2024-12-06-03-22-00/
     RDKit          3D

 19 21  0  0  1  0  0  0  0  0999 V2000
    1.1787   -8.0297    3.5154 C   0  0  0  0  0  0  0  0  0  0  0  0
    1.1048   -9.2215    3.2892 C   0  0  0  0  0  0  0  0  0  0  0  0
    1.2339   -9.7611    2.0189 C   0  0  1  0  0  0  0  0  0  0  0  0
    1.1954  -11.2312    1.8661 C   0  0  0  0  0  0  0  0  0  0  0  0
    1.5546  -12.1691    2.7931 C   0  0  0  0  0  0  0  0  0  0  0  0
    0.5849   -7.0929    2.5729 C   0  0  2  0  0  0  0  0  0  0  0  0
    0.5567   -7.6699    1.1955 C   0  0  0  0  0  0  0  0  0  0  0  0
    0.7903   -8.9699    0.9209 C   0  0  0  0  0  0  0  0  0  0  0  0
    1.5521  -13.4960    2.3485 C   0  0  0  0  0  0  0  0  0  0  0  0
    1.2403  -13.8919    1.1557 C   0  0  0  0  0  0  0  0  0  0  0  0
    1.0311  -12.9707    0.1488 C   0  0  0  0  0  0  0  0  0  0  0  0
    0.9678  -11.6394    0.4949 C   0  0  0  0  0  0  0  0  0  0  0  0
    0.6235   -5.6335    2.6368 C   0  0  0  0  0  0  0  0  0  0  0  0
    0.3286   -6.8520    0.1792 O   0  0  0  0  0  0  0  0  0  0  0  0
   -0.5946   -5.0169    2.5569 C   0  0  0  0  0  0  0  0  0  0  0  0
   -0.6237   -3.5602    2.4675 C   0  0  0  0  0  0  0  0  0  0  0  0
    0.5926   -2.9077    2.6811 C   0  0  0  0  0  0  0  0  0  0  0  0
    1.8054   -3.5740    2.9254 C   0  0  0  0  0  0  0  0  0  0  0  0
    1.7774   -4.9910    2.8416 C   0  0  0  0  0  0  0  0  0  0  0  0
  1  2  1  0
  3  4  1  1
  6  7  1  0
  3  8  1  0
  7  8  1  0
  6 13  1  6
  7 14  2  0
  1  6  1  0
  2  3  1  0
 13 15  2  0
 15 16  1  0
 16 17  2  0
 17 18  1  0
 18 19  2  0
 13 19  1  0
  4  5  2  0
  5  9  1  0
  9 10  2  0
 10 11  1  0
 11 12  2  0
  4 12  1  0
M  END

$$$$
No_2136-/export/home/yangzhenyu/potential_scad_32_flow//YTHDC2/2024-12-06-03-22-00/
     RDKit          3D

 18 18  0  0  1  0  0  0  0  0999 V2000
    1.1787   -8.0297    3.5154 O   0  0  0  0  0  0  0  0  0  0  0  0
    0.9969   -8.9689    3.0048 C   0  0  0  0  0  0  0  0  0  0  0  0
    0.9976   -8.9567    1.6341 C   0  0  1  0  0  0  0  0  0  0  0  0
    1.6062   -9.9071    0.9292 C   0  0  2  0  0  0  0  0  0  0  0  0
    2.0095   -9.6826   -0.3081 Cl  0  0  0  0  0  0  0  0  0  0  0  0
    0.7665  -10.0839    3.6269 C   0  0  0  0  0  0  0  0  0  0  0  0
    0.8158  -11.2504    3.1124 C   0  0  1  0  0  0  0  0  0  0  0  0
    1.2071  -11.2643    1.6896 C   0  0  0  0  0  0  0  0  0  0  0  0
    1.3636  -12.4394    0.9371 O   0  0  0  0  0  0  0  0  0  0  0  0
    0.2102   -8.0604    1.1381 C   0  0  0  0  0  0  0  0  0  0  0  0
    0.5583   -6.7234    1.0960 C   0  0  0  0  0  0  0  0  0  0  0  0
   -0.2082   -5.6113    0.8751 C   0  0  0  0  0  0  0  0  0  0  0  0
   -1.1322   -5.4343    1.2800 C   0  0  0  0  0  0  0  0  0  0  0  0
   -1.9439   -4.2751    1.0119 C   0  0  0  0  0  0  0  0  0  0  0  0
    0.9411  -12.5925    3.6285 C   0  0  0  0  0  0  0  0  0  0  0  0
   -2.2026   -3.8279   -0.1343 C   0  0  0  0  0  0  0  0  0  0  0  0
   -2.7882   -2.5178   -0.3064 C   0  0  0  0  0  0  0  0  0  0  0  0
   -2.8463   -2.0301   -1.5648 C   0  0  0  0  0  0  0  0  0  0  0  0
  1  2  1  0
  3  2  1  1
  3  4  1  0
  4  5  1  6
  2  6  1  0
  4  8  1  0
  7  8  1  0
  8  9  2  0
  3 10  1  0
 10 11  2  3
 11 12  1  0
 12 13  2  3
 13 14  1  0
  7 15  1  1
 14 16  2  3
 16 17  1  0
 17 18  2  0
  6  7  1  0
M  END

$$$$
No_2137-/export/home/yangzhenyu/potential_scad_32_flow//YTHDC2/2024-12-06-03-22-00/
     RDKit          3D

 18 18  0  0  1  0  0  0  0  0999 V2000
    1.1787   -8.0297    3.5154 O   0  0  0  0  0  0  0  0  0  0  0  0
    0.6747   -7.4019    2.7838 C   0  0  0  0  0  0  0  0  0  0  0  0
    0.5570   -6.0797    2.8560 C   0  0  0  0  0  0  0  0  0  0  0  0
   -0.2158   -5.3007    2.0284 C   0  0  0  0  0  0  0  0  0  0  0  0
   -0.8260   -5.9169    1.0290 C   0  0  0  0  0  0  0  0  0  0  0  0
   -0.6925   -7.2407    0.8216 C   0  0  0  0  0  0  0  0  0  0  0  0
    0.1645   -8.0156    1.6621 C   0  0  0  0  0  0  0  0  0  0  0  0
    0.4049   -9.3434    1.4877 C   0  0  2  0  0  0  0  0  0  0  0  0
    1.4848   -9.6364    0.5257 C   0  0  0  0  0  0  0  0  0  0  0  0
    2.0741   -8.6266   -0.2725 O   0  0  0  0  0  0  0  0  0  0  0  0
    2.0140  -10.7982    0.4205 O   0  0  0  0  0  0  0  0  0  0  0  0
   -0.3872   -3.8691    2.2780 O   0  0  0  0  0  0  0  0  0  0  0  0
    0.5087   -3.0377    2.1200 C   0  0  0  0  0  0  0  0  0  0  0  0
   -0.2165  -10.3055    1.8571 C   0  0  0  0  0  0  0  0  0  0  0  0
   -1.1976  -11.0952    1.2365 O   0  0  0  0  0  0  0  0  0  0  0  0
    0.2902  -11.1149    2.9677 C   0  0  0  0  0  0  0  0  0  0  0  0
    0.6633  -10.7689    4.0886 C   0  0  0  0  0  0  0  0  0  0  0  0
    0.6014  -12.6503    2.6853 C   0  0  0  0  0  0  0  0  0  0  0  0
  1  2  1  0
  7  8  1  0
  8  9  1  6
  9 10  2  0
  9 11  1  0
  4 12  1  0
 12 13  1  0
  8 14  1  0
 14 15  2  0
 14 16  1  0
 16 17  2  0
 16 18  1  0
  2  3  2  0
  3  4  1  0
  4  5  2  0
  5  6  1  0
  6  7  2  0
  2  7  1  0
M  END

$$$$
No_2138-/export/home/yangzhenyu/potential_scad_32_flow//YTHDC2/2024-12-06-03-22-00/
     RDKit          3D

 18 19  0  0  1  0  0  0  0  0999 V2000
    1.1787   -8.0297    3.5154 C   0  0  0  0  0  0  0  0  0  0  0  0
    1.0491   -6.8434    2.9820 C   0  0  0  0  0  0  0  0  0  0  0  0
    0.0950   -8.8404    3.2292 C   0  0  0  0  0  0  0  0  0  0  0  0
   -0.9173   -8.4596    2.5152 C   0  0  0  0  0  0  0  0  0  0  0  0
   -1.0331   -7.2162    2.0653 C   0  0  0  0  0  0  0  0  0  0  0  0
   -0.0105   -6.3168    2.3081 C   0  0  0  0  0  0  0  0  0  0  0  0
    0.1465  -10.2446    3.6981 C   0  0  2  0  0  0  0  0  0  0  0  0
    0.1907  -11.3369    2.8651 C   0  0  0  0  0  0  0  0  0  0  0  0
    1.0128  -11.8996    2.5974 C   0  0  0  0  0  0  0  0  0  0  0  0
    1.1895  -13.1640    1.9820 C   0  0  0  0  0  0  0  0  0  0  0  0
    0.1218  -13.6939    1.4868 C   0  0  0  0  0  0  0  0  0  0  0  0
   -1.0532  -13.0913    1.6355 C   0  0  0  0  0  0  0  0  0  0  0  0
   -1.0791  -11.9249    2.3376 C   0  0  0  0  0  0  0  0  0  0  0  0
   -0.0010   -4.9709    1.8906 Br  0  0  0  0  0  0  0  0  0  0  0  0
    0.0506  -10.4371    5.0843 Cl  0  0  0  0  0  0  0  0  0  0  0  0
    2.4472  -13.9718    1.8877 Cl  0  0  0  0  0  0  0  0  0  0  0  0
   -0.0264  -14.8985    0.7363 Cl  0  0  0  0  0  0  0  0  0  0  0  0
   -2.5425  -13.5152    1.1129 O   0  0  0  0  0  0  0  0  0  0  0  0
  3  7  1  0
  7  8  1  0
  6 14  1  0
  7 15  1  6
 10 16  1  0
 11 17  1  0
 12 18  1  0
  1  2  2  0
  2  6  1  0
  5  6  2  0
  4  5  1  0
  3  4  2  0
  1  3  1  0
  8  9  2  0
  9 10  1  0
 10 11  2  0
 11 12  1  0
 12 13  2  0
  8 13  1  0
M  END

$$$$
No_2139-/export/home/yangzhenyu/potential_scad_32_flow//YTHDC2/2024-12-06-03-22-00/
     RDKit          3D

 21 22  0  0  0  0  0  0  0  0999 V2000
    1.1787   -8.0297    3.5154 C   0  0  0  0  0  0  0  0  0  0  0  0
    1.1048   -9.2215    3.2892 C   0  0  0  0  0  0  0  0  0  0  0  0
    1.2339   -9.7611    2.0189 C   0  0  0  0  0  0  0  0  0  0  0  0
    1.3583   -9.0036    0.9764 C   0  0  0  0  0  0  0  0  0  0  0  0
    1.5996   -7.6362    1.1311 C   0  0  0  0  0  0  0  0  0  0  0  0
    1.4830   -7.0928    2.3626 C   0  0  0  0  0  0  0  0  0  0  0  0
    1.5395   -5.7300    2.6182 C   0  0  0  0  0  0  0  0  0  0  0  0
    1.1969  -11.3760    1.8433 C   0  0  0  0  0  0  0  0  0  0  0  0
    1.0771  -11.6644    0.5388 O   0  0  0  0  0  0  0  0  0  0  0  0
    1.8156  -12.0496    2.6758 N   0  0  0  0  0  0  0  0  0  0  0  0
    1.7794  -13.4327    2.5814 C   0  0  0  0  0  0  0  0  0  0  0  0
    0.7291  -14.1798    3.3158 C   0  0  0  0  0  0  0  0  0  0  0  0
    0.8561  -15.5800    3.1453 O   0  0  0  0  0  0  0  0  0  0  0  0
    2.0313  -15.9992    2.5572 C   0  0  0  0  0  0  0  0  0  0  0  0
    1.2730   -4.8031    1.7054 C   0  0  0  0  0  0  0  0  0  0  0  0
    1.2238   -3.3796    1.9448 C   0  0  0  0  0  0  0  0  0  0  0  0
    2.8491  -15.2607    1.7711 C   0  0  0  0  0  0  0  0  0  0  0  0
    2.7357  -13.8925    1.8405 C   0  0  0  0  0  0  0  0  0  0  0  0
    2.1698  -17.3586    2.7186 O   0  0  0  0  0  0  0  0  0  0  0  0
    1.0301   -2.5021    1.0667 C   0  0  0  0  0  0  0  0  0  0  0  0
    0.5011   -2.9859   -0.2344 C   0  0  0  0  0  0  0  0  0  0  0  0
  6  7  1  0
  3  8  1  0
  8  9  2  0
  8 10  1  0
 10 11  1  0
 11 12  1  0
 12 13  1  0
 13 14  1  0
  7 15  2  3
 15 16  1  0
 14 17  1  0
 11 18  1  0
 17 18  1  0
 14 19  2  0
 16 20  2  3
 20 21  1  0
  1  2  2  0
  2  3  1  0
  3  4  2  0
  4  5  1  0
  5  6  2  0
  1  6  1  0
M  END

$$$$
No_2140-/export/home/yangzhenyu/potential_scad_32_flow//YTHDC2/2024-12-06-03-22-00/
     RDKit          3D

 19 19  0  0  1  0  0  0  0  0999 V2000
    1.1787   -8.0297    3.5154 Cl  0  0  0  0  0  0  0  0  0  0  0  0
    0.6122   -7.9650    2.5747 C   0  0  2  0  0  0  0  0  0  0  0  0
    0.4809   -9.1882    1.8138 C   0  0  0  0  0  0  0  0  0  0  0  0
    0.7467  -10.3320    2.4096 C   0  0  0  0  0  0  0  0  0  0  0  0
    1.8223  -10.9925    1.9211 C   0  0  0  0  0  0  0  0  0  0  0  0
    0.1533   -6.7295    1.8734 C   0  0  2  0  0  0  0  0  0  0  0  0
    2.4572  -10.4885    0.8044 O   0  0  0  0  0  0  0  0  0  0  0  0
    2.4559  -12.0295    2.3581 O   0  0  0  0  0  0  0  0  0  0  0  0
   -1.0201   -6.7408    1.3871 C   0  0  0  0  0  0  0  0  0  0  0  0
   -2.1196   -6.8911    1.9121 C   0  0  0  0  0  0  0  0  0  0  0  0
   -2.8202   -7.9836    2.0126 C   0  0  0  0  0  0  0  0  0  0  0  0
   -3.8440   -8.1708    2.9624 C   0  0  0  0  0  0  0  0  0  0  0  0
   -4.1685   -7.0006    3.7563 C   0  0  0  0  0  0  0  0  0  0  0  0
   -3.5095   -5.8878    3.7557 C   0  0  0  0  0  0  0  0  0  0  0  0
   -2.4485   -5.6947    2.9203 C   0  0  0  0  0  0  0  0  0  0  0  0
    1.1478   -5.8234    1.6158 C   0  0  0  0  0  0  0  0  0  0  0  0
    0.7340   -4.4199    1.4091 O   0  0  0  0  0  0  0  0  0  0  0  0
    1.1526   -3.4162    2.3970 C   0  0  0  0  0  0  0  0  0  0  0  0
   -1.1457   -6.5116    0.0474 O   0  0  0  0  0  0  0  0  0  0  0  0
  2  1  1  6
  2  3  1  0
  3  4  1  0
  4  5  1  0
  2  6  1  0
  5  7  2  0
  5  8  1  0
  6  9  1  0
  9 10  1  0
  6 16  1  6
 16 17  1  0
 17 18  1  0
  9 19  2  0
 10 11  2  0
 11 12  1  0
 12 13  2  0
 13 14  1  0
 14 15  2  0
 10 15  1  0
M  END

$$$$
No_2141-/export/home/yangzhenyu/potential_scad_32_flow//YTHDC2/2024-12-06-03-22-00/
     RDKit          3D

 18 18  0  0  0  0  0  0  0  0999 V2000
    1.1787   -8.0297    3.5154 O   0  0  0  0  0  0  0  0  0  0  0  0
    0.6747   -7.4019    2.7838 C   0  0  0  0  0  0  0  0  0  0  0  0
    0.5570   -6.0797    2.8560 C   0  0  0  0  0  0  0  0  0  0  0  0
    1.6734   -5.4651    3.4094 C   0  0  0  0  0  0  0  0  0  0  0  0
    1.4143   -9.4928    3.3921 C   0  0  0  0  0  0  0  0  0  0  0  0
    1.8565  -10.2582    4.4918 C   0  0  0  0  0  0  0  0  0  0  0  0
    1.9067  -11.7135    4.3017 C   0  0  0  0  0  0  0  0  0  0  0  0
    1.5184  -12.1421    3.0669 C   0  0  0  0  0  0  0  0  0  0  0  0
    1.0215  -11.3735    2.0967 C   0  0  0  0  0  0  0  0  0  0  0  0
    1.0036  -10.0506    2.2626 C   0  0  0  0  0  0  0  0  0  0  0  0
    1.5681  -13.8238    3.0313 C   0  0  0  0  0  0  0  0  0  0  0  0
    0.3540  -14.3280    2.9911 C   0  0  0  0  0  0  0  0  0  0  0  0
   -0.6598  -13.8111    2.4949 C   0  0  0  0  0  0  0  0  0  0  0  0
    0.4348  -15.7788    3.3902 C   0  0  0  0  0  0  0  0  0  0  0  0
   -0.9529  -12.6518    2.0687 C   0  0  0  0  0  0  0  0  0  0  0  0
   -2.2970  -12.4994    1.3338 C   0  0  0  0  0  0  0  0  0  0  0  0
   -2.4643  -11.1395    0.8252 C   0  0  0  0  0  0  0  0  0  0  0  0
   -0.6731   -5.6145    3.5674 C   0  0  0  0  0  0  0  0  0  0  0  0
  1  2  1  0
  2  3  1  0
  3  4  1  0
  1  5  1  0
  8 11  1  0
 11 12  1  0
 12 13  2  3
 12 14  1  0
 13 15  1  0
 15 16  2  3
 16 17  1  0
  3 18  1  0
  5  6  2  0
  6  7  1  0
  7  8  2  0
  8  9  1  0
  9 10  2  0
  5 10  1  0
M  END

$$$$
No_2142-/export/home/yangzhenyu/potential_scad_32_flow//YTHDC2/2024-12-06-03-22-00/
     RDKit          3D

 16 17  0  0  0  0  0  0  0  0999 V2000
    1.1787   -8.0297    3.5154 C   0  0  0  0  0  0  0  0  0  0  0  0
    1.1048   -9.2215    3.2892 C   0  0  0  0  0  0  0  0  0  0  0  0
    1.2339   -9.7611    2.0189 C   0  0  0  0  0  0  0  0  0  0  0  0
    1.3583   -9.0036    0.9764 C   0  0  0  0  0  0  0  0  0  0  0  0
    1.5996   -7.6362    1.1311 C   0  0  0  0  0  0  0  0  0  0  0  0
    1.4830   -7.0928    2.3626 C   0  0  0  0  0  0  0  0  0  0  0  0
    1.1171  -11.3311    1.8661 C   0  0  0  0  0  0  0  0  0  0  0  0
    0.5042  -11.9974    2.3631 C   0  0  0  0  0  0  0  0  0  0  0  0
   -0.5114  -11.5127    3.3905 N   0  0  0  0  0  0  0  0  0  0  0  0
    0.3319  -13.4487    2.1385 C   0  0  0  0  0  0  0  0  0  0  0  0
   -0.6451  -14.0290    2.0857 C   0  0  0  0  0  0  0  0  0  0  0  0
   -0.6390  -15.4991    1.8822 C   0  0  0  0  0  0  0  0  0  0  0  0
    0.0724  -16.1456    2.6330 C   0  0  0  0  0  0  0  0  0  0  0  0
    1.4040  -15.5647    3.0909 C   0  0  0  0  0  0  0  0  0  0  0  0
    1.5399  -14.1408    2.9451 C   0  0  0  0  0  0  0  0  0  0  0  0
    1.5606   -5.6701    2.6268 C   0  0  0  0  0  0  0  0  0  0  0  0
  3  7  1  0
  7  8  2  3
  8  9  1  0
  8 10  1  0
  6 16  1  0
  1  2  2  0
  2  3  1  0
  3  4  2  0
  4  5  1  0
  5  6  2  0
  1  6  1  0
 10 11  2  0
 11 12  1  0
 12 13  2  0
 13 14  1  0
 14 15  2  0
 10 15  1  0
M  END

$$$$
No_2143-/export/home/yangzhenyu/potential_scad_32_flow//YTHDC2/2024-12-06-03-22-00/
     RDKit          3D

 20 21  0  0  0  0  0  0  0  0999 V2000
    1.1787   -8.0297    3.5154 C   0  0  0  0  0  0  0  0  0  0  0  0
    1.0491   -6.8434    2.9820 C   0  0  0  0  0  0  0  0  0  0  0  0
    0.9905   -9.0774    2.6527 C   0  0  0  0  0  0  0  0  0  0  0  0
    0.7897   -8.9519    1.3691 C   0  0  0  0  0  0  0  0  0  0  0  0
    0.7018   -7.7198    0.7892 C   0  0  0  0  0  0  0  0  0  0  0  0
    0.8918   -6.5957    1.6117 C   0  0  0  0  0  0  0  0  0  0  0  0
    1.0774  -10.6059    3.3145 C   0  0  0  0  0  0  0  0  0  0  0  0
   -0.1032  -11.1934    3.4585 C   0  0  0  0  0  0  0  0  0  0  0  0
   -1.2292  -10.4461    3.8202 N   0  0  0  0  0  0  0  0  0  0  0  0
   -0.1862  -12.4871    3.3096 C   0  0  0  0  0  0  0  0  0  0  0  0
    0.9704  -13.2934    3.4644 S   0  0  0  0  0  0  0  0  0  0  0  0
    0.3356  -14.8317    2.9072 C   0  0  0  0  0  0  0  0  0  0  0  0
    1.2978  -15.9025    2.8856 C   0  0  0  0  0  0  0  0  0  0  0  0
    2.5886  -15.7564    2.3078 C   0  0  0  0  0  0  0  0  0  0  0  0
    3.2723  -17.0377    2.3387 C   0  0  0  0  0  0  0  0  0  0  0  0
    2.9032  -18.1686    3.0276 C   0  0  0  0  0  0  0  0  0  0  0  0
    1.6938  -18.2042    3.5955 C   0  0  0  0  0  0  0  0  0  0  0  0
    0.9114  -17.0944    3.6508 C   0  0  0  0  0  0  0  0  0  0  0  0
    0.8388   -5.2923    1.0777 Cl  0  0  0  0  0  0  0  0  0  0  0  0
   -2.1659  -10.7188    4.0681 O   0  0  0  0  0  0  0  0  0  0  0  0
  3  7  1  0
  7  8  1  0
  8  9  1  0
  8 10  1  0
 10 11  1  0
 11 12  1  0
 12 13  1  0
  6 19  1  0
  9 20  2  0
 13 14  2  0
 14 15  1  0
 15 16  2  0
 16 17  1  0
 17 18  2  0
 13 18  1  0
  1  2  2  0
  2  6  1  0
  5  6  2  0
  4  5  1  0
  3  4  2  0
  1  3  1  0
M  END

$$$$
No_2144-/export/home/yangzhenyu/potential_scad_32_flow//YTHDC2/2024-12-06-03-22-00/
     RDKit          3D

 20 21  0  0  0  0  0  0  0  0999 V2000
    1.1787   -8.0297    3.5154 C   0  0  0  0  0  0  0  0  0  0  0  0
    1.0491   -6.8434    2.9820 C   0  0  0  0  0  0  0  0  0  0  0  0
    0.0950   -8.8404    3.2292 C   0  0  0  0  0  0  0  0  0  0  0  0
   -0.9173   -8.4596    2.5152 C   0  0  0  0  0  0  0  0  0  0  0  0
   -1.0331   -7.2162    2.0653 C   0  0  0  0  0  0  0  0  0  0  0  0
   -0.0105   -6.3168    2.3081 C   0  0  0  0  0  0  0  0  0  0  0  0
    0.1465  -10.2446    3.6981 C   0  0  0  0  0  0  0  0  0  0  0  0
    1.2433  -10.8239    4.0166 C   0  0  0  0  0  0  0  0  0  0  0  0
    1.0790  -12.2885    4.3779 C   0  0  0  0  0  0  0  0  0  0  0  0
    0.0275  -12.8546    3.8829 C   0  0  0  0  0  0  0  0  0  0  0  0
   -0.9912  -12.3424    3.4171 C   0  0  0  0  0  0  0  0  0  0  0  0
   -1.0024  -10.9675    3.2748 C   0  0  0  0  0  0  0  0  0  0  0  0
   -0.1252   -5.0186    1.8241 S   0  0  0  0  0  0  0  0  0  0  0  0
   -0.9664   -4.1106    2.7268 O   0  0  0  0  0  0  0  0  0  0  0  0
    1.2856   -4.1651    2.0680 O   0  0  0  0  0  0  0  0  0  0  0  0
   -0.4849   -4.6783    0.3490 C   0  0  0  0  0  0  0  0  0  0  0  0
   -0.6720   -3.2911   -0.0284 C   0  0  0  0  0  0  0  0  0  0  0  0
   -1.6713   -2.8666   -0.6062 C   0  0  0  0  0  0  0  0  0  0  0  0
   -1.7820   -1.4987   -0.9399 C   0  0  0  0  0  0  0  0  0  0  0  0
   -0.6034   -0.6617   -0.8029 C   0  0  0  0  0  0  0  0  0  0  0  0
  3  7  1  0
  6 13  1  0
 13 14  2  0
 13 15  2  0
 13 16  1  0
 16 17  1  0
 17 18  2  3
 18 19  1  0
 19 20  2  0
  1  2  2  0
  2  6  1  0
  5  6  2  0
  4  5  1  0
  3  4  2  0
  1  3  1  0
  7  8  2  0
  8  9  1  0
  9 10  2  0
 10 11  1  0
 11 12  2  0
  7 12  1  0
M  END

$$$$
No_2145-/export/home/yangzhenyu/potential_scad_32_flow//YTHDC2/2024-12-06-03-22-00/
     RDKit          3D

 17 18  0  0  0  0  0  0  0  0999 V2000
    1.1787   -8.0297    3.5154 C   0  0  0  0  0  0  0  0  0  0  0  0
    1.0491   -6.8434    2.9820 C   0  0  0  0  0  0  0  0  0  0  0  0
    0.0950   -8.8404    3.2292 C   0  0  0  0  0  0  0  0  0  0  0  0
   -0.9173   -8.4596    2.5152 C   0  0  0  0  0  0  0  0  0  0  0  0
   -1.0331   -7.2162    2.0653 C   0  0  0  0  0  0  0  0  0  0  0  0
   -0.0105   -6.3168    2.3081 C   0  0  0  0  0  0  0  0  0  0  0  0
    0.1465  -10.2446    3.6981 C   0  0  0  0  0  0  0  0  0  0  0  0
    1.2433  -10.8239    4.0166 C   0  0  0  0  0  0  0  0  0  0  0  0
    1.0790  -12.2885    4.3779 N   0  0  0  0  0  0  0  0  0  0  0  0
    0.0124  -12.7573    3.8993 C   0  0  0  0  0  0  0  0  0  0  0  0
   -0.6559  -11.3969    3.4669 N   0  0  0  0  0  0  0  0  0  0  0  0
   -0.0777   -5.0203    1.8399 C   0  0  0  0  0  0  0  0  0  0  0  0
   -0.7606   -4.1439    2.2961 O   0  0  0  0  0  0  0  0  0  0  0  0
    0.8064   -4.6187    0.9797 O   0  0  0  0  0  0  0  0  0  0  0  0
    2.5059  -10.2964    4.5218 N   0  0  0  0  0  0  0  0  0  0  0  0
   -0.5520  -13.8410    3.7996 C   0  0  0  0  0  0  0  0  0  0  0  0
   -1.6588  -14.0740    2.9878 C   0  0  0  0  0  0  0  0  0  0  0  0
  3  7  1  0
  7  8  2  0
  8  9  1  0
  9 10  2  0
  7 11  1  0
 10 11  1  0
  6 12  1  0
 12 13  2  0
 12 14  1  0
  8 15  1  0
 10 16  1  0
 16 17  2  0
  1  2  2  0
  2  6  1  0
  5  6  2  0
  4  5  1  0
  3  4  2  0
  1  3  1  0
M  END

$$$$
No_2146-/export/home/yangzhenyu/potential_scad_32_flow//YTHDC2/2024-12-06-03-22-00/
     RDKit          3D

 20 21  0  0  1  0  0  0  0  0999 V2000
    1.1787   -8.0297    3.5154 S   0  0  0  0  0  0  0  0  0  0  0  0
    1.1746   -6.8451    2.7621 C   0  0  0  0  0  0  0  0  0  0  0  0
    1.9774   -9.2911    2.7259 C   0  0  0  0  0  0  0  0  0  0  0  0
    1.8629  -10.6153    3.0668 C   0  0  2  0  0  0  0  0  0  0  0  0
    2.1375  -10.9920    4.2293 C   0  0  0  0  0  0  0  0  0  0  0  0
    1.7539  -11.5369    1.9950 C   0  0  2  0  0  0  0  0  0  0  0  0
    1.7282  -12.9053    2.3935 C   0  0  0  0  0  0  0  0  0  0  0  0
    2.3115  -13.7594    1.5699 C   0  0  0  0  0  0  0  0  0  0  0  0
    2.3932  -15.1547    1.9808 C   0  0  0  0  0  0  0  0  0  0  0  0
    1.7711  -15.5905    3.1463 C   0  0  0  0  0  0  0  0  0  0  0  0
    1.1255  -14.6699    3.8844 C   0  0  0  0  0  0  0  0  0  0  0  0
    1.0018  -13.2941    3.4424 C   0  0  0  0  0  0  0  0  0  0  0  0
    1.4006   -6.6866    1.4149 C   0  0  0  0  0  0  0  0  0  0  0  0
    0.9698   -5.5540    0.8759 C   0  0  0  0  0  0  0  0  0  0  0  0
    0.6915   -4.4700    1.6528 C   0  0  0  0  0  0  0  0  0  0  0  0
    0.5883   -4.5757    3.0035 C   0  0  0  0  0  0  0  0  0  0  0  0
    0.9029   -5.7799    3.5653 C   0  0  0  0  0  0  0  0  0  0  0  0
    0.3304   -3.0193    1.0228 O   0  0  0  0  0  0  0  0  0  0  0  0
    1.8231  -16.9358    3.4377 Cl  0  0  0  0  0  0  0  0  0  0  0  0
    1.7765  -11.1608    0.8072 F   0  0  0  0  0  0  0  0  0  0  0  0
  1  2  1  0
  1  3  1  0
  3  4  1  0
  4  5  1  6
  4  6  1  0
  6  7  1  0
 15 18  1  0
 10 19  1  0
  6 20  1  6
  2 13  2  0
 13 14  1  0
 14 15  2  0
 15 16  1  0
 16 17  2  0
  2 17  1  0
  7  8  2  0
  8  9  1  0
  9 10  2  0
 10 11  1  0
 11 12  2  0
  7 12  1  0
M  END

$$$$
No_2147-/export/home/yangzhenyu/potential_scad_32_flow//YTHDC2/2024-12-06-03-22-00/
     RDKit          3D

 19 20  0  0  1  0  0  0  0  0999 V2000
    1.1787   -8.0297    3.5154 C   0  0  0  0  0  0  0  0  0  0  0  0
    1.1048   -9.2215    3.2892 C   0  0  0  0  0  0  0  0  0  0  0  0
    1.2339   -9.7611    2.0189 C   0  0  0  0  0  0  0  0  0  0  0  0
    1.3583   -9.0036    0.9764 C   0  0  0  0  0  0  0  0  0  0  0  0
    1.5996   -7.6362    1.1311 C   0  0  0  0  0  0  0  0  0  0  0  0
    1.4830   -7.0928    2.3626 C   0  0  0  0  0  0  0  0  0  0  0  0
    1.5395   -5.7300    2.6182 C   0  0  0  0  0  0  0  0  0  0  0  0
    1.1775  -11.2233    1.8407 C   0  0  0  0  0  0  0  0  0  0  0  0
    0.7252  -11.5870    0.5412 C   0  0  0  0  0  0  0  0  0  0  0  0
    0.5994  -13.0100    0.4511 C   0  0  0  0  0  0  0  0  0  0  0  0
    0.9545  -13.8873    1.4441 C   0  0  2  0  0  0  0  0  0  0  0  0
    1.4784  -13.3975    2.6594 C   0  0  0  0  0  0  0  0  0  0  0  0
    1.5766  -12.0395    2.8884 C   0  0  0  0  0  0  0  0  0  0  0  0
    2.1060  -11.5923    3.9798 O   0  0  0  0  0  0  0  0  0  0  0  0
    1.3177   -4.7937    1.6537 C   0  0  0  0  0  0  0  0  0  0  0  0
    1.2860   -3.3745    1.9335 O   0  0  0  0  0  0  0  0  0  0  0  0
    0.6158   -5.0315    0.5989 O   0  0  0  0  0  0  0  0  0  0  0  0
    0.9347  -15.2409    1.2293 Cl  0  0  0  0  0  0  0  0  0  0  0  0
    1.3700   -2.9441    3.0350 C   0  0  0  0  0  0  0  0  0  0  0  0
  6  7  1  0
  3  8  1  0
  8  9  1  0
 10 11  1  0
  8 13  1  0
 12 13  1  0
 13 14  2  0
  7 15  2  3
 15 16  1  0
 15 17  1  0
 11 18  1  6
 16 19  1  0
  9 10  1  0
 11 12  1  0
  1  2  2  0
  2  3  1  0
  3  4  2  0
  4  5  1  0
  5  6  2  0
  1  6  1  0
M  END

$$$$
No_2148-/export/home/yangzhenyu/potential_scad_32_flow//YTHDC2/2024-12-06-03-22-00/
     RDKit          3D

 19 20  0  0  1  0  0  0  0  0999 V2000
    1.1787   -8.0297    3.5154 C   0  0  0  0  0  0  0  0  0  0  0  0
    1.0491   -6.8434    2.9820 C   0  0  0  0  0  0  0  0  0  0  0  0
    0.9905   -9.0774    2.6527 C   0  0  0  0  0  0  0  0  0  0  0  0
    0.7897   -8.9519    1.3691 C   0  0  0  0  0  0  0  0  0  0  0  0
    0.7018   -7.7198    0.7892 C   0  0  0  0  0  0  0  0  0  0  0  0
    0.8918   -6.5957    1.6117 C   0  0  0  0  0  0  0  0  0  0  0  0
    1.0600  -10.5680    3.3321 C   0  0  1  0  0  0  0  0  0  0  0  0
    2.1422  -11.0089    3.6867 C   0  0  0  0  0  0  0  0  0  0  0  0
    0.8608   -5.2505    1.2071 C   0  0  0  0  0  0  0  0  0  0  0  0
   -0.0271  -10.6524    4.3450 C   0  0  0  0  0  0  0  0  0  0  0  0
   -0.2248   -4.7751    0.7244 O   0  0  0  0  0  0  0  0  0  0  0  0
    1.8814   -4.5991    1.0444 N   0  0  0  0  0  0  0  0  0  0  0  0
    2.3409  -12.0067    3.9558 C   0  0  0  0  0  0  0  0  0  0  0  0
   -1.2952  -10.2437    3.9313 C   0  0  0  0  0  0  0  0  0  0  0  0
   -2.0064  -10.9032    2.9192 C   0  0  0  0  0  0  0  0  0  0  0  0
   -1.6770  -12.1357    2.6164 C   0  0  0  0  0  0  0  0  0  0  0  0
   -2.4573  -12.9676    2.1569 C   0  0  0  0  0  0  0  0  0  0  0  0
   -3.7035  -12.3106    2.0812 C   0  0  0  0  0  0  0  0  0  0  0  0
   -3.4756  -10.8614    2.5944 C   0  0  0  0  0  0  0  0  0  0  0  0
  3  7  1  0
  7  8  1  0
  6  9  1  0
  7 10  1  1
  9 11  2  0
  9 12  1  0
  8 13  2  0
 10 14  1  0
 14 15  1  0
 15 16  1  0
 16 17  2  0
 17 18  1  0
 15 19  1  0
 18 19  2  0
  1  2  2  0
  2  6  1  0
  5  6  2  0
  4  5  1  0
  3  4  2  0
  1  3  1  0
M  END

$$$$
No_2149-/export/home/yangzhenyu/potential_scad_32_flow//YTHDC2/2024-12-06-03-22-00/
     RDKit          3D

 18 19  0  0  0  0  0  0  0  0999 V2000
    1.1787   -8.0297    3.5154 C   0  0  0  0  0  0  0  0  0  0  0  0
    1.0491   -6.8434    2.9820 C   0  0  0  0  0  0  0  0  0  0  0  0
    0.0950   -8.8404    3.2292 C   0  0  0  0  0  0  0  0  0  0  0  0
   -0.9173   -8.4596    2.5152 C   0  0  0  0  0  0  0  0  0  0  0  0
   -1.0331   -7.2162    2.0653 C   0  0  0  0  0  0  0  0  0  0  0  0
   -0.0105   -6.3168    2.3081 C   0  0  0  0  0  0  0  0  0  0  0  0
    0.1935  -10.3737    3.7416 C   0  0  0  0  0  0  0  0  0  0  0  0
    0.3534  -11.4163    2.8027 C   0  0  0  0  0  0  0  0  0  0  0  0
    1.0785  -12.5234    3.2592 C   0  0  0  0  0  0  0  0  0  0  0  0
    1.1411  -13.5755    2.4452 C   0  0  0  0  0  0  0  0  0  0  0  0
    0.7284  -13.6321    1.3039 C   0  0  0  0  0  0  0  0  0  0  0  0
    0.1223  -12.5225    0.7050 C   0  0  0  0  0  0  0  0  0  0  0  0
   -0.0333  -11.3806    1.5081 C   0  0  0  0  0  0  0  0  0  0  0  0
    1.7906  -14.8709    2.9213 Cl  0  0  0  0  0  0  0  0  0  0  0  0
    0.0316   -4.9553    1.8635 O   0  0  0  0  0  0  0  0  0  0  0  0
   -0.7939   -4.5000    1.0350 C   0  0  0  0  0  0  0  0  0  0  0  0
   -0.0475  -10.4890    5.0214 O   0  0  0  0  0  0  0  0  0  0  0  0
   -0.4858   -4.4069   -0.2139 C   0  0  0  0  0  0  0  0  0  0  0  0
  3  7  1  0
  7  8  1  0
 10 14  1  0
  6 15  1  0
 15 16  1  0
  7 17  2  0
 16 18  1  0
  1  2  2  0
  2  6  1  0
  5  6  2  0
  4  5  1  0
  3  4  2  0
  1  3  1  0
  8  9  2  0
  9 10  1  0
 10 11  2  0
 11 12  1  0
 12 13  2  0
  8 13  1  0
M  END

$$$$
No_2150-/export/home/yangzhenyu/potential_scad_32_flow//YTHDC2/2024-12-06-03-22-00/
     RDKit          3D

 17 18  0  0  1  0  0  0  0  0999 V2000
    1.1787   -8.0297    3.5154 C   0  0  0  0  0  0  0  0  0  0  0  0
    1.0491   -6.8434    2.9820 C   0  0  0  0  0  0  0  0  0  0  0  0
    1.9985   -8.9840    2.8958 C   0  0  1  0  0  0  0  0  0  0  0  0
    1.9135  -10.3404    3.6266 C   0  0  0  0  0  0  0  0  0  0  0  0
    0.7479  -10.9191    3.7202 C   0  0  0  0  0  0  0  0  0  0  0  0
    1.3327   -6.5751    1.7543 C   0  0  1  0  0  0  0  0  0  0  0  0
    0.6763  -12.2837    3.6804 C   0  0  0  0  0  0  0  0  0  0  0  0
    1.8074   -7.6478    0.9470 C   0  0  0  0  0  0  0  0  0  0  0  0
    2.0941   -8.8249    1.4155 C   0  0  0  0  0  0  0  0  0  0  0  0
   -0.2016  -12.8475    2.7913 C   0  0  0  0  0  0  0  0  0  0  0  0
   -1.2880  -12.1481    2.4166 C   0  0  0  0  0  0  0  0  0  0  0  0
   -1.3648  -10.8182    2.6949 C   0  0  0  0  0  0  0  0  0  0  0  0
   -0.3350  -10.1469    3.3458 C   0  0  0  0  0  0  0  0  0  0  0  0
    2.6587   -9.7841    0.7819 O   0  0  0  0  0  0  0  0  0  0  0  0
    1.0668   -5.3667    1.0361 I   0  0  0  0  0  0  0  0  0  0  0  0
   -0.0406  -14.2425    2.5587 Cl  0  0  0  0  0  0  0  0  0  0  0  0
   -2.4706  -10.0422    2.1046 O   0  0  0  0  0  0  0  0  0  0  0  0
  1  2  1  0
  1  3  1  0
  3  4  1  6
  4  5  1  0
  6  8  1  0
  3  9  1  0
  8  9  1  0
  9 14  2  0
  6 15  1  6
 10 16  1  0
 12 17  1  0
  2  6  1  0
  5  7  2  0
  7 10  1  0
 10 11  2  0
 11 12  1  0
 12 13  2  0
  5 13  1  0
M  END

$$$$
No_2151-/export/home/yangzhenyu/potential_scad_32_flow//YTHDC2/2024-12-06-03-22-00/
     RDKit          3D

 19 20  0  0  1  0  0  0  0  0999 V2000
    1.1787   -8.0297    3.5154 C   0  0  0  0  0  0  0  0  0  0  0  0
    1.1048   -9.2215    3.2892 C   0  0  0  0  0  0  0  0  0  0  0  0
    1.0239   -9.7790    2.0239 C   0  0  0  0  0  0  0  0  0  0  0  0
    1.1393   -9.0211    0.9686 C   0  0  0  0  0  0  0  0  0  0  0  0
    1.4051   -7.6500    1.1251 C   0  0  0  0  0  0  0  0  0  0  0  0
    1.4868   -7.1041    2.3534 C   0  0  0  0  0  0  0  0  0  0  0  0
    1.5562   -5.7208    2.5782 C   0  0  0  0  0  0  0  0  0  0  0  0
    0.8750  -11.2135    1.9117 C   0  0  1  0  0  0  0  0  0  0  0  0
    1.8912  -12.0349    2.0516 N   0  0  0  0  0  0  0  0  0  0  0  0
    1.7409  -13.3208    1.7640 C   0  0  0  0  0  0  0  0  0  0  0  0
    0.5337  -13.8052    2.2940 C   0  0  1  0  0  0  0  0  0  0  0  0
   -0.5520  -13.0618    2.3173 C   0  0  2  0  0  0  0  0  0  0  0  0
   -0.3370  -11.6284    2.2994 C   0  0  0  0  0  0  0  0  0  0  0  0
   -1.7434  -13.5312    2.6505 C   0  0  0  0  0  0  0  0  0  0  0  0
    0.4156  -15.2529    2.2631 C   0  0  0  0  0  0  0  0  0  0  0  0
    1.3732  -16.0750    2.9467 C   0  0  0  0  0  0  0  0  0  0  0  0
    1.2352  -17.3729    3.2744 C   0  0  0  0  0  0  0  0  0  0  0  0
    0.0599  -17.9451    3.0405 C   0  0  0  0  0  0  0  0  0  0  0  0
   -1.0027  -17.2448    2.6249 C   0  0  0  0  0  0  0  0  0  0  0  0
  6  7  1  0
  8  3  1  1
  8  9  1  0
  9 10  1  0
 10 11  1  0
 11 12  1  0
  8 13  1  0
 12 13  1  0
 12 14  1  1
 11 15  1  6
 15 16  1  0
 16 17  2  3
 17 18  1  0
 18 19  2  0
  1  2  2  0
  2  3  1  0
  3  4  2  0
  4  5  1  0
  5  6  2  0
  1  6  1  0
M  END

$$$$
No_2152-/export/home/yangzhenyu/potential_scad_32_flow//YTHDC2/2024-12-06-03-22-00/
     RDKit          3D

 17 18  0  0  1  0  0  0  0  0999 V2000
    1.1787   -8.0297    3.5154 C   0  0  0  0  0  0  0  0  0  0  0  0
    1.1048   -9.2215    3.2892 N   0  0  0  0  0  0  0  0  0  0  0  0
    1.5378  -10.1363    4.2323 C   0  0  0  0  0  0  0  0  0  0  0  0
    0.8191   -7.0289    2.5357 C   0  0  0  0  0  0  0  0  0  0  0  0
    0.7436   -7.4773    1.2529 C   0  0  0  0  0  0  0  0  0  0  0  0
    0.5643   -8.7591    0.9960 C   0  0  2  0  0  0  0  0  0  0  0  0
    1.0907   -9.7456    1.8410 C   0  0  2  0  0  0  0  0  0  0  0  0
    1.2520  -11.5935    3.9764 C   0  0  0  0  0  0  0  0  0  0  0  0
    0.9116  -11.9613    2.7327 C   0  0  1  0  0  0  0  0  0  0  0  0
    0.7947  -11.0440    1.7183 C   0  0  0  0  0  0  0  0  0  0  0  0
    0.2784   -9.0935   -0.2812 C   0  0  0  0  0  0  0  0  0  0  0  0
   -0.5486   -8.5190   -1.0388 C   0  0  0  0  0  0  0  0  0  0  0  0
   -0.9440   -8.7870   -2.3402 N   0  0  0  0  0  0  0  0  0  0  0  0
    1.0109  -13.3505    2.4908 C   0  0  0  0  0  0  0  0  0  0  0  0
    0.3601  -13.9731    1.4108 C   0  0  0  0  0  0  0  0  0  0  0  0
    1.6319  -14.2461    3.4264 C   0  0  0  0  0  0  0  0  0  0  0  0
    1.5077  -15.5999    3.2413 C   0  0  0  0  0  0  0  0  0  0  0  0
  1  2  1  0
  2  3  1  0
  1  4  1  0
  4  5  1  0
  6  5  1  6
  2  7  1  0
  6  7  1  0
  8  9  1  0
  7 10  1  1
  9 10  1  0
  6 11  1  0
 11 12  2  3
 12 13  1  0
  9 14  1  6
 14 15  2  0
 14 16  1  0
 16 17  2  0
  3  8  1  0
M  END

$$$$
No_2153-/export/home/yangzhenyu/potential_scad_32_flow//YTHDC2/2024-12-06-03-22-00/
     RDKit          3D

 16 17  0  0  1  0  0  0  0  0999 V2000
    1.1787   -8.0297    3.5154 C   0  0  0  0  0  0  0  0  0  0  0  0
    1.0491   -6.8434    2.9820 C   0  0  0  0  0  0  0  0  0  0  0  0
    1.9985   -8.9840    2.8958 C   0  0  2  0  0  0  0  0  0  0  0  0
    1.7297   -9.2108    1.6335 C   0  0  0  0  0  0  0  0  0  0  0  0
    1.7343   -8.0566    0.8408 C   0  0  0  0  0  0  0  0  0  0  0  0
    1.0269   -6.8892    1.4456 C   0  0  0  0  0  0  0  0  0  0  0  0
    2.0740   -7.9416   -0.3682 O   0  0  0  0  0  0  0  0  0  0  0  0
    1.9646  -10.3580    3.5767 C   0  0  0  0  0  0  0  0  0  0  0  0
    1.1665  -11.3332    3.3170 C   0  0  0  0  0  0  0  0  0  0  0  0
   -0.2055  -11.0370    3.3922 C   0  0  0  0  0  0  0  0  0  0  0  0
   -1.1004  -12.0094    3.1898 C   0  0  0  0  0  0  0  0  0  0  0  0
   -0.6783  -13.2702    2.7451 C   0  0  0  0  0  0  0  0  0  0  0  0
    0.6300  -13.5799    2.6189 C   0  0  0  0  0  0  0  0  0  0  0  0
    0.9890  -14.9132    2.1242 C   0  0  0  0  0  0  0  0  0  0  0  0
    1.6216  -12.6115    2.8917 C   0  0  0  0  0  0  0  0  0  0  0  0
    2.2415  -15.1404    1.9030 O   0  0  0  0  0  0  0  0  0  0  0  0
  1  2  1  0
  1  3  1  0
  3  4  1  0
  4  5  1  0
  2  6  1  0
  5  6  1  0
  5  7  2  0
  3  8  1  1
  8  9  1  0
 13 14  1  0
 14 16  2  0
  9 10  2  0
 10 11  1  0
 11 12  2  0
 12 13  1  0
 13 15  2  0
  9 15  1  0
M  END

$$$$
No_2154-/export/home/yangzhenyu/potential_scad_32_flow//YTHDC2/2024-12-06-03-22-00/
     RDKit          3D

 19 21  0  0  0  0  0  0  0  0999 V2000
    1.1787   -8.0297    3.5154 C   0  0  0  0  0  0  0  0  0  0  0  0
    1.1048   -9.2215    3.2892 C   0  0  0  0  0  0  0  0  0  0  0  0
    1.3627  -10.1721    4.3044 C   0  0  0  0  0  0  0  0  0  0  0  0
    1.0682  -11.5187    4.0618 C   0  0  0  0  0  0  0  0  0  0  0  0
    0.6332  -11.9655    2.9682 C   0  0  0  0  0  0  0  0  0  0  0  0
    0.4776  -11.1308    1.9203 C   0  0  0  0  0  0  0  0  0  0  0  0
    0.7470   -9.8274    2.0368 C   0  0  0  0  0  0  0  0  0  0  0  0
    1.0387   -7.0301    2.5175 C   0  0  0  0  0  0  0  0  0  0  0  0
    0.9130   -7.5288    1.2013 C   0  0  0  0  0  0  0  0  0  0  0  0
    0.7893   -8.7979    0.9542 C   0  0  0  0  0  0  0  0  0  0  0  0
    0.5241   -9.2578   -0.2817 C   0  0  0  0  0  0  0  0  0  0  0  0
   -0.1121   -8.6523   -1.0898 N   0  0  0  0  0  0  0  0  0  0  0  0
    0.4971  -13.3750    2.6833 C   0  0  0  0  0  0  0  0  0  0  0  0
    0.9358  -14.0643    1.7007 C   0  0  0  0  0  0  0  0  0  0  0  0
    0.3375  -14.6448    0.9104 C   0  0  0  0  0  0  0  0  0  0  0  0
   -0.9792  -14.9673    0.9937 C   0  0  0  0  0  0  0  0  0  0  0  0
   -1.4710  -14.4765    2.3163 C   0  0  0  0  0  0  0  0  0  0  0  0
   -0.7396  -13.7655    3.0937 C   0  0  0  0  0  0  0  0  0  0  0  0
   -0.8104   -7.6442   -1.0856 C   0  0  0  0  0  0  0  0  0  0  0  0
 10 11  1  0
 11 12  1  0
  5 13  1  0
 12 19  1  0
  2  3  1  0
  3  4  2  0
  4  5  1  0
  5  6  2  0
  6  7  1  0
 13 14  2  0
 14 15  1  0
 15 16  2  0
 16 17  1  0
 17 18  2  0
 13 18  1  0
  1  2  2  0
  2  7  1  0
  7 10  2  0
  9 10  1  0
  8  9  2  0
  1  8  1  0
M  END

$$$$
No_2155-/export/home/yangzhenyu/potential_scad_32_flow//YTHDC2/2024-12-06-03-22-00/
     RDKit          3D

 13 13  0  0  1  0  0  0  0  0999 V2000
    1.1787   -8.0297    3.5154 C   0  0  0  0  0  0  0  0  0  0  0  0
    1.1048   -9.2215    3.2892 C   0  0  1  0  0  0  0  0  0  0  0  0
    1.2339   -9.7611    2.0189 C   0  0  1  0  0  0  0  0  0  0  0  0
    1.3583   -9.0036    0.9764 C   0  0  2  0  0  0  0  0  0  0  0  0
    1.7077   -9.6100   -0.3010 C   0  0  0  0  0  0  0  0  0  0  0  0
    1.3637   -7.1087    2.3226 C   0  0  1  0  0  0  0  0  0  0  0  0
    1.4257   -7.6645    1.0231 C   0  0  0  0  0  0  0  0  0  0  0  0
    1.6722  -10.7840   -0.4044 O   0  0  0  0  0  0  0  0  0  0  0  0
    1.2336   -8.9275   -1.4153 O   0  0  0  0  0  0  0  0  0  0  0  0
    1.1535  -10.3170    4.5776 Br  0  0  0  0  0  0  0  0  0  0  0  0
    1.3191   -5.5934    2.5494 Br  0  0  0  0  0  0  0  0  0  0  0  0
    1.3303  -11.1719    1.9416 F   0  0  0  0  0  0  0  0  0  0  0  0
    1.8585   -6.9403    0.1003 O   0  0  0  0  0  0  0  0  0  0  0  0
  1  2  1  0
  3  4  1  0
  4  5  1  1
  4  7  1  0
  6  7  1  0
  5  8  2  0
  5  9  1  0
  2 10  1  1
  6 11  1  6
  3 12  1  1
  7 13  2  0
  2  3  1  0
  1  6  1  0
M  END

$$$$
No_2156-/export/home/yangzhenyu/potential_scad_32_flow//YTHDC2/2024-12-06-03-22-00/
     RDKit          3D

 17 17  0  0  1  0  0  0  0  0999 V2000
    1.1787   -8.0297    3.5154 O   0  0  0  0  0  0  0  0  0  0  0  0
    0.6747   -7.4019    2.7838 C   0  0  2  0  0  0  0  0  0  0  0  0
    0.7594   -8.0032    1.4295 C   0  0  0  0  0  0  0  0  0  0  0  0
    1.4742   -7.4398    0.6034 O   0  0  0  0  0  0  0  0  0  0  0  0
    0.0856   -9.0611    1.2322 C   0  0  0  0  0  0  0  0  0  0  0  0
   -0.7874   -9.4230    1.7357 C   0  0  0  0  0  0  0  0  0  0  0  0
   -1.4178  -10.7348    1.7012 C   0  0  0  0  0  0  0  0  0  0  0  0
   -1.5545  -11.4014    2.6234 C   0  0  0  0  0  0  0  0  0  0  0  0
   -1.1915  -10.8781    3.9539 C   0  0  0  0  0  0  0  0  0  0  0  0
   -1.9255  -12.7552    2.7420 C   0  0  0  0  0  0  0  0  0  0  0  0
   -1.7544  -13.4534    1.7123 C   0  0  0  0  0  0  0  0  0  0  0  0
   -1.5319  -12.8597    0.4749 C   0  0  0  0  0  0  0  0  0  0  0  0
   -1.2783  -11.5002    0.4524 C   0  0  0  0  0  0  0  0  0  0  0  0
    1.1089   -5.9995    2.9062 C   0  0  0  0  0  0  0  0  0  0  0  0
   -2.0502  -10.0050    4.6928 C   0  0  0  0  0  0  0  0  0  0  0  0
   -2.4512   -9.0204    4.5200 C   0  0  0  0  0  0  0  0  0  0  0  0
   -3.6826   -8.6098    4.2327 C   0  0  0  0  0  0  0  0  0  0  0  0
  1  2  1  0
  2  3  1  0
  3  4  1  0
  3  5  1  0
  5  6  2  3
  6  7  1  0
  8  9  1  0
  2 14  1  6
  9 15  2  3
 15 16  1  0
 16 17  2  0
  7  8  2  0
  8 10  1  0
 10 11  2  0
 11 12  1  0
 12 13  2  0
  7 13  1  0
M  END

$$$$
No_2157-/export/home/yangzhenyu/potential_scad_32_flow//YTHDC2/2024-12-06-03-22-00/
     RDKit          3D

 19 19  0  0  1  0  0  0  0  0999 V2000
    1.1787   -8.0297    3.5154 Cl  0  0  0  0  0  0  0  0  0  0  0  0
    0.6986   -7.2038    2.6409 C   0  0  2  0  0  0  0  0  0  0  0  0
    0.9133   -7.4941    1.2402 C   0  0  0  0  0  0  0  0  0  0  0  0
    1.7099   -8.5931    1.0421 C   0  0  1  0  0  0  0  0  0  0  0  0
    1.5520   -9.7042    1.3305 C   0  0  0  0  0  0  0  0  0  0  0  0
    0.7061  -10.6448    0.6610 C   0  0  0  0  0  0  0  0  0  0  0  0
    0.7646  -12.0253    0.9134 C   0  0  0  0  0  0  0  0  0  0  0  0
    1.7304  -12.5456    1.8107 C   0  0  0  0  0  0  0  0  0  0  0  0
    2.6096  -11.6885    2.4357 C   0  0  0  0  0  0  0  0  0  0  0  0
    2.5340  -10.3601    2.2491 C   0  0  0  0  0  0  0  0  0  0  0  0
    2.6322   -8.3065   -0.0986 Cl  0  0  0  0  0  0  0  0  0  0  0  0
    1.8495  -14.1383    1.9995 C   0  0  0  0  0  0  0  0  0  0  0  0
    2.7711  -14.7624    1.6508 N   0  0  0  0  0  0  0  0  0  0  0  0
    0.8626  -14.5959    2.6882 O   0  0  0  0  0  0  0  0  0  0  0  0
    0.4059   -5.8623    2.9648 C   0  0  0  0  0  0  0  0  0  0  0  0
    1.3518   -4.8311    3.2373 C   0  0  0  0  0  0  0  0  0  0  0  0
    1.1039   -3.6546    3.1148 O   0  0  0  0  0  0  0  0  0  0  0  0
    2.8606  -16.0983    1.9445 C   0  0  0  0  0  0  0  0  0  0  0  0
    0.3202   -6.8007    0.3730 O   0  0  0  0  0  0  0  0  0  0  0  0
  2  1  1  1
  2  3  1  0
  3  4  1  0
  4  5  1  0
  4 11  1  6
  8 12  1  0
 12 13  1  0
 12 14  2  0
  2 15  1  0
 15 16  1  0
 16 17  1  0
 13 18  1  0
  3 19  2  0
  5  6  2  0
  6  7  1  0
  7  8  2  0
  8  9  1  0
  9 10  2  0
  5 10  1  0
M  END

$$$$
No_2158-/export/home/yangzhenyu/potential_scad_32_flow//YTHDC2/2024-12-06-03-22-00/
     RDKit          3D

 19 20  0  0  0  0  0  0  0  0999 V2000
    1.1787   -8.0297    3.5154 C   0  0  0  0  0  0  0  0  0  0  0  0
    1.0491   -6.8434    2.9820 C   0  0  0  0  0  0  0  0  0  0  0  0
    0.0950   -8.8404    3.2292 C   0  0  0  0  0  0  0  0  0  0  0  0
    0.0602  -10.1764    3.8231 C   0  0  0  0  0  0  0  0  0  0  0  0
    0.2248   -6.3830    2.0648 C   0  0  0  0  0  0  0  0  0  0  0  0
   -0.6745   -7.2322    1.6857 C   0  0  0  0  0  0  0  0  0  0  0  0
   -0.7374   -8.4992    2.1291 C   0  0  0  0  0  0  0  0  0  0  0  0
   -0.0634  -11.3436    3.0594 C   0  0  0  0  0  0  0  0  0  0  0  0
   -0.8855  -11.7880    2.3923 C   0  0  0  0  0  0  0  0  0  0  0  0
   -0.7096  -12.7962    1.4675 C   0  0  0  0  0  0  0  0  0  0  0  0
    0.7650  -13.2717    1.6245 C   0  0  0  0  0  0  0  0  0  0  0  0
    1.5980  -12.7508    2.3408 C   0  0  0  0  0  0  0  0  0  0  0  0
    1.3687  -11.8080    3.1822 C   0  0  0  0  0  0  0  0  0  0  0  0
    2.2050  -11.3277    4.1978 N   0  0  0  0  0  0  0  0  0  0  0  0
    0.4057   -5.0979    1.4328 Br  0  0  0  0  0  0  0  0  0  0  0  0
    0.2891  -10.1289    5.1136 O   0  0  0  0  0  0  0  0  0  0  0  0
    1.0367  -14.3890    0.6954 C   0  0  0  0  0  0  0  0  0  0  0  0
    0.3097  -14.4828   -0.4356 N   0  0  0  0  0  0  0  0  0  0  0  0
    1.9959  -15.1329    0.8024 O   0  0  0  0  0  0  0  0  0  0  0  0
  3  4  1  0
  4  8  1  0
  5 15  1  0
  4 16  2  0
 11 17  1  0
 17 18  1  0
 17 19  2  0
 13 14  1  0
  8  9  2  0
  9 10  1  0
 10 11  2  0
 11 12  1  0
 12 13  2  0
  8 13  1  0
  1  2  2  0
  2  5  1  0
  5  6  2  0
  6  7  1  0
  3  7  2  0
  1  3  1  0
M  END

$$$$
No_2159-/export/home/yangzhenyu/potential_scad_32_flow//YTHDC2/2024-12-06-03-22-00/
     RDKit          3D

 17 18  0  0  0  0  0  0  0  0999 V2000
    1.1787   -8.0297    3.5154 N   0  0  0  0  0  0  0  0  0  0  0  0
    1.0818   -9.0751    3.2053 C   0  0  0  0  0  0  0  0  0  0  0  0
    0.7576   -9.3725    1.9159 C   0  0  0  0  0  0  0  0  0  0  0  0
    0.7445  -10.8746    1.6491 C   0  0  0  0  0  0  0  0  0  0  0  0
    0.9910  -11.7526    2.6067 C   0  0  0  0  0  0  0  0  0  0  0  0
    1.4405  -11.4331    3.8064 C   0  0  0  0  0  0  0  0  0  0  0  0
    1.4304  -10.0463    4.1669 C   0  0  0  0  0  0  0  0  0  0  0  0
    1.1357   -6.7948    2.7839 C   0  0  0  0  0  0  0  0  0  0  0  0
    1.2086   -5.5150    3.2459 N   0  0  0  0  0  0  0  0  0  0  0  0
    1.2535   -6.8493    1.2556 N   0  0  0  0  0  0  0  0  0  0  0  0
    0.9581  -13.3853    2.2618 C   0  0  0  0  0  0  0  0  0  0  0  0
   -0.2695  -13.7880    2.3604 C   0  0  0  0  0  0  0  0  0  0  0  0
   -1.3637  -13.2024    2.2408 C   0  0  0  0  0  0  0  0  0  0  0  0
   -2.5416  -13.9369    2.4491 C   0  0  0  0  0  0  0  0  0  0  0  0
   -2.5500  -15.2706    2.5901 C   0  0  0  0  0  0  0  0  0  0  0  0
   -1.3288  -15.9282    2.7020 C   0  0  0  0  0  0  0  0  0  0  0  0
   -0.1376  -15.2476    2.5534 C   0  0  0  0  0  0  0  0  0  0  0  0
  1  2  1  0
  1  8  2  3
  8  9  1  0
  8 10  1  0
  5 11  1  0
 11 12  1  0
 12 13  2  0
 13 14  1  0
 14 15  2  0
 15 16  1  0
 16 17  2  0
 12 17  1  0
  2  3  2  0
  3  4  1  0
  4  5  2  0
  5  6  1  0
  6  7  2  0
  2  7  1  0
M  END

$$$$
No_2160-/export/home/yangzhenyu/potential_scad_32_flow//YTHDC2/2024-12-06-03-22-00/
     RDKit          3D

 13 13  0  0  1  0  0  0  0  0999 V2000
    1.1787   -8.0297    3.5154 O   0  0  0  0  0  0  0  0  0  0  0  0
    0.6747   -7.4019    2.7838 C   0  0  0  0  0  0  0  0  0  0  0  0
    0.5570   -6.0797    2.8560 C   0  0  0  0  0  0  0  0  0  0  0  0
    1.1189   -5.2588    2.0517 C   0  0  0  0  0  0  0  0  0  0  0  0
    1.5632   -5.9381    0.9725 C   0  0  0  0  0  0  0  0  0  0  0  0
    1.7798   -7.2538    0.7416 C   0  0  0  0  0  0  0  0  0  0  0  0
    1.4082   -8.0900    1.7486 C   0  0  0  0  0  0  0  0  0  0  0  0
    1.6186   -9.3466    1.6860 C   0  0  2  0  0  0  0  0  0  0  0  0
    1.8723  -10.1345    2.6740 O   0  0  0  0  0  0  0  0  0  0  0  0
    1.7583  -10.0118    0.4648 C   0  0  0  0  0  0  0  0  0  0  0  0
    2.3374   -9.5300   -0.4827 O   0  0  0  0  0  0  0  0  0  0  0  0
    1.2001  -11.2042    0.2848 O   0  0  0  0  0  0  0  0  0  0  0  0
    0.7869   -3.8489    1.8884 Cl  0  0  0  0  0  0  0  0  0  0  0  0
  1  2  1  0
  7  8  1  0
  8  9  1  1
  8 10  1  0
 10 11  2  0
 10 12  1  0
  4 13  1  0
  2  3  2  0
  3  4  1  0
  4  5  2  0
  5  6  1  0
  6  7  2  0
  2  7  1  0
M  END

$$$$
No_2161-/export/home/yangzhenyu/potential_scad_32_flow//YTHDC2/2024-12-06-03-22-00/
     RDKit          3D

 19 20  0  0  0  0  0  0  0  0999 V2000
    1.1787   -8.0297    3.5154 C   0  0  0  0  0  0  0  0  0  0  0  0
    1.0491   -6.8434    2.9820 C   0  0  0  0  0  0  0  0  0  0  0  0
    0.9905   -9.0774    2.6527 C   0  0  0  0  0  0  0  0  0  0  0  0
    1.1655  -10.4663    3.1286 C   0  0  0  0  0  0  0  0  0  0  0  0
    1.2197  -11.4898    2.5831 C   0  0  0  0  0  0  0  0  0  0  0  0
    1.5411  -12.7330    3.1052 C   0  0  0  0  0  0  0  0  0  0  0  0
    0.6212   -6.5301    1.7066 C   0  0  0  0  0  0  0  0  0  0  0  0
    0.4208   -7.5365    0.9144 C   0  0  0  0  0  0  0  0  0  0  0  0
    0.5253   -8.8638    1.3136 C   0  0  0  0  0  0  0  0  0  0  0  0
    1.2829  -13.9924    2.3719 C   0  0  0  0  0  0  0  0  0  0  0  0
    1.8689  -15.2123    3.0057 C   0  0  0  0  0  0  0  0  0  0  0  0
    1.5654  -16.4401    2.2692 C   0  0  0  0  0  0  0  0  0  0  0  0
    1.0489  -16.2409    1.0566 C   0  0  0  0  0  0  0  0  0  0  0  0
    0.6779  -17.1709    0.4207 C   0  0  0  0  0  0  0  0  0  0  0  0
    0.8888  -18.4839    0.7219 C   0  0  0  0  0  0  0  0  0  0  0  0
    1.5884  -18.7786    1.9042 C   0  0  0  0  0  0  0  0  0  0  0  0
    1.9377  -17.6581    2.7853 C   0  0  0  0  0  0  0  0  0  0  0  0
    0.5299   -5.2129    1.1912 O   0  0  0  0  0  0  0  0  0  0  0  0
    0.0483   -7.4147   -0.3483 C   0  0  0  0  0  0  0  0  0  0  0  0
  3  4  1  0
  4  5  2  3
  5  6  1  0
  6 10  1  0
 10 11  1  0
 11 12  1  0
  7 18  1  0
  8 19  1  0
 12 13  2  0
 13 14  1  0
 14 15  2  0
 15 16  1  0
 16 17  2  0
 12 17  1  0
  1  2  2  0
  2  7  1  0
  7  8  2  0
  8  9  1  0
  3  9  2  0
  1  3  1  0
M  END

$$$$
No_2162-/export/home/yangzhenyu/potential_scad_32_flow//YTHDC2/2024-12-06-03-22-00/
     RDKit          3D

 18 19  0  0  0  0  0  0  0  0999 V2000
    1.1787   -8.0297    3.5154 C   0  0  0  0  0  0  0  0  0  0  0  0
    1.1048   -9.2215    3.2892 C   0  0  0  0  0  0  0  0  0  0  0  0
    1.3627  -10.1721    4.3044 C   0  0  0  0  0  0  0  0  0  0  0  0
    1.0682  -11.5187    4.0618 C   0  0  0  0  0  0  0  0  0  0  0  0
    0.6332  -11.9655    2.9682 C   0  0  0  0  0  0  0  0  0  0  0  0
    0.4776  -11.1308    1.9203 C   0  0  0  0  0  0  0  0  0  0  0  0
    0.7470   -9.8274    2.0368 C   0  0  0  0  0  0  0  0  0  0  0  0
    1.0387   -7.0301    2.5175 C   0  0  0  0  0  0  0  0  0  0  0  0
    0.9130   -7.5288    1.2013 C   0  0  0  0  0  0  0  0  0  0  0  0
    0.7893   -8.7979    0.9542 C   0  0  0  0  0  0  0  0  0  0  0  0
    0.5241   -9.2578   -0.2817 Cl  0  0  0  0  0  0  0  0  0  0  0  0
    0.4517  -13.3783    2.7136 N   0  0  0  0  0  0  0  0  0  0  0  0
    0.9902  -14.1395    1.8237 C   0  0  0  0  0  0  0  0  0  0  0  0
    0.7570  -15.3867    1.7073 C   0  0  0  0  0  0  0  0  0  0  0  0
    0.9649  -16.1129    2.5865 C   0  0  0  0  0  0  0  0  0  0  0  0
    0.7567  -17.5218    2.8397 C   0  0  0  0  0  0  0  0  0  0  0  0
    0.3258  -18.1748    1.7602 C   0  0  0  0  0  0  0  0  0  0  0  0
    0.0240  -17.5031    0.6132 C   0  0  0  0  0  0  0  0  0  0  0  0
 10 11  1  0
  5 12  1  0
 12 13  1  0
 13 14  1  0
 14 15  1  0
 15 16  2  3
 16 17  1  0
 17 18  2  0
  2  3  1  0
  3  4  2  0
  4  5  1  0
  5  6  2  0
  6  7  1  0
  1  2  2  0
  2  7  1  0
  7 10  2  0
  9 10  1  0
  8  9  2  0
  1  8  1  0
M  END

$$$$
No_2163-/export/home/yangzhenyu/potential_scad_32_flow//YTHDC2/2024-12-06-03-22-00/
     RDKit          3D

 17 18  0  0  0  0  0  0  0  0999 V2000
    1.1787   -8.0297    3.5154 C   0  0  0  0  0  0  0  0  0  0  0  0
    1.1048   -9.2215    3.2892 C   0  0  0  0  0  0  0  0  0  0  0  0
    1.0239   -9.7790    2.0239 C   0  0  0  0  0  0  0  0  0  0  0  0
    1.1393   -9.0211    0.9686 C   0  0  0  0  0  0  0  0  0  0  0  0
    1.4051   -7.6500    1.1251 C   0  0  0  0  0  0  0  0  0  0  0  0
    1.4868   -7.1041    2.3534 C   0  0  0  0  0  0  0  0  0  0  0  0
    0.9740  -10.2562    4.5561 Cl  0  0  0  0  0  0  0  0  0  0  0  0
    0.8184  -11.1692    1.8628 C   0  0  0  0  0  0  0  0  0  0  0  0
    1.9164  -12.0520    1.8544 C   0  0  0  0  0  0  0  0  0  0  0  0
    1.7436  -13.3383    1.7847 C   0  0  0  0  0  0  0  0  0  0  0  0
    0.6016  -13.9198    1.5092 C   0  0  0  0  0  0  0  0  0  0  0  0
   -0.5250  -13.1841    1.4255 C   0  0  0  0  0  0  0  0  0  0  0  0
   -0.3874  -11.7869    1.5634 C   0  0  0  0  0  0  0  0  0  0  0  0
   -1.5431  -10.9689    1.5330 C   0  0  0  0  0  0  0  0  0  0  0  0
   -2.6214  -11.3122    1.0484 C   0  0  0  0  0  0  0  0  0  0  0  0
   -3.8611  -10.5760    1.0693 C   0  0  0  0  0  0  0  0  0  0  0  0
   -3.8357   -9.3781    1.8746 C   0  0  0  0  0  0  0  0  0  0  0  0
  2  7  1  0
  3  8  1  0
 13 14  1  0
 14 15  2  3
 15 16  1  0
 16 17  2  0
  1  2  2  0
  2  3  1  0
  3  4  2  0
  4  5  1  0
  5  6  2  0
  1  6  1  0
  8  9  2  0
  9 10  1  0
 10 11  2  0
 11 12  1  0
 12 13  2  0
  8 13  1  0
M  END

$$$$
No_2164-/export/home/yangzhenyu/potential_scad_32_flow//YTHDC2/2024-12-06-03-22-00/
     RDKit          3D

 17 17  0  0  0  0  0  0  0  0999 V2000
    1.1787   -8.0297    3.5154 C   0  0  0  0  0  0  0  0  0  0  0  0
    1.1048   -9.2215    3.2892 C   0  0  0  0  0  0  0  0  0  0  0  0
    1.2339   -9.7611    2.0189 C   0  0  0  0  0  0  0  0  0  0  0  0
    1.3583   -9.0036    0.9764 C   0  0  0  0  0  0  0  0  0  0  0  0
    1.5996   -7.6362    1.1311 C   0  0  0  0  0  0  0  0  0  0  0  0
    1.4830   -7.0928    2.3626 C   0  0  0  0  0  0  0  0  0  0  0  0
    1.1008  -11.2372    1.8542 C   0  0  0  0  0  0  0  0  0  0  0  0
    0.5178  -11.9759    2.3445 C   0  0  0  0  0  0  0  0  0  0  0  0
    0.4575  -13.3705    2.1281 C   0  0  0  0  0  0  0  0  0  0  0  0
    1.1632  -14.1013    2.0451 C   0  0  0  0  0  0  0  0  0  0  0  0
    2.4646  -13.5566    1.4445 C   0  0  0  0  0  0  0  0  0  0  0  0
    1.0647  -15.5680    1.9364 C   0  0  0  0  0  0  0  0  0  0  0  0
    0.1453  -16.1121    1.4982 C   0  0  0  0  0  0  0  0  0  0  0  0
    0.0864  -17.6017    1.7164 C   0  0  0  0  0  0  0  0  0  0  0  0
    1.5678   -5.4732    2.6745 Cl  0  0  0  0  0  0  0  0  0  0  0  0
    1.1814  -18.4228    1.2083 C   0  0  0  0  0  0  0  0  0  0  0  0
    1.8271  -19.3154    2.1550 C   0  0  0  0  0  0  0  0  0  0  0  0
  3  7  1  0
  7  8  2  3
  8  9  1  0
  9 10  2  3
 10 11  1  0
 10 12  1  0
 12 13  2  3
 13 14  1  0
  6 15  1  0
 14 16  1  0
 16 17  1  0
  1  2  2  0
  2  3  1  0
  3  4  2  0
  4  5  1  0
  5  6  2  0
  1  6  1  0
M  END

$$$$
No_2165-/export/home/yangzhenyu/potential_scad_32_flow//YTHDC2/2024-12-06-03-22-00/
     RDKit          3D

 17 18  0  0  1  0  0  0  0  0999 V2000
    1.1787   -8.0297    3.5154 C   0  0  0  0  0  0  0  0  0  0  0  0
    1.0491   -6.8434    2.9820 C   0  0  0  0  0  0  0  0  0  0  0  0
    0.9905   -9.0774    2.6527 C   0  0  0  0  0  0  0  0  0  0  0  0
    0.7897   -8.9519    1.3691 C   0  0  0  0  0  0  0  0  0  0  0  0
    0.7018   -7.7198    0.7892 C   0  0  0  0  0  0  0  0  0  0  0  0
    0.8918   -6.5957    1.6117 C   0  0  0  0  0  0  0  0  0  0  0  0
    1.0998  -10.4710    3.2437 C   0  0  2  0  0  0  0  0  0  0  0  0
    2.1917  -10.8879    3.7399 C   0  0  0  0  0  0  0  0  0  0  0  0
    0.8624   -5.2493    1.2482 C   0  0  0  0  0  0  0  0  0  0  0  0
    0.4931  -11.5180    2.4119 C   0  0  0  0  0  0  0  0  0  0  0  0
    1.1937  -12.4551    1.9649 C   0  0  0  0  0  0  0  0  0  0  0  0
    1.1448  -13.6909    2.3721 C   0  0  0  0  0  0  0  0  0  0  0  0
    0.1057  -13.9674    3.4498 C   0  0  0  0  0  0  0  0  0  0  0  0
    0.0132  -15.4951    3.7102 C   0  0  0  0  0  0  0  0  0  0  0  0
    0.7447  -16.3928    3.1876 C   0  0  0  0  0  0  0  0  0  0  0  0
    1.8634  -16.0561    2.3152 C   0  0  0  0  0  0  0  0  0  0  0  0
    2.0249  -14.7172    1.9012 C   0  0  0  0  0  0  0  0  0  0  0  0
  3  7  1  0
  7  8  1  6
  6  9  1  0
  7 10  1  0
 10 11  1  0
 11 12  1  0
 12 13  2  0
 13 14  1  0
 14 15  2  0
 15 16  1  0
 16 17  2  0
 12 17  1  0
  1  2  2  0
  2  6  1  0
  5  6  2  0
  4  5  1  0
  3  4  2  0
  1  3  1  0
M  END

$$$$
No_2166-/export/home/yangzhenyu/potential_scad_32_flow//YTHDC2/2024-12-06-03-22-00/
     RDKit          3D

 17 17  0  0  1  0  0  0  0  0999 V2000
    1.1787   -8.0297    3.5154 C   0  0  0  0  0  0  0  0  0  0  0  0
    1.1048   -9.2215    3.2892 C   0  0  0  0  0  0  0  0  0  0  0  0
    1.3627  -10.1721    4.3044 C   0  0  0  0  0  0  0  0  0  0  0  0
    2.3720  -10.8948    4.2468 C   0  0  0  0  0  0  0  0  0  0  0  0
    2.9262  -11.1926    3.1170 C   0  0  0  0  0  0  0  0  0  0  0  0
    2.5807  -10.4593    1.9550 C   0  0  0  0  0  0  0  0  0  0  0  0
    1.7065   -9.4353    2.0233 C   0  0  0  0  0  0  0  0  0  0  0  0
    1.5452   -8.5715    1.0672 C   0  0  1  0  0  0  0  0  0  0  0  0
    1.8997   -8.9640   -0.1782 C   0  0  0  0  0  0  0  0  0  0  0  0
    2.8754   -8.4566   -0.8950 O   0  0  0  0  0  0  0  0  0  0  0  0
    1.2677   -9.7711   -0.9156 O   0  0  0  0  0  0  0  0  0  0  0  0
   -0.0759   -7.2641    3.4936 O   0  0  0  0  0  0  0  0  0  0  0  0
    2.1241   -6.9535    3.7281 O   0  0  0  0  0  0  0  0  0  0  0  0
    0.8953   -7.4517    1.0080 C   0  0  0  0  0  0  0  0  0  0  0  0
    0.0310   -6.7613    0.8731 C   0  0  0  0  0  0  0  0  0  0  0  0
   -0.6962   -5.5033    0.6571 C   0  0  0  0  0  0  0  0  0  0  0  0
   -1.4660   -5.2782    1.3295 C   0  0  0  0  0  0  0  0  0  0  0  0
  1  2  1  0
  7  8  1  0
  8  9  1  0
  9 10  1  0
  9 11  2  0
  1 12  2  0
  1 13  1  0
  8 14  1  6
 14 15  3  0
 15 16  1  0
 16 17  2  0
  2  3  2  0
  3  4  1  0
  4  5  2  0
  5  6  1  0
  6  7  2  0
  2  7  1  0
M  END

$$$$
No_2167-/export/home/yangzhenyu/potential_scad_32_flow//YTHDC2/2024-12-06-03-22-00/
     RDKit          3D

 18 19  0  0  1  0  0  0  0  0999 V2000
    1.1787   -8.0297    3.5154 C   0  0  0  0  0  0  0  0  0  0  0  0
    1.0491   -6.8434    2.9820 C   0  0  0  0  0  0  0  0  0  0  0  0
    0.9905   -9.0774    2.6527 C   0  0  0  0  0  0  0  0  0  0  0  0
    0.7897   -8.9519    1.3691 C   0  0  0  0  0  0  0  0  0  0  0  0
    0.7018   -7.7198    0.7892 C   0  0  0  0  0  0  0  0  0  0  0  0
    0.8187   -6.6272    1.5449 C   0  0  0  0  0  0  0  0  0  0  0  0
    1.1414  -10.4624    3.2533 C   0  0  1  0  0  0  0  0  0  0  0  0
    2.2192  -10.8667    3.7596 C   0  0  0  0  0  0  0  0  0  0  0  0
    0.8346   -5.2935    1.1018 C   0  0  0  0  0  0  0  0  0  0  0  0
   -0.0151  -11.1793    3.4939 C   0  0  0  0  0  0  0  0  0  0  0  0
   -0.1348  -12.4500    3.2272 C   0  0  0  0  0  0  0  0  0  0  0  0
    1.1426  -13.0978    2.8868 C   0  0  0  0  0  0  0  0  0  0  0  0
    0.9920  -14.5201    2.6047 C   0  0  1  0  0  0  0  0  0  0  0  0
    2.3282  -15.1483    2.4439 C   0  0  0  0  0  0  0  0  0  0  0  0
    2.3309  -16.5531    2.5019 N   0  0  0  0  0  0  0  0  0  0  0  0
    1.3778  -17.1675    2.5162 C   0  0  0  0  0  0  0  0  0  0  0  0
    0.2862  -16.1820    2.6721 C   0  0  0  0  0  0  0  0  0  0  0  0
    3.2931  -10.2003    3.9623 C   0  0  0  0  0  0  0  0  0  0  0  0
  3  7  1  0
  7  8  1  1
  6  9  1  0
  7 10  1  0
 10 11  2  3
 11 12  1  0
 13 12  1  1
 13 14  1  0
 14 15  2  0
 15 16  1  0
 13 17  1  0
 16 17  1  0
  8 18  1  0
  1  2  2  0
  2  6  1  0
  5  6  2  0
  4  5  1  0
  3  4  2  0
  1  3  1  0
M  END

$$$$
No_2168-/export/home/yangzhenyu/potential_scad_32_flow//YTHDC2/2024-12-06-03-22-00/
     RDKit          3D

 21 22  0  0  0  0  0  0  0  0999 V2000
    1.1787   -8.0297    3.5154 C   0  0  0  0  0  0  0  0  0  0  0  0
    1.1048   -9.2215    3.2892 C   0  0  0  0  0  0  0  0  0  0  0  0
    1.2339   -9.7611    2.0189 C   0  0  0  0  0  0  0  0  0  0  0  0
    1.3583   -9.0036    0.9764 C   0  0  0  0  0  0  0  0  0  0  0  0
    1.5996   -7.6362    1.1311 C   0  0  0  0  0  0  0  0  0  0  0  0
    1.4830   -7.0928    2.3626 C   0  0  0  0  0  0  0  0  0  0  0  0
    1.5395   -5.7300    2.6182 C   0  0  0  0  0  0  0  0  0  0  0  0
    1.1775  -11.2233    1.8407 C   0  0  0  0  0  0  0  0  0  0  0  0
    1.9057  -12.1147    2.3397 C   0  0  0  0  0  0  0  0  0  0  0  0
    1.6867  -13.4551    2.0621 C   0  0  0  0  0  0  0  0  0  0  0  0
    0.7025  -13.8511    1.3021 C   0  0  0  0  0  0  0  0  0  0  0  0
   -0.1111  -12.9140    0.6527 C   0  0  0  0  0  0  0  0  0  0  0  0
    0.1535  -11.5434    0.9240 C   0  0  0  0  0  0  0  0  0  0  0  0
    1.2825   -4.8055    1.6933 O   0  0  0  0  0  0  0  0  0  0  0  0
    1.8141   -5.1708    3.8283 O   0  0  0  0  0  0  0  0  0  0  0  0
    2.5142  -14.4249    2.7648 Cl  0  0  0  0  0  0  0  0  0  0  0  0
   -0.6907  -10.6664    0.3260 C   0  0  0  0  0  0  0  0  0  0  0  0
   -1.8734  -10.3121    0.9223 C   0  0  0  0  0  0  0  0  0  0  0  0
   -2.3825  -10.9083    1.8628 C   0  0  0  0  0  0  0  0  0  0  0  0
   -3.4321  -10.5747    2.4935 C   0  0  0  0  0  0  0  0  0  0  0  0
   -4.1218   -9.4607    2.1038 C   0  0  0  0  0  0  0  0  0  0  0  0
  6  7  1  0
  3  8  1  0
  7 14  2  0
  7 15  1  0
 10 16  1  0
 13 17  1  0
 17 18  1  0
 18 19  2  3
 19 20  1  0
 20 21  2  0
  1  2  2  0
  2  3  1  0
  3  4  2  0
  4  5  1  0
  5  6  2  0
  1  6  1  0
  8  9  2  0
  9 10  1  0
 10 11  2  0
 11 12  1  0
 12 13  2  0
  8 13  1  0
M  END

$$$$
No_2169-/export/home/yangzhenyu/potential_scad_32_flow//YTHDC2/2024-12-06-03-22-00/
     RDKit          3D

 20 20  0  0  0  0  0  0  0  0999 V2000
    1.1787   -8.0297    3.5154 C   0  0  0  0  0  0  0  0  0  0  0  0
    1.1048   -9.2215    3.2892 C   0  0  0  0  0  0  0  0  0  0  0  0
    1.2339   -9.7611    2.0189 C   0  0  0  0  0  0  0  0  0  0  0  0
    1.3583   -9.0036    0.9764 C   0  0  0  0  0  0  0  0  0  0  0  0
    1.5996   -7.6362    1.1311 C   0  0  0  0  0  0  0  0  0  0  0  0
    1.4830   -7.0928    2.3626 C   0  0  0  0  0  0  0  0  0  0  0  0
    1.4898   -5.7274    2.6199 C   0  0  0  0  0  0  0  0  0  0  0  0
    1.1681  -11.2222    1.8390 C   0  0  0  0  0  0  0  0  0  0  0  0
    0.5014  -11.9760    2.2068 C   0  0  0  0  0  0  0  0  0  0  0  0
    0.4167  -13.3685    2.0527 C   0  0  0  0  0  0  0  0  0  0  0  0
    1.5984  -14.1574    2.4634 C   0  0  0  0  0  0  0  0  0  0  0  0
    1.8090  -15.4261    2.0927 C   0  0  0  0  0  0  0  0  0  0  0  0
    3.0163  -15.8353    1.7346 O   0  0  0  0  0  0  0  0  0  0  0  0
    0.9378  -16.3356    1.9395 O   0  0  0  0  0  0  0  0  0  0  0  0
    0.6708   -4.9755    2.7321 O   0  0  0  0  0  0  0  0  0  0  0  0
    0.0157  -13.8645    0.6412 C   0  0  0  0  0  0  0  0  0  0  0  0
   -0.8205  -13.9176    2.7581 C   0  0  0  0  0  0  0  0  0  0  0  0
    1.5364   -9.4966   -0.5297 C   0  0  0  0  0  0  0  0  0  0  0  0
    0.3486   -9.9262   -0.8831 O   0  0  0  0  0  0  0  0  0  0  0  0
    2.5358   -9.4518   -1.1453 O   0  0  0  0  0  0  0  0  0  0  0  0
  6  7  1  0
  3  8  1  0
  8  9  2  3
  9 10  1  0
 10 11  1  0
 11 12  1  0
 12 13  2  0
 12 14  1  0
  7 15  2  0
 10 16  1  0
 10 17  1  0
  4 18  1  0
 18 19  2  0
 18 20  1  0
  1  2  2  0
  2  3  1  0
  3  4  2  0
  4  5  1  0
  5  6  2  0
  1  6  1  0
M  END

$$$$
No_2170-/export/home/yangzhenyu/potential_scad_32_flow//YTHDC2/2024-12-06-03-22-00/
     RDKit          3D

 19 21  0  0  0  0  0  0  0  0999 V2000
    1.1787   -8.0297    3.5154 C   0  0  0  0  0  0  0  0  0  0  0  0
    1.1048   -9.2215    3.2892 C   0  0  0  0  0  0  0  0  0  0  0  0
    1.3627  -10.1721    4.3044 C   0  0  0  0  0  0  0  0  0  0  0  0
    1.0682  -11.5187    4.0618 C   0  0  0  0  0  0  0  0  0  0  0  0
    0.6332  -11.9655    2.9682 C   0  0  0  0  0  0  0  0  0  0  0  0
    0.4776  -11.1308    1.9203 C   0  0  0  0  0  0  0  0  0  0  0  0
    0.7470   -9.8274    2.0368 C   0  0  0  0  0  0  0  0  0  0  0  0
    1.0387   -7.0301    2.5175 C   0  0  0  0  0  0  0  0  0  0  0  0
    0.9130   -7.5288    1.2013 C   0  0  0  0  0  0  0  0  0  0  0  0
    0.7893   -8.7979    0.9542 C   0  0  0  0  0  0  0  0  0  0  0  0
    0.3851  -13.5918    2.7030 C   0  0  0  0  0  0  0  0  0  0  0  0
    1.4499  -14.3811    3.1650 C   0  0  0  0  0  0  0  0  0  0  0  0
    1.1475  -15.7469    2.9869 C   0  0  0  0  0  0  0  0  0  0  0  0
    0.2349  -16.1991    2.2855 C   0  0  0  0  0  0  0  0  0  0  0  0
   -0.6528  -15.3439    1.7176 C   0  0  0  0  0  0  0  0  0  0  0  0
   -0.4565  -13.9930    1.8980 C   0  0  0  0  0  0  0  0  0  0  0  0
    0.4371   -9.2776   -0.3621 C   0  0  0  0  0  0  0  0  0  0  0  0
   -0.3336   -8.6386   -1.0425 O   0  0  0  0  0  0  0  0  0  0  0  0
    1.1925   -9.9810   -0.9945 O   0  0  0  0  0  0  0  0  0  0  0  0
  5 11  1  0
 10 17  1  0
 17 18  2  0
 17 19  1  0
 11 12  2  0
 12 13  1  0
 13 14  2  0
 14 15  1  0
 15 16  2  0
 11 16  1  0
  2  3  1  0
  3  4  2  0
  4  5  1  0
  5  6  2  0
  6  7  1  0
  1  2  2  0
  2  7  1  0
  7 10  2  0
  9 10  1  0
  8  9  2  0
  1  8  1  0
M  END

$$$$
No_2171-/export/home/yangzhenyu/potential_scad_32_flow//YTHDC2/2024-12-06-03-22-00/
     RDKit          3D

 19 19  0  0  1  0  0  0  0  0999 V2000
    1.1787   -8.0297    3.5154 C   0  0  0  0  0  0  0  0  0  0  0  0
    1.1048   -9.2215    3.2892 C   0  0  0  0  0  0  0  0  0  0  0  0
    1.2339   -9.7611    2.0189 C   0  0  0  0  0  0  0  0  0  0  0  0
    1.3583   -9.0036    0.9764 C   0  0  0  0  0  0  0  0  0  0  0  0
    1.5996   -7.6362    1.1311 C   0  0  0  0  0  0  0  0  0  0  0  0
    1.4830   -7.0928    2.3626 C   0  0  0  0  0  0  0  0  0  0  0  0
    1.4898   -5.7274    2.6199 C   0  0  0  0  0  0  0  0  0  0  0  0
    1.1681  -11.2222    1.8390 C   0  0  0  0  0  0  0  0  0  0  0  0
    0.7145  -11.5870    0.5424 O   0  0  0  0  0  0  0  0  0  0  0  0
    2.0067  -12.0298    2.4274 N   0  0  0  0  0  0  0  0  0  0  0  0
    1.9152  -13.3994    2.2381 C   0  0  1  0  0  0  0  0  0  0  0  0
    0.8714  -13.9781    2.6299 C   0  0  0  0  0  0  0  0  0  0  0  0
    0.8601  -15.5287    2.7246 O   0  0  0  0  0  0  0  0  0  0  0  0
   -0.1767  -13.5339    3.1409 O   0  0  0  0  0  0  0  0  0  0  0  0
    1.2444   -4.8619    1.6191 O   0  0  0  0  0  0  0  0  0  0  0  0
    1.7564   -5.1486    3.7736 O   0  0  0  0  0  0  0  0  0  0  0  0
    2.8635  -13.9902    1.5577 C   0  0  0  0  0  0  0  0  0  0  0  0
    3.3121  -15.1908    2.2087 C   0  0  0  0  0  0  0  0  0  0  0  0
    1.5735   -9.4064   -0.3608 C   0  0  0  0  0  0  0  0  0  0  0  0
  6  7  1  0
  3  8  1  0
  8  9  2  0
  8 10  1  0
 11 10  1  6
 11 12  1  0
 12 13  2  0
 12 14  1  0
  7 15  1  0
  7 16  2  0
 11 17  1  0
 17 18  2  0
  4 19  1  0
  1  2  2  0
  2  3  1  0
  3  4  2  0
  4  5  1  0
  5  6  2  0
  1  6  1  0
M  END

$$$$
No_2172-/export/home/yangzhenyu/potential_scad_32_flow//YTHDC2/2024-12-06-03-22-00/
     RDKit          3D

 18 18  0  0  1  0  0  0  0  0999 V2000
    1.1787   -8.0297    3.5154 O   0  0  0  0  0  0  0  0  0  0  0  0
    0.9969   -8.9689    3.0048 C   0  0  2  0  0  0  0  0  0  0  0  0
    0.9976   -8.9567    1.6341 C   0  0  0  0  0  0  0  0  0  0  0  0
    1.6062   -9.9071    0.9292 C   0  0  0  0  0  0  0  0  0  0  0  0
    2.1191  -10.9757    1.6503 Cl  0  0  0  0  0  0  0  0  0  0  0  0
    1.6682   -9.7942   -0.5084 C   0  0  0  0  0  0  0  0  0  0  0  0
    2.6431   -9.2268   -1.1816 O   0  0  0  0  0  0  0  0  0  0  0  0
    0.5206   -9.8259   -1.1551 O   0  0  0  0  0  0  0  0  0  0  0  0
    0.3789   -9.9260    3.7413 C   0  0  0  0  0  0  0  0  0  0  0  0
    1.0660  -10.9138    4.2902 C   0  0  0  0  0  0  0  0  0  0  0  0
    0.5786  -12.1939    4.3743 C   0  0  0  0  0  0  0  0  0  0  0  0
   -0.6006  -12.4491    3.8453 C   0  0  0  0  0  0  0  0  0  0  0  0
   -1.3712  -11.4228    3.3470 C   0  0  0  0  0  0  0  0  0  0  0  0
   -0.8584  -10.1456    3.4770 C   0  0  0  0  0  0  0  0  0  0  0  0
   -1.6679   -9.1732    2.8262 C   0  0  0  0  0  0  0  0  0  0  0  0
   -2.2455   -9.2645    1.7822 O   0  0  0  0  0  0  0  0  0  0  0  0
   -1.9401   -7.9794    3.5541 N   0  0  0  0  0  0  0  0  0  0  0  0
   -2.5628   -6.8951    3.1298 C   0  0  0  0  0  0  0  0  0  0  0  0
  2  1  1  1
  2  3  1  0
  3  4  2  3
  4  5  1  0
  4  6  1  0
  6  7  1  0
  6  8  2  0
  2  9  1  0
 14 15  1  0
 15 16  2  0
 15 17  1  0
 17 18  1  0
  9 10  2  0
 10 11  1  0
 11 12  2  0
 12 13  1  0
 13 14  2  0
  9 14  1  0
M  END

$$$$
No_2173-/export/home/yangzhenyu/potential_scad_32_flow//YTHDC2/2024-12-06-03-22-00/
     RDKit          3D

 18 19  0  0  0  0  0  0  0  0999 V2000
    1.1787   -8.0297    3.5154 C   0  0  0  0  0  0  0  0  0  0  0  0
    1.1048   -9.2215    3.2892 C   0  0  0  0  0  0  0  0  0  0  0  0
    1.3627  -10.1721    4.3044 C   0  0  0  0  0  0  0  0  0  0  0  0
    1.0682  -11.5187    4.0618 C   0  0  0  0  0  0  0  0  0  0  0  0
    0.6332  -11.9655    2.9682 C   0  0  0  0  0  0  0  0  0  0  0  0
    0.4776  -11.1308    1.9203 C   0  0  0  0  0  0  0  0  0  0  0  0
    0.7470   -9.8274    2.0368 C   0  0  0  0  0  0  0  0  0  0  0  0
    1.0387   -7.0301    2.5175 C   0  0  0  0  0  0  0  0  0  0  0  0
    0.9130   -7.5288    1.2013 C   0  0  0  0  0  0  0  0  0  0  0  0
    0.7893   -8.7980    0.9542 C   0  0  0  0  0  0  0  0  0  0  0  0
    0.5241   -9.2578   -0.2817 C   0  0  0  0  0  0  0  0  0  0  0  0
   -0.1121   -8.6523   -1.0898 O   0  0  0  0  0  0  0  0  0  0  0  0
    0.4743  -13.6037    2.6713 C   0  0  0  0  0  0  0  0  0  0  0  0
    1.4261  -14.3845    3.2016 C   0  0  0  0  0  0  0  0  0  0  0  0
    1.5545  -15.6176    2.6053 C   0  0  0  0  0  0  0  0  0  0  0  0
    2.2322  -15.8677    1.7360 C   0  0  0  0  0  0  0  0  0  0  0  0
    3.3034  -14.9723    1.4682 C   0  0  0  0  0  0  0  0  0  0  0  0
    1.0924  -10.2575   -0.7907 O   0  0  0  0  0  0  0  0  0  0  0  0
 10 11  1  0
 11 12  2  0
  5 13  1  0
 13 14  1  0
 14 15  1  0
 15 16  1  0
 16 17  1  0
 11 18  1  0
  2  3  1  0
  3  4  2  0
  4  5  1  0
  5  6  2  0
  6  7  1  0
  1  2  2  0
  2  7  1  0
  7 10  2  0
  9 10  1  0
  8  9  2  0
  1  8  1  0
M  END

$$$$
No_2174-/export/home/yangzhenyu/potential_scad_32_flow//YTHDC2/2024-12-06-03-22-00/
     RDKit          3D

 17 17  0  0  0  0  0  0  0  0999 V2000
    1.1787   -8.0297    3.5154 C   0  0  0  0  0  0  0  0  0  0  0  0
    1.1048   -9.2215    3.2892 N   0  0  0  0  0  0  0  0  0  0  0  0
    1.0346   -9.7785    2.1176 C   0  0  0  0  0  0  0  0  0  0  0  0
    1.4181   -9.0513    1.1985 C   0  0  0  0  0  0  0  0  0  0  0  0
    1.4890   -7.1193    2.4346 C   0  0  0  0  0  0  0  0  0  0  0  0
    1.5565   -7.7007    1.1566 C   0  0  0  0  0  0  0  0  0  0  0  0
    1.5417   -9.6103   -0.1725 C   0  0  0  0  0  0  0  0  0  0  0  0
    1.0499  -10.8002   -0.2245 O   0  0  0  0  0  0  0  0  0  0  0  0
    1.8147   -9.0688   -1.2652 O   0  0  0  0  0  0  0  0  0  0  0  0
    1.5156   -5.6358    2.6279 C   0  0  0  0  0  0  0  0  0  0  0  0
    1.3229   -4.8173    1.7358 O   0  0  0  0  0  0  0  0  0  0  0  0
    1.6042   -5.2135    3.9521 O   0  0  0  0  0  0  0  0  0  0  0  0
    1.1393  -11.1832    2.1470 C   0  0  0  0  0  0  0  0  0  0  0  0
    0.0747  -11.8642    2.2995 C   0  0  0  0  0  0  0  0  0  0  0  0
    0.1785  -13.3525    2.3299 C   0  0  0  0  0  0  0  0  0  0  0  0
    1.4325  -14.0179    2.3553 C   0  0  0  0  0  0  0  0  0  0  0  0
    2.6505  -13.1872    2.1122 C   0  0  0  0  0  0  0  0  0  0  0  0
  4  7  1  0
  7  8  2  0
  7  9  1  0
  5 10  1  0
 10 11  2  0
 10 12  1  0
  3 13  1  0
 13 14  1  0
 14 15  2  3
 15 16  1  0
 16 17  2  0
  1  2  2  0
  2  3  1  0
  3  4  2  0
  4  6  1  0
  5  6  2  0
  1  5  1  0
M  END

$$$$
No_2175-/export/home/yangzhenyu/potential_scad_32_flow//YTHDC2/2024-12-06-03-22-00/
     RDKit          3D

 20 20  0  0  1  0  0  0  0  0999 V2000
    1.1787   -8.0297    3.5154 C   0  0  0  0  0  0  0  0  0  0  0  0
    1.1048   -9.2215    3.2892 C   0  0  0  0  0  0  0  0  0  0  0  0
    1.3627  -10.1721    4.3044 C   0  0  0  0  0  0  0  0  0  0  0  0
    1.7354  -11.4730    3.9023 C   0  0  0  0  0  0  0  0  0  0  0  0
    1.8080  -11.8127    2.7216 C   0  0  0  0  0  0  0  0  0  0  0  0
    1.5854  -11.0021    1.7249 C   0  0  0  0  0  0  0  0  0  0  0  0
    1.3573   -9.7389    1.9287 C   0  0  0  0  0  0  0  0  0  0  0  0
    1.2865   -8.8078    0.9161 C   0  0  0  0  0  0  0  0  0  0  0  0
    1.6845   -9.1638   -0.2896 O   0  0  0  0  0  0  0  0  0  0  0  0
    0.9531   -7.5121    1.0883 O   0  0  0  0  0  0  0  0  0  0  0  0
    2.0767  -13.2100    2.3154 N   0  0  0  0  0  0  0  0  0  0  0  0
    1.3186  -14.1811    1.8598 C   0  0  2  0  0  0  0  0  0  0  0  0
    0.1368  -13.7418    1.3549 C   0  0  0  0  0  0  0  0  0  0  0  0
    1.6125  -15.3890    2.2873 C   0  0  0  0  0  0  0  0  0  0  0  0
    2.6492  -15.7872    2.7906 C   0  0  0  0  0  0  0  0  0  0  0  0
   -0.1389  -13.6077   -0.0604 C   0  0  0  0  0  0  0  0  0  0  0  0
    0.6614  -16.3283    1.8982 C   0  0  0  0  0  0  0  0  0  0  0  0
   -1.1826  -13.0759   -0.6066 C   0  0  0  0  0  0  0  0  0  0  0  0
   -2.1724  -12.6257    0.2427 C   0  0  0  0  0  0  0  0  0  0  0  0
   -2.0948  -12.7408    1.6269 C   0  0  0  0  0  0  0  0  0  0  0  0
  1  2  1  0
  7  8  1  0
  8  9  2  0
  8 10  1  0
  5 11  1  0
 11 12  1  0
 12 13  1  1
 12 14  1  0
 14 15  1  0
 13 16  1  0
 14 17  1  0
 16 18  2  3
 18 19  1  0
 19 20  2  0
  2  3  2  0
  3  4  1  0
  4  5  2  0
  5  6  1  0
  6  7  2  0
  2  7  1  0
M  END

$$$$
No_2176-/export/home/yangzhenyu/potential_scad_32_flow//YTHDC2/2024-12-06-03-22-00/
     RDKit          3D

 19 20  0  0  1  0  0  0  0  0999 V2000
    1.1787   -8.0297    3.5154 C   0  0  0  0  0  0  0  0  0  0  0  0
    1.1048   -9.2215    3.2892 C   0  0  0  0  0  0  0  0  0  0  0  0
    1.2339   -9.7611    2.0189 C   0  0  0  0  0  0  0  0  0  0  0  0
    1.3583   -9.0036    0.9764 C   0  0  0  0  0  0  0  0  0  0  0  0
    1.5996   -7.6362    1.1311 C   0  0  0  0  0  0  0  0  0  0  0  0
    1.4830   -7.0928    2.3626 C   0  0  0  0  0  0  0  0  0  0  0  0
    1.4898   -5.7274    2.6199 C   0  0  0  0  0  0  0  0  0  0  0  0
    1.1681  -11.2222    1.8390 C   0  0  0  0  0  0  0  0  0  0  0  0
    0.5014  -11.9760    2.2068 C   0  0  0  0  0  0  0  0  0  0  0  0
    0.4167  -13.3685    2.0527 C   0  0  2  0  0  0  0  0  0  0  0  0
   -0.6161  -14.0718    1.8701 C   0  0  0  0  0  0  0  0  0  0  0  0
   -1.8327  -13.5577    1.6009 C   0  0  0  0  0  0  0  0  0  0  0  0
   -2.9645  -14.4441    1.4367 C   0  0  0  0  0  0  0  0  0  0  0  0
    1.7005  -14.0233    2.4713 C   0  0  0  0  0  0  0  0  0  0  0  0
   -4.1212  -14.0175    1.8407 C   0  0  0  0  0  0  0  0  0  0  0  0
   -4.3894  -12.7257    2.1963 C   0  0  0  0  0  0  0  0  0  0  0  0
   -3.3265  -11.7602    2.2689 C   0  0  0  0  0  0  0  0  0  0  0  0
   -2.0376  -12.1814    1.9132 C   0  0  0  0  0  0  0  0  0  0  0  0
    1.2514   -4.8508    1.6197 O   0  0  0  0  0  0  0  0  0  0  0  0
  6  7  1  0
  3  8  1  0
  8  9  2  3
  9 10  1  0
 10 11  1  0
 10 14  1  1
  7 19  2  0
 11 12  1  0
  1  2  2  0
  2  3  1  0
  3  4  2  0
  4  5  1  0
  5  6  2  0
  1  6  1  0
 12 13  2  0
 13 15  1  0
 15 16  2  0
 16 17  1  0
 17 18  2  0
 12 18  1  0
M  END

$$$$
No_2177-/export/home/yangzhenyu/potential_scad_32_flow//YTHDC2/2024-12-06-03-22-00/
     RDKit          3D

 18 19  0  0  1  0  0  0  0  0999 V2000
    1.1787   -8.0297    3.5154 C   0  0  0  0  0  0  0  0  0  0  0  0
    1.1048   -9.2215    3.2892 C   0  0  0  0  0  0  0  0  0  0  0  0
    1.2339   -9.7611    2.0189 C   0  0  0  0  0  0  0  0  0  0  0  0
    1.3583   -9.0036    0.9764 C   0  0  0  0  0  0  0  0  0  0  0  0
    1.5996   -7.6362    1.1311 C   0  0  0  0  0  0  0  0  0  0  0  0
    1.4830   -7.0928    2.3626 C   0  0  0  0  0  0  0  0  0  0  0  0
    1.1008  -11.2372    1.8542 C   0  0  2  0  0  0  0  0  0  0  0  0
    1.9749  -12.0938    2.2342 C   0  0  0  0  0  0  0  0  0  0  0  0
    1.7533  -13.4231    1.8956 C   0  0  0  0  0  0  0  0  0  0  0  0
    0.8624  -13.8318    1.1071 C   0  0  0  0  0  0  0  0  0  0  0  0
    0.5887  -15.0331    0.5602 C   0  0  0  0  0  0  0  0  0  0  0  0
    0.0117  -12.7008    0.6834 C   0  0  0  0  0  0  0  0  0  0  0  0
    0.1049  -11.5571    0.9500 N   0  0  0  0  0  0  0  0  0  0  0  0
   -1.0074  -13.0798   -0.2119 O   0  0  0  0  0  0  0  0  0  0  0  0
    1.5384   -5.6344    2.6392 C   0  0  0  0  0  0  0  0  0  0  0  0
    1.1792   -4.7788    1.6455 O   0  0  0  0  0  0  0  0  0  0  0  0
    1.8179   -5.0714    3.7409 O   0  0  0  0  0  0  0  0  0  0  0  0
    0.9027  -15.2827   -0.5450 O   0  0  0  0  0  0  0  0  0  0  0  0
  7  3  1  6
  7  8  1  0
  9 10  1  0
 10 11  1  0
 10 12  1  0
  7 13  1  0
 12 13  1  0
 12 14  2  0
  6 15  1  0
 15 16  2  0
 15 17  1  0
 11 18  2  0
  8  9  1  0
  1  2  2  0
  2  3  1  0
  3  4  2  0
  4  5  1  0
  5  6  2  0
  1  6  1  0
M  END

$$$$
No_2178-/export/home/yangzhenyu/potential_scad_32_flow//YTHDC2/2024-12-06-03-22-00/
     RDKit          3D

 20 21  0  0  1  0  0  0  0  0999 V2000
    1.1787   -8.0297    3.5154 O   0  0  0  0  0  0  0  0  0  0  0  0
    0.9969   -8.9689    3.0048 C   0  0  0  0  0  0  0  0  0  0  0  0
    1.3055  -10.1056    3.6616 C   0  0  0  0  0  0  0  0  0  0  0  0
    1.1249  -11.3503    3.0941 C   0  0  0  0  0  0  0  0  0  0  0  0
    0.6932  -11.4484    1.8586 N   0  0  0  0  0  0  0  0  0  0  0  0
    0.5732  -10.4219    1.0663 C   0  0  0  0  0  0  0  0  0  0  0  0
    0.7826   -9.1597    1.6359 C   0  0  0  0  0  0  0  0  0  0  0  0
    0.4449   -7.9068    1.0210 C   0  0  1  0  0  0  0  0  0  0  0  0
    1.2235  -12.7407    3.8571 N   0  0  0  0  0  0  0  0  0  0  0  0
    1.4778   -7.1232    0.7429 C   0  0  0  0  0  0  0  0  0  0  0  0
    0.9573  -13.8754    3.2904 C   0  0  0  0  0  0  0  0  0  0  0  0
    2.2299  -14.4961    2.7052 C   0  0  0  0  0  0  0  0  0  0  0  0
    2.0547  -15.8299    2.2437 C   0  0  0  0  0  0  0  0  0  0  0  0
    0.8686  -16.3672    2.1773 C   0  0  0  0  0  0  0  0  0  0  0  0
   -0.2171  -15.8371    2.7062 C   0  0  0  0  0  0  0  0  0  0  0  0
   -0.1114  -14.5694    3.2988 C   0  0  0  0  0  0  0  0  0  0  0  0
   -0.6967   -7.6504    0.3683 C   0  0  0  0  0  0  0  0  0  0  0  0
   -1.0723   -6.8696   -0.4508 C   0  0  0  0  0  0  0  0  0  0  0  0
   -2.3063   -6.7966   -1.1260 C   0  0  0  0  0  0  0  0  0  0  0  0
   -2.7669   -7.9047   -1.6827 C   0  0  0  0  0  0  0  0  0  0  0  0
  1  2  1  0
  7  8  1  0
  4  9  1  0
  8 10  1  6
  9 11  1  0
  8 17  1  0
 17 18  2  3
 18 19  1  0
 19 20  2  0
 11 12  2  0
 12 13  1  0
 13 14  2  0
 14 15  1  0
 15 16  2  0
 11 16  1  0
  2  3  2  0
  3  4  1  0
  4  5  2  0
  5  6  1  0
  6  7  2  0
  2  7  1  0
M  END

$$$$
No_2179-/export/home/yangzhenyu/potential_scad_32_flow//YTHDC2/2024-12-06-03-22-00/
     RDKit          3D

 19 19  0  0  0  0  0  0  0  0999 V2000
    1.1787   -8.0297    3.5154 C   0  0  0  0  0  0  0  0  0  0  0  0
    1.1048   -9.2215    3.2892 C   0  0  0  0  0  0  0  0  0  0  0  0
    1.2339   -9.7611    2.0189 C   0  0  0  0  0  0  0  0  0  0  0  0
    1.3583   -9.0036    0.9764 C   0  0  0  0  0  0  0  0  0  0  0  0
    1.7077   -9.6100   -0.3010 C   0  0  0  0  0  0  0  0  0  0  0  0
    1.3637   -7.1087    2.3226 C   0  0  0  0  0  0  0  0  0  0  0  0
    1.4257   -7.6645    1.0231 C   0  0  0  0  0  0  0  0  0  0  0  0
    1.6722  -10.7840   -0.4044 O   0  0  0  0  0  0  0  0  0  0  0  0
    1.7049   -8.9062   -1.4410 O   0  0  0  0  0  0  0  0  0  0  0  0
    1.1298  -10.3189    4.5712 C   0  0  0  0  0  0  0  0  0  0  0  0
    1.9501  -11.6160    4.1316 C   0  0  0  0  0  0  0  0  0  0  0  0
    1.0646  -12.6109    3.5023 C   0  0  0  0  0  0  0  0  0  0  0  0
   -0.2383  -12.3884    3.4723 O   0  0  0  0  0  0  0  0  0  0  0  0
    1.6321  -13.7024    3.2203 O   0  0  0  0  0  0  0  0  0  0  0  0
    1.2763   -5.4605    2.6760 C   0  0  0  0  0  0  0  0  0  0  0  0
    1.1102   -4.7349    1.6508 C   0  0  0  0  0  0  0  0  0  0  0  0
    0.3641   -3.6211    1.9086 O   0  0  0  0  0  0  0  0  0  0  0  0
    0.6539   -2.6141    2.0509 C   0  0  0  0  0  0  0  0  0  0  0  0
    1.0856  -14.5107    2.1705 C   0  0  0  0  0  0  0  0  0  0  0  0
  4  5  1  0
  5  8  2  0
  5  9  1  0
  2 10  1  0
 10 11  1  0
 11 12  1  0
 12 13  2  0
 12 14  1  0
  6 15  1  0
 15 16  1  0
 16 17  1  0
 17 18  1  0
 14 19  1  0
  1  2  2  0
  2  3  1  0
  3  4  2  0
  4  7  1  0
  6  7  2  0
  1  6  1  0
M  END

$$$$
No_2180-/export/home/yangzhenyu/potential_scad_32_flow//YTHDC2/2024-12-06-03-22-00/
     RDKit          3D

 20 21  0  0  0  0  0  0  0  0999 V2000
    1.1787   -8.0297    3.5154 C   0  0  0  0  0  0  0  0  0  0  0  0
    1.1048   -9.2215    3.2892 C   0  0  0  0  0  0  0  0  0  0  0  0
    1.2339   -9.7611    2.0189 C   0  0  0  0  0  0  0  0  0  0  0  0
    1.1954  -11.2312    1.8661 C   0  0  0  0  0  0  0  0  0  0  0  0
    1.2996  -11.5815    0.5387 C   0  0  0  0  0  0  0  0  0  0  0  0
    0.9270   -7.0442    2.4967 C   0  0  0  0  0  0  0  0  0  0  0  0
    0.9803   -7.6034    1.0978 C   0  0  0  0  0  0  0  0  0  0  0  0
    1.1096   -8.9244    0.8670 C   0  0  0  0  0  0  0  0  0  0  0  0
    1.0761  -11.9547    2.9012 C   0  0  0  0  0  0  0  0  0  0  0  0
    0.5875  -12.9955    2.7625 C   0  0  0  0  0  0  0  0  0  0  0  0
    0.4818  -13.7074    1.4940 C   0  0  0  0  0  0  0  0  0  0  0  0
    0.8043  -12.8816    0.3838 C   0  0  0  0  0  0  0  0  0  0  0  0
    0.9916   -5.5979    2.6454 C   0  0  0  0  0  0  0  0  0  0  0  0
    0.3148  -15.0325    1.2663 C   0  0  0  0  0  0  0  0  0  0  0  0
    1.2755  -15.9249    1.7405 C   0  0  0  0  0  0  0  0  0  0  0  0
    1.0421  -17.2856    1.6645 N   0  0  0  0  0  0  0  0  0  0  0  0
    2.5345  -15.6018    2.0300 O   0  0  0  0  0  0  0  0  0  0  0  0
    0.4415   -4.8949    1.6135 C   0  0  0  0  0  0  0  0  0  0  0  0
    0.1123   -3.5867    2.0235 C   0  0  0  0  0  0  0  0  0  0  0  0
    0.3673   -2.6928    1.6147 C   0  0  0  0  0  0  0  0  0  0  0  0
  3  4  1  0
  6 13  1  0
 11 14  1  0
 14 15  1  0
 15 16  1  0
 15 17  2  0
 13 18  1  0
 18 19  1  0
 19 20  2  0
  4  5  2  0
  5 12  1  0
 11 12  2  0
 10 11  1  0
  9 10  2  0
  4  9  1  0
  1  2  2  0
  2  3  1  0
  3  8  2  0
  7  8  1  0
  6  7  2  0
  1  6  1  0
M  END

$$$$
No_2181-/export/home/yangzhenyu/potential_scad_32_flow//YTHDC2/2024-12-06-03-22-00/
     RDKit          3D

 12 13  0  0  0  0  0  0  0  0999 V2000
    1.1787   -8.0297    3.5154 C   0  0  0  0  0  0  0  0  0  0  0  0
    1.0491   -6.8434    2.9820 C   0  0  0  0  0  0  0  0  0  0  0  0
    0.2462   -8.9560    3.0873 C   0  0  0  0  0  0  0  0  0  0  0  0
    0.3295   -6.5187    1.9069 C   0  0  0  0  0  0  0  0  0  0  0  0
   -0.5260   -8.7862    2.1368 C   0  0  0  0  0  0  0  0  0  0  0  0
   -0.5458   -7.5614    1.5054 C   0  0  0  0  0  0  0  0  0  0  0  0
    0.3663  -10.3301    3.7373 C   0  0  0  0  0  0  0  0  0  0  0  0
   -0.8414  -11.0073    3.8266 C   0  0  0  0  0  0  0  0  0  0  0  0
   -1.8073  -10.7830    2.9067 C   0  0  0  0  0  0  0  0  0  0  0  0
   -1.8974  -10.0149    2.0445 C   0  0  0  0  0  0  0  0  0  0  0  0
    0.3667   -5.1684    1.0784 N   0  0  0  0  0  0  0  0  0  0  0  0
    1.0135   -4.2147    1.7433 O   0  0  0  0  0  0  0  0  0  0  0  0
  4 11  1  0
 11 12  2  0
  5 10  2  0
  9 10  1  0
  8  9  2  0
  7  8  1  0
  3  7  2  0
  1  2  2  0
  2  4  1  0
  4  6  2  0
  5  6  1  0
  3  5  1  0
  1  3  1  0
M  END

$$$$
No_2182-/export/home/yangzhenyu/potential_scad_32_flow//YTHDC2/2024-12-06-03-22-00/
     RDKit          3D

 12 12  0  0  1  0  0  0  0  0999 V2000
    1.1787   -8.0297    3.5154 C   0  0  0  0  0  0  0  0  0  0  0  0
    1.1048   -9.2215    3.2892 C   0  0  0  0  0  0  0  0  0  0  0  0
    1.2339   -9.7611    2.0189 C   0  0  0  0  0  0  0  0  0  0  0  0
    1.3583   -9.0036    0.9764 C   0  0  0  0  0  0  0  0  0  0  0  0
    1.5996   -7.6362    1.1311 C   0  0  0  0  0  0  0  0  0  0  0  0
    1.4830   -7.0928    2.3626 C   0  0  0  0  0  0  0  0  0  0  0  0
    1.4898   -5.7274    2.6199 C   0  0  0  0  0  0  0  0  0  0  0  0
    1.1681  -11.2222    1.8390 C   0  0  1  0  0  0  0  0  0  0  0  0
    0.7145  -11.5870    0.5424 O   0  0  0  0  0  0  0  0  0  0  0  0
    1.6081  -12.0518    2.6142 C   0  0  0  0  0  0  0  0  0  0  0  0
    1.6003  -13.4586    2.1291 N   0  0  0  0  0  0  0  0  0  0  0  0
    1.9923  -13.8797    1.0965 O   0  0  0  0  0  0  0  0  0  0  0  0
  6  7  1  0
  3  8  1  0
  8  9  1  6
  8 10  1  0
 10 11  1  0
 11 12  2  0
  1  2  2  0
  2  3  1  0
  3  4  2  0
  4  5  1  0
  5  6  2  0
  1  6  1  0
M  END

$$$$
No_2183-/export/home/yangzhenyu/potential_scad_32_flow//YTHDC2/2024-12-06-03-22-00/
     RDKit          3D

 19 20  0  0  1  0  0  0  0  0999 V2000
    1.1787   -8.0297    3.5154 O   0  0  0  0  0  0  0  0  0  0  0  0
    0.9969   -8.9689    3.0048 C   0  0  0  0  0  0  0  0  0  0  0  0
    1.3055  -10.1056    3.6616 C   0  0  0  0  0  0  0  0  0  0  0  0
    1.5709  -11.1115    3.2016 C   0  0  0  0  0  0  0  0  0  0  0  0
    1.6332  -11.2629    1.7349 C   0  0  0  0  0  0  0  0  0  0  0  0
    1.4616  -10.1742    0.9691 C   0  0  0  0  0  0  0  0  0  0  0  0
    1.1252   -9.0006    1.6051 C   0  0  0  0  0  0  0  0  0  0  0  0
    0.8275   -7.7749    1.0285 C   0  0  0  0  0  0  0  0  0  0  0  0
    1.3414   -6.7053    1.3717 N   0  0  0  0  0  0  0  0  0  0  0  0
   -0.0244   -7.6997   -0.0210 O   0  0  0  0  0  0  0  0  0  0  0  0
    1.8897  -12.4255    3.8166 C   0  0  0  0  0  0  0  0  0  0  0  0
    1.9004  -13.3836    3.2489 C   0  0  0  0  0  0  0  0  0  0  0  0
    1.3009  -14.1924    2.5481 C   0  0  0  0  0  0  0  0  0  0  0  0
    1.5833  -15.2634    1.6913 C   0  0  0  0  0  0  0  0  0  0  0  0
    0.7617  -15.9827    1.0785 N   0  0  0  0  0  0  0  0  0  0  0  0
   -0.0445  -14.0695    2.5552 C   0  0  0  0  0  0  0  0  0  0  0  0
   -0.4514  -15.2073    1.5803 C   0  0  2  0  0  0  0  0  0  0  0  0
   -1.6648  -15.5071    1.2696 C   0  0  0  0  0  0  0  0  0  0  0  0
   -2.6366  -14.5909    1.3139 O   0  0  0  0  0  0  0  0  0  0  0  0
  1  2  1  0
  7  8  1  0
  8  9  1  0
  8 10  2  0
  4 11  1  0
 11 12  2  3
 12 13  1  0
 13 14  1  0
 14 15  2  0
 13 16  1  0
 15 17  1  0
 16 17  1  0
 17 18  1  1
 18 19  2  0
  2  3  2  0
  3  4  1  0
  4  5  2  0
  5  6  1  0
  6  7  2  0
  2  7  1  0
M  END

$$$$
No_2184-/export/home/yangzhenyu/potential_scad_32_flow//YTHDC2/2024-12-06-03-22-00/
     RDKit          3D

 18 18  0  0  1  0  0  0  0  0999 V2000
    1.1787   -8.0297    3.5154 C   0  0  0  0  0  0  0  0  0  0  0  0
    1.1048   -9.2215    3.2892 C   0  0  0  0  0  0  0  0  0  0  0  0
    1.2339   -9.7611    2.0189 C   0  0  0  0  0  0  0  0  0  0  0  0
    1.3583   -9.0036    0.9764 C   0  0  0  0  0  0  0  0  0  0  0  0
    1.5996   -7.6362    1.1311 C   0  0  0  0  0  0  0  0  0  0  0  0
    1.4830   -7.0928    2.3626 C   0  0  0  0  0  0  0  0  0  0  0  0
    1.4898   -5.7274    2.6199 C   0  0  0  0  0  0  0  0  0  0  0  0
    1.1681  -11.2222    1.8390 C   0  0  1  0  0  0  0  0  0  0  0  0
    0.7145  -11.5870    0.5424 C   0  0  0  0  0  0  0  0  0  0  0  0
   -0.1922  -10.9837   -0.0791 O   0  0  0  0  0  0  0  0  0  0  0  0
    0.8853  -12.9648    0.2927 O   0  0  0  0  0  0  0  0  0  0  0  0
    1.2684   -4.8641    1.6137 O   0  0  0  0  0  0  0  0  0  0  0  0
    1.4754   -5.1659    3.8868 O   0  0  0  0  0  0  0  0  0  0  0  0
    1.7534  -12.0064    2.6411 C   0  0  0  0  0  0  0  0  0  0  0  0
    1.0456  -12.5501    3.6805 C   0  0  0  0  0  0  0  0  0  0  0  0
   -0.1019  -13.1560    3.1314 C   0  0  0  0  0  0  0  0  0  0  0  0
   -0.1763  -14.4630    3.0708 Cl  0  0  0  0  0  0  0  0  0  0  0  0
   -1.2481  -12.4424    2.9789 O   0  0  0  0  0  0  0  0  0  0  0  0
  6  7  1  0
  3  8  1  0
  8  9  1  0
  9 10  2  0
  9 11  1  0
  7 12  2  0
  7 13  1  0
  8 14  1  6
 14 15  1  0
 15 16  1  0
 16 17  1  0
 16 18  2  0
  1  2  2  0
  2  3  1  0
  3  4  2  0
  4  5  1  0
  5  6  2  0
  1  6  1  0
M  END

$$$$
No_2185-/export/home/yangzhenyu/potential_scad_32_flow//YTHDC2/2024-12-06-03-22-00/
     RDKit          3D

 20 21  0  0  1  0  0  0  0  0999 V2000
    1.1787   -8.0297    3.5154 C   0  0  0  0  0  0  0  0  0  0  0  0
    1.0491   -6.8434    2.9820 C   0  0  1  0  0  0  0  0  0  0  0  0
    0.9905   -9.0774    2.6527 C   0  0  1  0  0  0  0  0  0  0  0  0
    0.7897   -8.9519    1.3691 C   0  0  0  0  0  0  0  0  0  0  0  0
    0.7018   -7.7198    0.7892 C   0  0  0  0  0  0  0  0  0  0  0  0
    1.4312   -5.5794    3.7443 C   0  0  0  0  0  0  0  0  0  0  0  0
    0.9426   -6.6664    1.5322 C   0  0  0  0  0  0  0  0  0  0  0  0
    0.9111   -5.4001    1.0251 O   0  0  0  0  0  0  0  0  0  0  0  0
    1.1071  -10.5041    3.1810 C   0  0  2  0  0  0  0  0  0  0  0  0
    2.2672  -10.9371    3.6173 C   0  0  0  0  0  0  0  0  0  0  0  0
    2.2295  -12.2826    4.0897 N   0  0  0  0  0  0  0  0  0  0  0  0
    1.1176  -12.8049    3.6436 C   0  0  0  0  0  0  0  0  0  0  0  0
    0.4028  -11.6139    3.1279 C   0  0  0  0  0  0  0  0  0  0  0  0
    0.6843  -13.9900    3.8419 O   0  0  0  0  0  0  0  0  0  0  0  0
    0.6888  -10.0377    0.4048 C   0  0  0  0  0  0  0  0  0  0  0  0
   -0.4301  -10.3763   -0.0059 O   0  0  0  0  0  0  0  0  0  0  0  0
    1.8185  -10.5648   -0.0463 O   0  0  0  0  0  0  0  0  0  0  0  0
    0.5531   -4.5955    3.7409 N   0  0  0  0  0  0  0  0  0  0  0  0
    1.0534   -3.2868    3.7947 C   0  0  0  0  0  0  0  0  0  0  0  0
    0.2605   -2.2354    4.2404 C   0  0  0  0  0  0  0  0  0  0  0  0
  1  2  1  0
  3  4  1  0
  2  6  1  6
  2  7  1  0
  5  7  1  0
  7  8  2  0
  3  9  1  0
  9 10  1  0
 10 11  2  0
 11 12  1  0
  9 13  1  6
 12 13  1  0
 12 14  2  0
  4 15  1  0
 15 16  2  0
 15 17  1  0
  6 18  1  0
 18 19  1  0
 19 20  1  0
  3  1  1  6
  4  5  1  0
M  END

$$$$
No_2186-/export/home/yangzhenyu/potential_scad_32_flow//YTHDC2/2024-12-06-03-22-00/
     RDKit          3D

 19 20  0  0  0  0  0  0  0  0999 V2000
    1.1787   -8.0297    3.5154 C   0  0  0  0  0  0  0  0  0  0  0  0
    1.1048   -9.2215    3.2892 C   0  0  0  0  0  0  0  0  0  0  0  0
    1.3627  -10.1721    4.3044 C   0  0  0  0  0  0  0  0  0  0  0  0
    1.0682  -11.5187    4.0618 C   0  0  0  0  0  0  0  0  0  0  0  0
    0.6332  -11.9655    2.9682 C   0  0  0  0  0  0  0  0  0  0  0  0
    0.4776  -11.1308    1.9203 C   0  0  0  0  0  0  0  0  0  0  0  0
    0.7470   -9.8274    2.0368 C   0  0  0  0  0  0  0  0  0  0  0  0
    1.0387   -7.0301    2.5175 N   0  0  0  0  0  0  0  0  0  0  0  0
    0.9298   -7.5514    1.2672 C   0  0  0  0  0  0  0  0  0  0  0  0
    0.7824   -8.7713    0.9713 C   0  0  0  0  0  0  0  0  0  0  0  0
    0.3633   -9.2077   -0.2511 C   0  0  0  0  0  0  0  0  0  0  0  0
    1.1431   -9.3087   -1.2556 O   0  0  0  0  0  0  0  0  0  0  0  0
   -1.0377   -9.3870   -0.5159 N   0  0  0  0  0  0  0  0  0  0  0  0
    0.5289  -13.3871    2.6906 C   0  0  0  0  0  0  0  0  0  0  0  0
    0.8714  -14.0319    1.7002 N   0  0  0  0  0  0  0  0  0  0  0  0
    1.4973  -15.2225    1.7775 C   0  0  0  0  0  0  0  0  0  0  0  0
    2.7164  -15.4503    2.3968 C   0  0  0  0  0  0  0  0  0  0  0  0
    3.2459  -16.7515    2.5158 C   0  0  0  0  0  0  0  0  0  0  0  0
    2.5476  -17.8130    2.1005 C   0  0  0  0  0  0  0  0  0  0  0  0
 10 11  1  0
 11 12  2  0
 11 13  1  0
  5 14  1  0
 14 15  1  0
 15 16  1  0
 16 17  1  0
 17 18  2  3
 18 19  1  0
  2  3  1  0
  3  4  2  0
  4  5  1  0
  5  6  2  0
  6  7  1  0
  1  2  2  0
  2  7  1  0
  7 10  2  0
  9 10  1  0
  8  9  2  0
  1  8  1  0
M  END

$$$$
No_2187-/export/home/yangzhenyu/potential_scad_32_flow//YTHDC2/2024-12-06-03-22-00/
     RDKit          3D

 18 18  0  0  1  0  0  0  0  0999 V2000
    1.1787   -8.0297    3.5154 C   0  0  0  0  0  0  0  0  0  0  0  0
    1.0491   -6.8434    2.9820 C   0  0  0  0  0  0  0  0  0  0  0  0
    1.9985   -8.9840    2.8958 C   0  0  0  0  0  0  0  0  0  0  0  0
    1.1814  -10.1889    2.5497 C   0  0  0  0  0  0  0  0  0  0  0  0
    0.9817  -11.1388    2.8134 C   0  0  2  0  0  0  0  0  0  0  0  0
    1.6854  -11.5768    4.1035 C   0  0  0  0  0  0  0  0  0  0  0  0
    1.8112   -5.8026    3.2097 O   0  0  0  0  0  0  0  0  0  0  0  0
    0.3163   -6.6991    1.8469 O   0  0  0  0  0  0  0  0  0  0  0  0
    1.1635  -12.2939    1.9559 C   0  0  0  0  0  0  0  0  0  0  0  0
    0.9909  -12.0258    0.7297 O   0  0  0  0  0  0  0  0  0  0  0  0
    0.8198  -13.6299    2.2931 C   0  0  0  0  0  0  0  0  0  0  0  0
    1.9053  -14.3223    2.9652 C   0  0  0  0  0  0  0  0  0  0  0  0
    1.5810  -15.7134    3.0941 C   0  0  0  0  0  0  0  0  0  0  0  0
    0.4859  -16.2369    2.7965 C   0  0  0  0  0  0  0  0  0  0  0  0
   -0.5222  -15.5478    2.2774 C   0  0  0  0  0  0  0  0  0  0  0  0
   -0.3338  -14.1797    2.0129 C   0  0  0  0  0  0  0  0  0  0  0  0
    0.1810  -17.8712    3.1974 C   0  0  0  0  0  0  0  0  0  0  0  0
   -0.4522  -18.2687    3.9764 C   0  0  0  0  0  0  0  0  0  0  0  0
  1  2  1  0
  1  3  1  0
  3  4  1  0
  4  5  1  0
  5  6  1  1
  2  7  1  0
  2  8  2  0
  5  9  1  0
  9 10  2  0
  9 11  1  0
 14 17  1  0
 17 18  2  0
 11 12  2  0
 12 13  1  0
 13 14  2  0
 14 15  1  0
 15 16  2  0
 11 16  1  0
M  END

$$$$
No_2188-/export/home/yangzhenyu/potential_scad_32_flow//YTHDC2/2024-12-06-03-22-00/
     RDKit          3D

 20 22  0  0  1  0  0  0  0  0999 V2000
    1.1787   -8.0297    3.5154 C   0  0  0  0  0  0  0  0  0  0  0  0
    1.1048   -9.2215    3.2892 C   0  0  0  0  0  0  0  0  0  0  0  0
    1.3627  -10.1721    4.3044 N   0  0  0  0  0  0  0  0  0  0  0  0
    0.9525   -6.9720    2.5932 C   0  0  0  0  0  0  0  0  0  0  0  0
    0.7500   -7.4173    1.3424 C   0  0  0  0  0  0  0  0  0  0  0  0
    0.6609   -8.6866    0.9881 C   0  0  0  0  0  0  0  0  0  0  0  0
    0.8627   -9.6609    1.9163 C   0  0  0  0  0  0  0  0  0  0  0  0
    1.2683  -11.5159    3.9893 C   0  0  0  0  0  0  0  0  0  0  0  0
    0.9346  -11.9230    2.7968 N   0  0  0  0  0  0  0  0  0  0  0  0
    0.7515  -11.0128    1.7836 C   0  0  0  0  0  0  0  0  0  0  0  0
    0.5659  -11.5341    0.5437 O   0  0  0  0  0  0  0  0  0  0  0  0
    1.1544   -5.3163    2.9286 Cl  0  0  0  0  0  0  0  0  0  0  0  0
    0.9244  -13.3278    2.4571 C   0  0  2  0  0  0  0  0  0  0  0  0
   -0.2663  -13.9939    2.5524 O   0  0  0  0  0  0  0  0  0  0  0  0
    2.0495  -14.0829    2.4042 C   0  0  0  0  0  0  0  0  0  0  0  0
    1.9710  -15.4863    2.5876 C   0  0  0  0  0  0  0  0  0  0  0  0
    0.8162  -16.0811    2.7072 C   0  0  1  0  0  0  0  0  0  0  0  0
   -0.3000  -15.2984    2.7576 C   0  0  0  0  0  0  0  0  0  0  0  0
    0.7760  -17.4883    2.7068 C   0  0  0  0  0  0  0  0  0  0  0  0
    1.5248  -18.2301    3.6162 O   0  0  0  0  0  0  0  0  0  0  0  0
  2  3  1  0
  8  9  1  0
  7 10  1  0
  9 10  1  0
 10 11  2  0
  4 12  1  0
 13  9  1  1
 13 14  1  0
 13 15  1  0
 15 16  2  0
 16 17  1  0
 14 18  1  0
 17 18  1  0
 17 19  1  6
 19 20  2  0
  3  8  1  0
  1  2  2  0
  2  7  1  0
  6  7  2  0
  5  6  1  0
  4  5  2  0
  1  4  1  0
M  END

$$$$
No_2189-/export/home/yangzhenyu/potential_scad_32_flow//YTHDC2/2024-12-06-03-22-00/
     RDKit          3D

 19 20  0  0  1  0  0  0  0  0999 V2000
    1.1787   -8.0297    3.5154 N   0  0  0  0  0  0  0  0  0  0  0  0
    1.0818   -9.0751    3.2053 C   0  0  0  0  0  0  0  0  0  0  0  0
    0.7576   -9.3725    1.9159 C   0  0  0  0  0  0  0  0  0  0  0  0
    0.8823   -8.4917    1.0547 C   0  0  1  0  0  0  0  0  0  0  0  0
    1.5589   -7.2414    1.9015 C   0  0  0  0  0  0  0  0  0  0  0  0
    0.9727   -8.3150   -0.2115 C   0  0  0  0  0  0  0  0  0  0  0  0
    1.9349   -8.6265   -1.0097 C   0  0  0  0  0  0  0  0  0  0  0  0
    3.0357   -9.0155   -0.6542 O   0  0  0  0  0  0  0  0  0  0  0  0
    1.6622   -8.7954   -2.2157 O   0  0  0  0  0  0  0  0  0  0  0  0
    0.4437  -10.7491    1.5544 C   0  0  2  0  0  0  0  0  0  0  0  0
    1.5333  -11.7132    1.4271 C   0  0  0  0  0  0  0  0  0  0  0  0
    1.2538  -13.0386    0.9806 C   0  0  0  0  0  0  0  0  0  0  0  0
    0.0949  -13.3502    0.4558 C   0  0  0  0  0  0  0  0  0  0  0  0
   -0.8516  -12.5079    0.3296 C   0  0  0  0  0  0  0  0  0  0  0  0
   -0.6903  -11.1543    0.8262 C   0  0  0  0  0  0  0  0  0  0  0  0
   -1.7574  -10.2044    0.7850 O   0  0  0  0  0  0  0  0  0  0  0  0
    1.0179   -9.9966    4.3356 C   0  0  0  0  0  0  0  0  0  0  0  0
    2.0192  -10.8481    4.6979 C   0  0  0  0  0  0  0  0  0  0  0  0
    1.9373  -11.9667    4.3534 C   0  0  0  0  0  0  0  0  0  0  0  0
  1  2  1  0
  2  3  2  0
  3  4  1  0
  1  5  2  0
  4  5  1  0
  4  6  1  6
  6  7  1  0
  7  8  1  0
  7  9  2  0
 10  3  1  6
 10 11  1  0
 12 13  1  0
 10 15  1  0
 14 15  1  0
 15 16  2  0
  2 17  1  0
 17 18  1  0
 18 19  2  0
 11 12  1  0
 13 14  1  0
M  END

$$$$
No_2190-/export/home/yangzhenyu/potential_scad_32_flow//YTHDC2/2024-12-06-03-22-00/
     RDKit          3D

 18 19  0  0  0  0  0  0  0  0999 V2000
    1.1787   -8.0297    3.5154 C   0  0  0  0  0  0  0  0  0  0  0  0
    1.0491   -6.8434    2.9820 C   0  0  0  0  0  0  0  0  0  0  0  0
    0.9905   -9.0774    2.6527 C   0  0  0  0  0  0  0  0  0  0  0  0
    0.7897   -8.9519    1.3691 C   0  0  0  0  0  0  0  0  0  0  0  0
    0.7018   -7.7198    0.7892 C   0  0  0  0  0  0  0  0  0  0  0  0
    0.8918   -6.5957    1.6117 C   0  0  0  0  0  0  0  0  0  0  0  0
    1.0600  -10.5680    3.3321 C   0  0  0  0  0  0  0  0  0  0  0  0
   -0.1041  -11.1772    3.5150 N   0  0  0  0  0  0  0  0  0  0  0  0
   -0.1634  -12.4375    3.4039 N   0  0  0  0  0  0  0  0  0  0  0  0
    0.4618  -12.8760    2.3013 C   0  0  0  0  0  0  0  0  0  0  0  0
    0.4984  -14.3336    2.1091 C   0  0  0  0  0  0  0  0  0  0  0  0
    1.1439  -15.1068    2.6241 C   0  0  0  0  0  0  0  0  0  0  0  0
    1.1908  -16.4354    2.4064 C   0  0  0  0  0  0  0  0  0  0  0  0
    0.4199  -16.8930    1.3121 C   0  0  0  0  0  0  0  0  0  0  0  0
   -0.3335  -16.0972    0.6809 C   0  0  0  0  0  0  0  0  0  0  0  0
   -0.3417  -14.7017    1.0074 C   0  0  0  0  0  0  0  0  0  0  0  0
    0.9061   -5.2779    1.1330 C   0  0  0  0  0  0  0  0  0  0  0  0
    2.3190  -11.0180    3.6316 C   0  0  0  0  0  0  0  0  0  0  0  0
  3  7  1  0
  7  8  1  0
  8  9  1  0
  9 10  2  3
 10 11  1  0
  6 17  1  0
  7 18  1  0
 11 12  2  0
 12 13  1  0
 13 14  2  0
 14 15  1  0
 15 16  2  0
 11 16  1  0
  1  2  2  0
  2  6  1  0
  5  6  2  0
  4  5  1  0
  3  4  2  0
  1  3  1  0
M  END

$$$$
No_2191-/export/home/yangzhenyu/potential_scad_32_flow//YTHDC2/2024-12-06-03-22-00/
     RDKit          3D

 21 23  0  0  1  0  0  0  0  0999 V2000
    1.1787   -8.0297    3.5154 C   0  0  0  0  0  0  0  0  0  0  0  0
    1.1048   -9.2215    3.2892 C   0  0  0  0  0  0  0  0  0  0  0  0
    1.2339   -9.7611    2.0189 C   0  0  1  0  0  0  0  0  0  0  0  0
    1.1954  -11.2312    1.8661 C   0  0  0  0  0  0  0  0  0  0  0  0
    1.5546  -12.1691    2.7931 C   0  0  0  0  0  0  0  0  0  0  0  0
    0.9527   -7.0669    2.3918 C   0  0  2  0  0  0  0  0  0  0  0  0
    1.0618   -7.6392    1.0692 C   0  0  0  0  0  0  0  0  0  0  0  0
    1.2060   -8.9530    0.8578 C   0  0  1  0  0  0  0  0  0  0  0  0
    1.5159  -13.5011    2.3738 C   0  0  0  0  0  0  0  0  0  0  0  0
    1.1409  -13.8990    1.1908 C   0  0  0  0  0  0  0  0  0  0  0  0
    0.9249  -13.0546    0.2183 C   0  0  0  0  0  0  0  0  0  0  0  0
    0.9227  -11.6707    0.5316 C   0  0  0  0  0  0  0  0  0  0  0  0
    1.0078   -5.6071    2.4628 C   0  0  0  0  0  0  0  0  0  0  0  0
    1.4830   -9.3509   -0.3550 Cl  0  0  0  0  0  0  0  0  0  0  0  0
    1.0899   -6.8277    0.1161 O   0  0  0  0  0  0  0  0  0  0  0  0
    1.9661  -14.5336    3.6478 Br  0  0  0  0  0  0  0  0  0  0  0  0
   -0.0299   -4.9247    2.0110 C   0  0  0  0  0  0  0  0  0  0  0  0
   -0.4079   -3.9482    2.5758 C   0  0  0  0  0  0  0  0  0  0  0  0
    0.5860   -3.1272    3.3109 C   0  0  0  0  0  0  0  0  0  0  0  0
    1.7016   -3.7613    3.9046 C   0  0  0  0  0  0  0  0  0  0  0  0
    1.9189   -5.0771    3.5136 C   0  0  0  0  0  0  0  0  0  0  0  0
  1  2  1  0
  3  4  1  6
  6  7  1  0
  3  8  1  0
  7  8  1  0
  6 13  1  6
  8 14  1  1
  7 15  2  0
  9 16  1  0
  1  6  1  0
  2  3  1  0
  4  5  2  0
  5  9  1  0
  9 10  2  0
 10 11  1  0
 11 12  2  0
  4 12  1  0
 13 17  2  0
 17 18  1  0
 18 19  2  0
 19 20  1  0
 20 21  2  0
 13 21  1  0
M  END

$$$$
No_2192-/export/home/yangzhenyu/potential_scad_32_flow//YTHDC2/2024-12-06-03-22-00/
     RDKit          3D

 18 19  0  0  1  0  0  0  0  0999 V2000
    1.1787   -8.0297    3.5154 C   0  0  0  0  0  0  0  0  0  0  0  0
    1.1048   -9.2215    3.2892 C   0  0  0  0  0  0  0  0  0  0  0  0
    1.3627  -10.1721    4.3044 C   0  0  0  0  0  0  0  0  0  0  0  0
    1.0682  -11.5187    4.0618 C   0  0  0  0  0  0  0  0  0  0  0  0
    0.6332  -11.9655    2.9682 C   0  0  0  0  0  0  0  0  0  0  0  0
    0.4776  -11.1308    1.9203 C   0  0  0  0  0  0  0  0  0  0  0  0
    0.7470   -9.8274    2.0368 C   0  0  0  0  0  0  0  0  0  0  0  0
    0.5536   -7.1314    2.6860 N   0  0  0  0  0  0  0  0  0  0  0  0
    0.4463   -7.5890    1.3163 C   0  0  0  0  0  0  0  0  0  0  0  0
    0.3167   -8.8396    1.0546 C   0  0  1  0  0  0  0  0  0  0  0  0
    0.0294   -9.1967   -0.1763 C   0  0  0  0  0  0  0  0  0  0  0  0
    0.7413   -9.3185   -1.2005 C   0  0  0  0  0  0  0  0  0  0  0  0
    0.3085   -9.2950   -2.4551 O   0  0  0  0  0  0  0  0  0  0  0  0
    2.1064   -9.0164   -1.2181 O   0  0  0  0  0  0  0  0  0  0  0  0
    0.3491   -6.5655    0.4747 O   0  0  0  0  0  0  0  0  0  0  0  0
    0.5727  -13.4185    2.7481 C   0  0  0  0  0  0  0  0  0  0  0  0
    0.9003  -14.0630    1.7543 C   0  0  0  0  0  0  0  0  0  0  0  0
    0.2552  -14.5818    0.9465 C   0  0  0  0  0  0  0  0  0  0  0  0
  1  2  1  0
  1  8  1  0
  8  9  1  0
  7 10  1  0
  9 10  1  0
 10 11  1  6
 11 12  1  0
 12 13  1  0
 12 14  2  0
  9 15  2  0
  5 16  1  0
 16 17  1  0
 17 18  2  0
  2  3  2  0
  3  4  1  0
  4  5  2  0
  5  6  1  0
  6  7  2  0
  2  7  1  0
M  END

$$$$
No_2193-/export/home/yangzhenyu/potential_scad_32_flow//YTHDC2/2024-12-06-03-22-00/
     RDKit          3D

 19 20  0  0  0  0  0  0  0  0999 V2000
    1.1787   -8.0297    3.5154 C   0  0  0  0  0  0  0  0  0  0  0  0
    1.0491   -6.8434    2.9820 C   0  0  0  0  0  0  0  0  0  0  0  0
    0.2462   -8.9560    3.0873 C   0  0  0  0  0  0  0  0  0  0  0  0
    0.3295   -6.5187    1.9069 C   0  0  0  0  0  0  0  0  0  0  0  0
    0.3283  -10.2724    3.7059 C   0  0  0  0  0  0  0  0  0  0  0  0
   -0.4404   -7.4628    1.4400 C   0  0  0  0  0  0  0  0  0  0  0  0
   -0.4655   -8.7076    1.9376 C   0  0  0  0  0  0  0  0  0  0  0  0
    0.2262  -11.4685    3.0231 C   0  0  0  0  0  0  0  0  0  0  0  0
   -0.8604  -11.9158    2.4881 C   0  0  0  0  0  0  0  0  0  0  0  0
   -0.8570  -13.2238    2.0166 C   0  0  0  0  0  0  0  0  0  0  0  0
    0.3737  -13.9912    1.9939 C   0  0  0  0  0  0  0  0  0  0  0  0
    1.5676  -13.4290    2.4645 C   0  0  0  0  0  0  0  0  0  0  0  0
    1.5674  -12.2144    3.0635 C   0  0  0  0  0  0  0  0  0  0  0  0
    0.5304   -5.1005    1.2668 O   0  0  0  0  0  0  0  0  0  0  0  0
    0.4599  -15.3138    1.4186 C   0  0  0  0  0  0  0  0  0  0  0  0
    1.0273  -16.3071    2.0911 C   0  0  0  0  0  0  0  0  0  0  0  0
    1.1576  -17.6164    1.4989 C   0  0  0  0  0  0  0  0  0  0  0  0
    0.6648  -17.8264    0.3602 C   0  0  0  0  0  0  0  0  0  0  0  0
    0.0509  -16.9210   -0.3035 C   0  0  0  0  0  0  0  0  0  0  0  0
  3  5  1  0
  5  8  1  0
  4 14  1  0
 11 15  1  0
 15 16  2  3
 16 17  1  0
 17 18  2  3
 18 19  1  0
  1  2  2  0
  2  4  1  0
  4  6  2  0
  6  7  1  0
  3  7  2  0
  1  3  1  0
  8  9  2  0
  9 10  1  0
 10 11  2  0
 11 12  1  0
 12 13  2  0
  8 13  1  0
M  END

$$$$
No_2194-/export/home/yangzhenyu/potential_scad_32_flow//YTHDC2/2024-12-06-03-22-00/
     RDKit          3D

 18 19  0  0  0  0  0  0  0  0999 V2000
    1.1787   -8.0297    3.5154 C   0  0  0  0  0  0  0  0  0  0  0  0
    1.1048   -9.2215    3.2892 C   0  0  0  0  0  0  0  0  0  0  0  0
    1.3627  -10.1721    4.3044 C   0  0  0  0  0  0  0  0  0  0  0  0
    1.7354  -11.4730    3.9023 C   0  0  0  0  0  0  0  0  0  0  0  0
    1.8080  -11.8127    2.7216 C   0  0  0  0  0  0  0  0  0  0  0  0
    1.5854  -11.0021    1.7249 C   0  0  0  0  0  0  0  0  0  0  0  0
    1.3573   -9.7389    1.9287 C   0  0  0  0  0  0  0  0  0  0  0  0
    1.1102   -8.8712    0.9017 C   0  0  0  0  0  0  0  0  0  0  0  0
    0.5299   -7.6926    1.0325 C   0  0  0  0  0  0  0  0  0  0  0  0
    0.7526   -7.0802    2.3301 C   0  0  0  0  0  0  0  0  0  0  0  0
    2.1027  -13.4660    2.3958 O   0  0  0  0  0  0  0  0  0  0  0  0
    0.4255   -5.4221    2.5438 C   0  0  0  0  0  0  0  0  0  0  0  0
    0.9105   -4.7553    1.5392 C   0  0  0  0  0  0  0  0  0  0  0  0
    0.4984   -3.3383    1.6293 C   0  0  0  0  0  0  0  0  0  0  0  0
    0.8109   -2.7410    0.5111 C   0  0  0  0  0  0  0  0  0  0  0  0
    2.0412  -13.8236    1.2013 C   0  0  0  0  0  0  0  0  0  0  0  0
   -0.0650   -2.9593   -0.6107 C   0  0  0  0  0  0  0  0  0  0  0  0
   -0.1674   -1.8824   -1.6061 C   0  0  0  0  0  0  0  0  0  0  0  0
  5 11  1  0
 10 12  1  0
 12 13  1  0
 13 14  1  0
 14 15  1  0
 11 16  1  0
 15 17  1  0
 17 18  1  0
  1  2  2  0
  7  8  2  0
  8  9  1  0
  9 10  2  0
  1 10  1  0
  2  3  1  0
  3  4  2  0
  4  5  1  0
  5  6  2  0
  6  7  1  0
  2  7  1  0
M  END

$$$$
No_2195-/export/home/yangzhenyu/potential_scad_32_flow//YTHDC2/2024-12-06-03-22-00/
     RDKit          3D

 20 21  0  0  1  0  0  0  0  0999 V2000
    1.1787   -8.0297    3.5154 O   0  0  0  0  0  0  0  0  0  0  0  0
    0.6747   -7.4019    2.7838 C   0  0  0  0  0  0  0  0  0  0  0  0
    0.7594   -8.0032    1.4295 C   0  0  0  0  0  0  0  0  0  0  0  0
    0.3459   -9.1500    1.3581 C   0  0  2  0  0  0  0  0  0  0  0  0
    1.1876  -10.0065    2.0239 C   0  0  0  0  0  0  0  0  0  0  0  0
    1.2267   -9.5257    3.5507 C   0  0  1  0  0  0  0  0  0  0  0  0
    1.6039  -10.3725    4.5012 C   0  0  0  0  0  0  0  0  0  0  0  0
    2.9639  -10.7957    4.5370 C   0  0  0  0  0  0  0  0  0  0  0  0
    0.9103   -7.0350    0.4986 C   0  0  0  0  0  0  0  0  0  0  0  0
    1.2200   -5.7127    1.0052 N   0  0  0  0  0  0  0  0  0  0  0  0
    1.2508   -5.4750    2.2981 C   0  0  0  0  0  0  0  0  0  0  0  0
    1.0876   -6.2411    3.2051 N   0  0  0  0  0  0  0  0  0  0  0  0
    3.6596   -9.9579    5.5310 O   0  0  0  0  0  0  0  0  0  0  0  0
    1.4514   -3.9850    2.6780 C   0  0  0  0  0  0  0  0  0  0  0  0
    3.4384  -11.6672    4.1857 O   0  0  0  0  0  0  0  0  0  0  0  0
    0.5096   -9.7477   -0.1514 C   0  0  0  0  0  0  0  0  0  0  0  0
   -0.7008  -10.3684   -0.3824 O   0  0  0  0  0  0  0  0  0  0  0  0
    1.3345   -9.5926   -0.9618 O   0  0  0  0  0  0  0  0  0  0  0  0
    1.4182   -3.8362    4.0221 C   0  0  0  0  0  0  0  0  0  0  0  0
    1.1914   -2.3912    4.2864 C   0  0  0  0  0  0  0  0  0  0  0  0
  1  2  1  0
  3  4  1  0
  4  5  1  0
  1  6  1  0
  5  6  1  0
  6  7  1  6
  7  8  1  0
  8 13  1  0
 11 14  1  0
  8 15  2  0
  4 16  1  6
 16 17  1  0
 16 18  2  0
 14 19  1  0
 19 20  2  0
  2  3  2  0
  3  9  1  0
  9 10  2  0
 10 11  1  0
 11 12  2  0
  2 12  1  0
M  END

$$$$
No_2196-/export/home/yangzhenyu/potential_scad_32_flow//YTHDC2/2024-12-06-03-22-00/
     RDKit          3D

 18 19  0  0  0  0  0  0  0  0999 V2000
    1.1787   -8.0297    3.5154 O   0  0  0  0  0  0  0  0  0  0  0  0
    0.9969   -8.9689    3.0048 C   0  0  0  0  0  0  0  0  0  0  0  0
    1.3055  -10.1056    3.6616 C   0  0  0  0  0  0  0  0  0  0  0  0
    1.1249  -11.3503    3.0941 C   0  0  0  0  0  0  0  0  0  0  0  0
    0.6932  -11.4484    1.8586 C   0  0  0  0  0  0  0  0  0  0  0  0
    0.5498  -10.3736    1.0579 C   0  0  0  0  0  0  0  0  0  0  0  0
    0.7643   -9.1185    1.6383 C   0  0  0  0  0  0  0  0  0  0  0  0
    0.4151   -7.8542    1.0784 I   0  0  0  0  0  0  0  0  0  0  0  0
    1.2990  -12.6327    3.8235 O   0  0  0  0  0  0  0  0  0  0  0  0
    0.5710  -12.7711    1.1624 C   0  0  0  0  0  0  0  0  0  0  0  0
   -0.4435  -13.1041    0.4993 C   0  0  0  0  0  0  0  0  0  0  0  0
   -0.6240  -14.3003   -0.1895 C   0  0  0  0  0  0  0  0  0  0  0  0
    1.7636  -13.7498    1.1389 C   0  0  0  0  0  0  0  0  0  0  0  0
    0.5253  -15.1485   -0.2257 C   0  0  0  0  0  0  0  0  0  0  0  0
    1.6835  -14.8550    0.4842 C   0  0  0  0  0  0  0  0  0  0  0  0
    0.3896  -16.3281   -0.9132 C   0  0  0  0  0  0  0  0  0  0  0  0
    0.6345  -17.4664   -0.4352 O   0  0  0  0  0  0  0  0  0  0  0  0
    0.7097  -16.1846   -2.3540 O   0  0  0  0  0  0  0  0  0  0  0  0
  1  2  1  0
  7  8  1  0
  4  9  1  0
  5 10  1  0
 14 16  1  0
 16 17  1  0
 16 18  2  0
  2  3  2  0
  3  4  1  0
  4  5  2  0
  5  6  1  0
  6  7  2  0
  2  7  1  0
 10 11  2  0
 11 12  1  0
 12 14  2  0
 14 15  1  0
 13 15  2  0
 10 13  1  0
M  END

$$$$
No_2197-/export/home/yangzhenyu/potential_scad_32_flow//YTHDC2/2024-12-06-03-22-00/
     RDKit          3D

 18 20  0  0  0  0  0  0  0  0999 V2000
    1.1787   -8.0297    3.5154 C   0  0  0  0  0  0  0  0  0  0  0  0
    1.1048   -9.2215    3.2892 C   0  0  0  0  0  0  0  0  0  0  0  0
    1.3627  -10.1721    4.3044 C   0  0  0  0  0  0  0  0  0  0  0  0
    1.0682  -11.5187    4.0618 C   0  0  0  0  0  0  0  0  0  0  0  0
    0.6332  -11.9655    2.9682 C   0  0  0  0  0  0  0  0  0  0  0  0
    0.4776  -11.1308    1.9203 C   0  0  0  0  0  0  0  0  0  0  0  0
    0.7470   -9.8274    2.0368 C   0  0  0  0  0  0  0  0  0  0  0  0
    1.0387   -7.0301    2.5175 C   0  0  0  0  0  0  0  0  0  0  0  0
    0.9130   -7.5288    1.2013 C   0  0  0  0  0  0  0  0  0  0  0  0
    0.7893   -8.7979    0.9542 C   0  0  0  0  0  0  0  0  0  0  0  0
    0.3998  -13.3695    2.7114 C   0  0  0  0  0  0  0  0  0  0  0  0
   -0.8069  -13.8090    2.3159 C   0  0  0  0  0  0  0  0  0  0  0  0
   -1.0012  -15.1954    2.1657 N   0  0  0  0  0  0  0  0  0  0  0  0
    1.4024  -14.4120    2.8807 C   0  0  0  0  0  0  0  0  0  0  0  0
    1.2336  -15.7360    2.7793 C   0  0  0  0  0  0  0  0  0  0  0  0
    0.0105  -16.1014    2.4243 C   0  0  0  0  0  0  0  0  0  0  0  0
    0.4429   -9.2713   -0.3635 C   0  0  0  0  0  0  0  0  0  0  0  0
   -0.8734   -9.5215   -0.6251 O   0  0  0  0  0  0  0  0  0  0  0  0
  5 11  1  0
 10 17  1  0
 17 18  2  0
  2  3  1  0
  3  4  2  0
  4  5  1  0
  5  6  2  0
  6  7  1  0
  1  2  2  0
  2  7  1  0
  7 10  2  0
  9 10  1  0
  8  9  2  0
  1  8  1  0
 11 12  2  0
 12 13  1  0
 13 16  2  0
 15 16  1  0
 14 15  2  0
 11 14  1  0
M  END

$$$$
No_2198-/export/home/yangzhenyu/potential_scad_32_flow//YTHDC2/2024-12-06-03-22-00/
     RDKit          3D

 18 19  0  0  0  0  0  0  0  0999 V2000
    1.1787   -8.0297    3.5154 C   0  0  0  0  0  0  0  0  0  0  0  0
    1.1048   -9.2215    3.2892 C   0  0  0  0  0  0  0  0  0  0  0  0
    1.2339   -9.7611    2.0189 C   0  0  0  0  0  0  0  0  0  0  0  0
    1.3583   -9.0036    0.9764 C   0  0  0  0  0  0  0  0  0  0  0  0
    1.5996   -7.6362    1.1311 C   0  0  0  0  0  0  0  0  0  0  0  0
    1.4830   -7.0928    2.3626 C   0  0  0  0  0  0  0  0  0  0  0  0
    1.1008  -11.2372    1.8542 C   0  0  0  0  0  0  0  0  0  0  0  0
    1.9749  -12.0938    2.2342 C   0  0  0  0  0  0  0  0  0  0  0  0
    1.7533  -13.4231    1.8956 C   0  0  0  0  0  0  0  0  0  0  0  0
    0.8624  -13.8318    1.1071 C   0  0  0  0  0  0  0  0  0  0  0  0
   -0.0624  -12.9093    0.5581 C   0  0  0  0  0  0  0  0  0  0  0  0
    0.1157  -11.5285    0.9404 N   0  0  0  0  0  0  0  0  0  0  0  0
    1.5444   -5.6400    2.6522 I   0  0  0  0  0  0  0  0  0  0  0  0
    1.4816   -9.5068   -0.5917 Cl  0  0  0  0  0  0  0  0  0  0  0  0
    2.7260  -14.4227    2.4261 Cl  0  0  0  0  0  0  0  0  0  0  0  0
   -1.0630  -13.2815   -0.3322 C   0  0  0  0  0  0  0  0  0  0  0  0
   -1.0893  -14.6185   -0.6396 O   0  0  0  0  0  0  0  0  0  0  0  0
   -1.9227  -12.4940   -0.6229 N   0  0  0  0  0  0  0  0  0  0  0  0
  3  7  1  0
  6 13  1  0
  4 14  1  0
  9 15  1  0
 11 16  1  0
 16 17  2  0
 16 18  1  0
  1  2  2  0
  2  3  1  0
  3  4  2  0
  4  5  1  0
  5  6  2  0
  1  6  1  0
  7  8  2  0
  8  9  1  0
  9 10  2  0
 10 11  1  0
 11 12  2  0
  7 12  1  0
M  END

$$$$
No_2199-/export/home/yangzhenyu/potential_scad_32_flow//YTHDC2/2024-12-06-03-22-00/
     RDKit          3D

 19 19  0  0  1  0  0  0  0  0999 V2000
    1.1787   -8.0297    3.5154 O   0  0  0  0  0  0  0  0  0  0  0  0
    0.6747   -7.4019    2.7838 C   0  0  0  0  0  0  0  0  0  0  0  0
    0.5570   -6.0797    2.8560 C   0  0  0  0  0  0  0  0  0  0  0  0
   -0.2158   -5.3007    2.0284 C   0  0  0  0  0  0  0  0  0  0  0  0
   -0.8260   -5.9169    1.0290 C   0  0  0  0  0  0  0  0  0  0  0  0
   -0.6925   -7.2407    0.8216 C   0  0  0  0  0  0  0  0  0  0  0  0
    0.1645   -8.0156    1.6621 C   0  0  0  0  0  0  0  0  0  0  0  0
    0.4049   -9.3434    1.4877 C   0  0  2  0  0  0  0  0  0  0  0  0
    1.4848   -9.6364    0.5257 C   0  0  0  0  0  0  0  0  0  0  0  0
    1.9880  -10.8099    0.3816 O   0  0  0  0  0  0  0  0  0  0  0  0
    2.3065   -8.6172   -0.1213 O   0  0  0  0  0  0  0  0  0  0  0  0
   -0.3884   -3.8691    2.2779 O   0  0  0  0  0  0  0  0  0  0  0  0
    0.5019   -3.0392    2.1319 C   0  0  0  0  0  0  0  0  0  0  0  0
   -0.2554  -10.2989    1.7401 C   0  0  0  0  0  0  0  0  0  0  0  0
   -0.1791  -10.8234    2.9944 C   0  0  0  0  0  0  0  0  0  0  0  0
   -0.5890  -12.0961    3.3939 C   0  0  0  0  0  0  0  0  0  0  0  0
    0.5393  -12.9815    3.6212 C   0  0  0  0  0  0  0  0  0  0  0  0
    1.8728  -12.4598    3.5243 N   0  0  0  0  0  0  0  0  0  0  0  0
    0.4961  -14.2735    3.6557 O   0  0  0  0  0  0  0  0  0  0  0  0
  1  2  1  0
  7  8  1  0
  8  9  1  0
  9 10  1  0
  9 11  2  0
  4 12  1  0
 12 13  1  0
  8 14  1  6
 14 15  1  0
 15 16  1  0
 16 17  1  0
 17 18  1  0
 17 19  2  0
  2  3  2  0
  3  4  1  0
  4  5  2  0
  5  6  1  0
  6  7  2  0
  2  7  1  0
M  END

$$$$
No_2200-/export/home/yangzhenyu/potential_scad_32_flow//YTHDC2/2024-12-06-03-22-00/
     RDKit          3D

 19 20  0  0  1  0  0  0  0  0999 V2000
    1.1787   -8.0297    3.5154 C   0  0  0  0  0  0  0  0  0  0  0  0
    1.0491   -6.8434    2.9820 C   0  0  0  0  0  0  0  0  0  0  0  0
    0.9905   -9.0774    2.6527 C   0  0  0  0  0  0  0  0  0  0  0  0
    1.1655  -10.4663    3.1286 C   0  0  0  0  0  0  0  0  0  0  0  0
    1.2197  -11.4898    2.5831 C   0  0  0  0  0  0  0  0  0  0  0  0
    1.0589  -11.4458    1.1293 C   0  0  0  0  0  0  0  0  0  0  0  0
    0.9638  -10.3069    0.4651 C   0  0  0  0  0  0  0  0  0  0  0  0
    0.9191   -9.0789    1.1942 C   0  0  0  0  0  0  0  0  0  0  0  0
    0.9198   -7.8339    0.6158 C   0  0  0  0  0  0  0  0  0  0  0  0
    1.0184   -6.6904    1.4953 C   0  0  0  0  0  0  0  0  0  0  0  0
    1.3445  -12.8198    3.0746 N   0  0  0  0  0  0  0  0  0  0  0  0
    1.4477  -13.9426    2.3490 C   0  0  2  0  0  0  0  0  0  0  0  0
    1.2186  -15.1818    2.7757 C   0  0  0  0  0  0  0  0  0  0  0  0
    1.8118  -16.3371    2.2845 O   0  0  0  0  0  0  0  0  0  0  0  0
    0.2382  -15.4069    3.5702 O   0  0  0  0  0  0  0  0  0  0  0  0
    1.3423   -5.5934    3.6535 N   0  0  0  0  0  0  0  0  0  0  0  0
    1.2825   -4.4321    3.2268 C   0  0  0  0  0  0  0  0  0  0  0  0
    2.1797  -13.8112    1.1885 C   0  0  0  0  0  0  0  0  0  0  0  0
    1.6911   -4.1075    2.1181 C   0  0  0  0  0  0  0  0  0  0  0  0
  5 11  1  0
 11 12  1  0
 12 13  1  0
 13 14  2  0
 13 15  1  0
 16 17  1  0
 12 18  1  1
 17 19  2  0
  2 16  1  0
  1  2  2  0
  2 10  1  0
  9 10  2  0
  8  9  1  0
  1  3  1  0
  3  4  2  0
  4  5  1  0
  5  6  2  0
  6  7  1  0
  7  8  2  0
  3  8  1  0
M  END

$$$$
No_2201-/export/home/yangzhenyu/potential_scad_32_flow//YTHDC2/2024-12-06-03-22-00/
     RDKit          3D

 17 17  0  0  0  0  0  0  0  0999 V2000
    1.1787   -8.0297    3.5154 C   0  0  0  0  0  0  0  0  0  0  0  0
    1.1048   -9.2215    3.2892 C   0  0  0  0  0  0  0  0  0  0  0  0
    1.3627  -10.1721    4.3044 C   0  0  0  0  0  0  0  0  0  0  0  0
    1.7354  -11.4730    3.9023 C   0  0  0  0  0  0  0  0  0  0  0  0
    1.8080  -11.8127    2.7216 C   0  0  0  0  0  0  0  0  0  0  0  0
    1.5854  -11.0021    1.7249 C   0  0  0  0  0  0  0  0  0  0  0  0
    1.3573   -9.7389    1.9287 C   0  0  0  0  0  0  0  0  0  0  0  0
    1.1102   -8.8712    0.9017 C   0  0  0  0  0  0  0  0  0  0  0  0
    1.5724   -9.1697   -0.3048 O   0  0  0  0  0  0  0  0  0  0  0  0
    0.4835   -7.7502    1.0048 O   0  0  0  0  0  0  0  0  0  0  0  0
    2.1540  -13.4108    2.2879 C   0  0  0  0  0  0  0  0  0  0  0  0
    1.0707  -14.1488    1.7895 N   0  0  0  0  0  0  0  0  0  0  0  0
    1.2717  -15.2644    1.3790 C   0  0  0  0  0  0  0  0  0  0  0  0
    2.2010  -16.0235    1.9179 C   0  0  0  0  0  0  0  0  0  0  0  0
    2.3562  -17.4733    1.9447 C   0  0  0  0  0  0  0  0  0  0  0  0
    1.4572  -18.0560    1.1546 C   0  0  0  0  0  0  0  0  0  0  0  0
    0.5546  -17.4764    0.4964 C   0  0  0  0  0  0  0  0  0  0  0  0
  1  2  1  0
  7  8  1  0
  8  9  1  0
  8 10  2  0
  5 11  1  0
 11 12  1  0
 12 13  1  0
 13 14  1  0
 14 15  2  3
 15 16  1  0
 16 17  2  0
  2  3  2  0
  3  4  1  0
  4  5  2  0
  5  6  1  0
  6  7  2  0
  2  7  1  0
M  END

$$$$
No_2202-/export/home/yangzhenyu/potential_scad_32_flow//YTHDC2/2024-12-06-03-22-00/
     RDKit          3D

 18 19  0  0  0  0  0  0  0  0999 V2000
    1.1787   -8.0297    3.5154 N   0  0  0  0  0  0  0  0  0  0  0  0
    1.0818   -9.0751    3.2053 C   0  0  0  0  0  0  0  0  0  0  0  0
    1.5216  -10.1164    3.9747 C   0  0  0  0  0  0  0  0  0  0  0  0
    1.4420  -11.4363    3.6461 C   0  0  0  0  0  0  0  0  0  0  0  0
    0.5969  -11.7648    2.6785 C   0  0  0  0  0  0  0  0  0  0  0  0
    0.0342  -10.7440    2.0899 C   0  0  0  0  0  0  0  0  0  0  0  0
    0.2724   -9.5056    2.2113 C   0  0  0  0  0  0  0  0  0  0  0  0
    0.8736   -6.9127    2.6458 C   0  0  0  0  0  0  0  0  0  0  0  0
    0.3724   -7.2182    1.4910 I   0  0  0  0  0  0  0  0  0  0  0  0
    1.5228   -5.5983    3.2648 C   0  0  0  0  0  0  0  0  0  0  0  0
    0.3196  -13.1717    2.5041 C   0  0  0  0  0  0  0  0  0  0  0  0
    1.1929  -14.1365    2.8806 C   0  0  0  0  0  0  0  0  0  0  0  0
    0.7616  -15.4770    2.8638 C   0  0  0  0  0  0  0  0  0  0  0  0
   -0.2829  -15.8255    2.2967 C   0  0  0  0  0  0  0  0  0  0  0  0
   -1.0909  -14.9575    1.6694 C   0  0  0  0  0  0  0  0  0  0  0  0
   -0.7639  -13.5998    1.8156 C   0  0  0  0  0  0  0  0  0  0  0  0
   -0.6407  -17.3476    2.0181 O   0  0  0  0  0  0  0  0  0  0  0  0
    1.3118   -4.4292    2.6864 N   0  0  0  0  0  0  0  0  0  0  0  0
  1  2  1  0
  1  8  2  3
  8  9  1  0
  8 10  1  0
  5 11  1  0
 14 17  1  0
 10 18  1  0
 11 12  2  0
 12 13  1  0
 13 14  2  0
 14 15  1  0
 15 16  2  0
 11 16  1  0
  2  3  2  0
  3  4  1  0
  4  5  2  0
  5  6  1  0
  6  7  2  0
  2  7  1  0
M  END

$$$$
No_2203-/export/home/yangzhenyu/potential_scad_32_flow//YTHDC2/2024-12-06-03-22-00/
     RDKit          3D

 18 19  0  0  0  0  0  0  0  0999 V2000
    1.1787   -8.0297    3.5154 C   0  0  0  0  0  0  0  0  0  0  0  0
    1.0491   -6.8434    2.9820 C   0  0  0  0  0  0  0  0  0  0  0  0
    0.0950   -8.8404    3.2292 C   0  0  0  0  0  0  0  0  0  0  0  0
   -0.9173   -8.4596    2.5152 C   0  0  0  0  0  0  0  0  0  0  0  0
   -1.0331   -7.2162    2.0653 C   0  0  0  0  0  0  0  0  0  0  0  0
   -0.0105   -6.3168    2.3081 C   0  0  0  0  0  0  0  0  0  0  0  0
    0.1465  -10.2446    3.6981 O   0  0  0  0  0  0  0  0  0  0  0  0
    0.0362   -4.9528    1.9186 C   0  0  0  0  0  0  0  0  0  0  0  0
   -0.5014   -4.6491    0.7648 C   0  0  0  0  0  0  0  0  0  0  0  0
   -1.2540   -5.1515    0.1790 C   0  0  0  0  0  0  0  0  0  0  0  0
   -2.0314   -4.6844   -0.9635 C   0  0  0  0  0  0  0  0  0  0  0  0
   -2.0619   -3.2871   -1.1216 C   0  0  0  0  0  0  0  0  0  0  0  0
   -1.1263   -2.5069   -0.3870 C   0  0  0  0  0  0  0  0  0  0  0  0
   -0.3739   -3.0498    0.6041 C   0  0  0  0  0  0  0  0  0  0  0  0
    1.2638  -10.9059    4.0021 C   0  0  0  0  0  0  0  0  0  0  0  0
    1.0687  -12.3102    3.7592 C   0  0  0  0  0  0  0  0  0  0  0  0
    0.1028  -12.4946    2.7476 O   0  0  0  0  0  0  0  0  0  0  0  0
    0.7976  -12.8548    1.5697 C   0  0  0  0  0  0  0  0  0  0  0  0
  3  7  1  0
  6  8  1  0
  8  9  1  0
  7 15  1  0
 15 16  1  0
 16 17  1  0
 17 18  1  0
  1  2  2  0
  2  6  1  0
  5  6  2  0
  4  5  1  0
  3  4  2  0
  1  3  1  0
  9 10  2  0
 10 11  1  0
 11 12  2  0
 12 13  1  0
 13 14  2  0
  9 14  1  0
M  END

$$$$
No_2204-/export/home/yangzhenyu/potential_scad_32_flow//YTHDC2/2024-12-06-03-22-00/
     RDKit          3D

 18 20  0  0  0  0  0  0  0  0999 V2000
    1.1787   -8.0297    3.5154 C   0  0  0  0  0  0  0  0  0  0  0  0
    1.0491   -6.8434    2.9820 C   0  0  0  0  0  0  0  0  0  0  0  0
    0.0950   -8.8404    3.2292 C   0  0  0  0  0  0  0  0  0  0  0  0
   -0.7663   -8.2602    2.4375 C   0  0  0  0  0  0  0  0  0  0  0  0
   -0.3589   -6.8665    2.1913 C   0  0  0  0  0  0  0  0  0  0  0  0
    0.1065  -10.2381    3.6126 C   0  0  0  0  0  0  0  0  0  0  0  0
   -1.1911  -10.7747    3.7647 C   0  0  0  0  0  0  0  0  0  0  0  0
   -2.2107  -10.1974    2.9844 C   0  0  0  0  0  0  0  0  0  0  0  0
   -2.0114   -8.8646    2.4814 C   0  0  0  0  0  0  0  0  0  0  0  0
   -3.4571  -10.7180    2.9620 C   0  0  0  0  0  0  0  0  0  0  0  0
   -3.5746  -12.0817    2.6335 C   0  0  0  0  0  0  0  0  0  0  0  0
   -4.9121  -12.6526    2.8897 C   0  0  0  0  0  0  0  0  0  0  0  0
   -5.9409  -11.8199    3.2559 C   0  0  0  0  0  0  0  0  0  0  0  0
   -5.7742  -10.5424    3.5120 C   0  0  0  0  0  0  0  0  0  0  0  0
   -4.5094   -9.9224    3.3652 C   0  0  0  0  0  0  0  0  0  0  0  0
   -0.8312   -5.8454    1.4899 C   0  0  0  0  0  0  0  0  0  0  0  0
   -1.2777   -6.1240    0.2139 C   0  0  0  0  0  0  0  0  0  0  0  0
   -1.0556   -7.1728   -0.4780 C   0  0  0  0  0  0  0  0  0  0  0  0
  1  2  1  0
  2  5  2  0
  4  5  1  0
  8 10  1  0
  5 16  1  0
 16 17  1  0
 17 18  2  0
  1  3  1  0
 10 11  2  0
 11 12  1  0
 12 13  2  0
 13 14  1  0
 14 15  2  0
 10 15  1  0
  3  4  2  0
  4  9  1  0
  8  9  2  0
  7  8  1  0
  6  7  2  0
  3  6  1  0
M  END

$$$$
No_2205-/export/home/yangzhenyu/potential_scad_32_flow//YTHDC2/2024-12-06-03-22-00/
     RDKit          3D

 18 19  0  0  1  0  0  0  0  0999 V2000
    1.1787   -8.0297    3.5154 C   0  0  0  0  0  0  0  0  0  0  0  0
    1.0491   -6.8434    2.9820 C   0  0  0  0  0  0  0  0  0  0  0  0
    0.0950   -8.8404    3.2292 C   0  0  0  0  0  0  0  0  0  0  0  0
   -0.9173   -8.4596    2.5152 C   0  0  1  0  0  0  0  0  0  0  0  0
   -1.9974   -9.4009    2.4255 C   0  0  0  0  0  0  0  0  0  0  0  0
   -0.0636   -6.2856    2.3823 C   0  0  2  0  0  0  0  0  0  0  0  0
   -1.0542   -7.1300    2.2275 C   0  0  0  0  0  0  0  0  0  0  0  0
   -3.2038   -9.1712    2.8920 C   0  0  0  0  0  0  0  0  0  0  0  0
   -3.7117  -10.1990    3.5974 C   0  0  0  0  0  0  0  0  0  0  0  0
   -3.4207  -11.5036    3.3485 C   0  0  0  0  0  0  0  0  0  0  0  0
   -2.2400  -11.8328    2.7276 C   0  0  0  0  0  0  0  0  0  0  0  0
   -1.4541  -10.7682    2.2849 C   0  0  0  0  0  0  0  0  0  0  0  0
   -0.1337   -4.9963    1.8799 C   0  0  0  0  0  0  0  0  0  0  0  0
   -0.6692   -4.1440    2.1534 C   0  0  0  0  0  0  0  0  0  0  0  0
   -0.6535   -2.7283    1.6729 C   0  0  0  0  0  0  0  0  0  0  0  0
   -2.1402   -6.7350    1.3576 O   0  0  0  0  0  0  0  0  0  0  0  0
   -1.7618  -13.0890    2.5836 C   0  0  0  0  0  0  0  0  0  0  0  0
   -0.4084  -13.4658    2.5593 C   0  0  0  0  0  0  0  0  0  0  0  0
  1  2  1  0
  3  4  1  0
  4  5  1  1
  4  7  1  0
  6  7  1  0
  6 13  1  0
 13 14  2  3
 14 15  1  0
  7 16  2  0
 11 17  1  0
 17 18  2  0
  1  3  1  0
  6  2  1  6
  5  8  2  0
  8  9  1  0
  9 10  2  0
 10 11  1  0
 11 12  2  0
  5 12  1  0
M  END

$$$$
No_2206-/export/home/yangzhenyu/potential_scad_32_flow//YTHDC2/2024-12-06-03-22-00/
     RDKit          3D

 17 17  0  0  1  0  0  0  0  0999 V2000
    1.1787   -8.0297    3.5154 C   0  0  0  0  0  0  0  0  0  0  0  0
    1.0491   -6.8434    2.9820 C   0  0  0  0  0  0  0  0  0  0  0  0
    1.0690   -9.1150    2.7206 C   0  0  0  0  0  0  0  0  0  0  0  0
    0.9922   -6.9198    1.5405 C   0  0  0  0  0  0  0  0  0  0  0  0
    1.0882   -9.1996    1.4643 C   0  0  0  0  0  0  0  0  0  0  0  0
    1.0023   -8.0062    0.7959 C   0  0  0  0  0  0  0  0  0  0  0  0
    1.2569  -10.6350    3.5804 C   0  0  0  0  0  0  0  0  0  0  0  0
    1.4681  -11.6848    2.8661 N   0  0  0  0  0  0  0  0  0  0  0  0
    1.5765  -12.8184    3.5802 C   0  0  0  0  0  0  0  0  0  0  0  0
    1.6155  -14.0732    2.6914 C   0  0  2  0  0  0  0  0  0  0  0  0
    2.1317  -13.9688    1.4083 C   0  0  0  0  0  0  0  0  0  0  0  0
    0.3872  -14.9015    2.6687 C   0  0  0  0  0  0  0  0  0  0  0  0
    0.5465  -16.0731    3.3166 N   0  0  0  0  0  0  0  0  0  0  0  0
    1.7678  -16.6674    3.5278 O   0  0  0  0  0  0  0  0  0  0  0  0
    1.0760  -10.3103    0.6096 C   0  0  0  0  0  0  0  0  0  0  0  0
    2.1410  -10.7326    0.2017 O   0  0  0  0  0  0  0  0  0  0  0  0
   -0.0813  -10.9602    0.4244 O   0  0  0  0  0  0  0  0  0  0  0  0
  3  7  1  0
  7  8  2  3
  8  9  1  0
  9 10  1  0
 10 11  1  6
 10 12  1  0
 12 13  1  0
 13 14  2  0
  5 15  1  0
 15 16  2  0
 15 17  1  0
  1  2  2  0
  2  4  1  0
  4  6  2  0
  5  6  1  0
  3  5  2  0
  1  3  1  0
M  END

$$$$
No_2207-/export/home/yangzhenyu/potential_scad_32_flow//YTHDC2/2024-12-06-03-22-00/
     RDKit          3D

 18 20  0  0  0  0  0  0  0  0999 V2000
    1.1787   -8.0297    3.5154 C   0  0  0  0  0  0  0  0  0  0  0  0
    1.1048   -9.2215    3.2892 C   0  0  0  0  0  0  0  0  0  0  0  0
    1.3627  -10.1721    4.3044 C   0  0  0  0  0  0  0  0  0  0  0  0
    1.0682  -11.5187    4.0618 C   0  0  0  0  0  0  0  0  0  0  0  0
    0.6332  -11.9655    2.9682 C   0  0  0  0  0  0  0  0  0  0  0  0
    0.4776  -11.1308    1.9203 N   0  0  0  0  0  0  0  0  0  0  0  0
    0.7538   -9.8638    2.0376 C   0  0  0  0  0  0  0  0  0  0  0  0
    1.0189   -7.0491    2.4282 C   0  0  0  0  0  0  0  0  0  0  0  0
    0.8608   -7.5942    1.1378 C   0  0  0  0  0  0  0  0  0  0  0  0
    0.7325   -8.9278    0.9186 C   0  0  0  0  0  0  0  0  0  0  0  0
    0.3696  -13.4841    2.6734 C   0  0  0  0  0  0  0  0  0  0  0  0
   -0.7564  -13.7906    2.2637 C   0  0  0  0  0  0  0  0  0  0  0  0
    1.4631  -14.2922    2.7159 C   0  0  0  0  0  0  0  0  0  0  0  0
   -0.9679  -15.0954    1.8975 C   0  0  0  0  0  0  0  0  0  0  0  0
    0.0928  -16.0631    2.0268 C   0  0  0  0  0  0  0  0  0  0  0  0
    1.3270  -15.6481    2.4077 C   0  0  0  0  0  0  0  0  0  0  0  0
    0.4843   -9.3688   -0.3156 C   0  0  0  0  0  0  0  0  0  0  0  0
    1.1121   -9.1127   -1.3624 O   0  0  0  0  0  0  0  0  0  0  0  0
  5 11  1  0
 10 17  1  0
 17 18  2  0
  2  3  1  0
  3  4  2  0
  4  5  1  0
  5  6  2  0
  6  7  1  0
 11 12  2  0
 12 14  1  0
 14 15  2  0
 15 16  1  0
 13 16  2  0
 11 13  1  0
  1  2  2  0
  2  7  1  0
  7 10  2  0
  9 10  1  0
  8  9  2  0
  1  8  1  0
M  END

$$$$
No_2208-/export/home/yangzhenyu/potential_scad_32_flow//YTHDC2/2024-12-06-03-22-00/
     RDKit          3D

 17 18  0  0  0  0  0  0  0  0999 V2000
    1.1787   -8.0297    3.5154 C   0  0  0  0  0  0  0  0  0  0  0  0
    1.0491   -6.8434    2.9820 C   0  0  0  0  0  0  0  0  0  0  0  0
    0.9905   -9.0774    2.6527 C   0  0  0  0  0  0  0  0  0  0  0  0
    0.7897   -8.9519    1.3691 C   0  0  0  0  0  0  0  0  0  0  0  0
    0.7018   -7.7198    0.7892 C   0  0  0  0  0  0  0  0  0  0  0  0
    0.8918   -6.5957    1.6117 C   0  0  0  0  0  0  0  0  0  0  0  0
    1.0600  -10.5680    3.3321 C   0  0  0  0  0  0  0  0  0  0  0  0
   -0.1041  -11.1772    3.5150 C   0  0  0  0  0  0  0  0  0  0  0  0
   -0.1608  -12.4876    3.3268 C   0  0  0  0  0  0  0  0  0  0  0  0
    0.9865  -13.2841    3.1741 C   0  0  0  0  0  0  0  0  0  0  0  0
    2.2316  -12.5817    3.0045 C   0  0  0  0  0  0  0  0  0  0  0  0
    2.2290  -11.2587    2.9229 C   0  0  0  0  0  0  0  0  0  0  0  0
    0.9652  -14.6598    3.2128 O   0  0  0  0  0  0  0  0  0  0  0  0
    0.8565   -5.2742    1.1203 O   0  0  0  0  0  0  0  0  0  0  0  0
    1.9404  -15.3633    2.6270 C   0  0  0  0  0  0  0  0  0  0  0  0
    0.5941   -9.9900    0.3629 C   0  0  0  0  0  0  0  0  0  0  0  0
   -0.5997  -10.4798    0.2649 O   0  0  0  0  0  0  0  0  0  0  0  0
  1  2  1  0
  3  4  1  0
  2  6  1  0
  5  6  1  0
  3  7  1  0
 10 13  1  0
  6 14  2  0
 13 15  1  0
  4 16  1  0
 16 17  2  0
  1  3  1  0
  4  5  1  0
  7  8  2  0
  8  9  1  0
  9 10  2  0
 10 11  1  0
 11 12  2  0
  7 12  1  0
M  END

$$$$
No_2209-/export/home/yangzhenyu/potential_scad_32_flow//YTHDC2/2024-12-06-03-22-00/
     RDKit          3D

 18 19  0  0  1  0  0  0  0  0999 V2000
    1.1787   -8.0297    3.5154 C   0  0  0  0  0  0  0  0  0  0  0  0
    1.1048   -9.2215    3.2892 C   0  0  0  0  0  0  0  0  0  0  0  0
    1.3627  -10.1721    4.3044 C   0  0  0  0  0  0  0  0  0  0  0  0
    1.0682  -11.5187    4.0618 C   0  0  0  0  0  0  0  0  0  0  0  0
    0.6332  -11.9655    2.9682 C   0  0  0  0  0  0  0  0  0  0  0  0
    0.4776  -11.1308    1.9203 C   0  0  0  0  0  0  0  0  0  0  0  0
    0.7470   -9.8274    2.0368 C   0  0  0  0  0  0  0  0  0  0  0  0
    1.0387   -7.0301    2.5175 C   0  0  2  0  0  0  0  0  0  0  0  0
    0.9130   -7.5288    1.2013 C   0  0  0  0  0  0  0  0  0  0  0  0
    0.7893   -8.7979    0.9542 C   0  0  2  0  0  0  0  0  0  0  0  0
    0.5241   -9.2578   -0.2817 C   0  0  0  0  0  0  0  0  0  0  0  0
   -0.7560   -9.7391   -0.6285 O   0  0  0  0  0  0  0  0  0  0  0  0
    1.1160   -8.6749   -1.3392 O   0  0  0  0  0  0  0  0  0  0  0  0
    0.5047  -13.3701    2.6851 C   0  0  0  0  0  0  0  0  0  0  0  0
   -0.6394  -13.9965    2.4164 O   0  0  0  0  0  0  0  0  0  0  0  0
    1.6080  -14.2323    2.9082 O   0  0  0  0  0  0  0  0  0  0  0  0
    1.3121   -5.6062    2.7086 Cl  0  0  0  0  0  0  0  0  0  0  0  0
    0.8641   -6.6851    0.2835 O   0  0  0  0  0  0  0  0  0  0  0  0
  1  2  1  0
  8  9  1  0
  7 10  1  0
  9 10  1  0
 10 11  1  1
 11 12  2  0
 11 13  1  0
  5 14  1  0
 14 15  1  0
 14 16  2  0
  8 17  1  6
  9 18  2  0
  1  8  1  0
  2  3  2  0
  3  4  1  0
  4  5  2  0
  5  6  1  0
  6  7  2  0
  2  7  1  0
M  END

$$$$
No_2210-/export/home/yangzhenyu/potential_scad_32_flow//YTHDC2/2024-12-06-03-22-00/
     RDKit          3D

 19 19  0  0  1  0  0  0  0  0999 V2000
    1.1787   -8.0297    3.5154 O   0  0  0  0  0  0  0  0  0  0  0  0
    0.6747   -7.4019    2.7838 C   0  0  0  0  0  0  0  0  0  0  0  0
    0.7594   -8.0032    1.4295 C   0  0  0  0  0  0  0  0  0  0  0  0
    0.3459   -9.1500    1.3581 C   0  0  0  0  0  0  0  0  0  0  0  0
   -0.4155   -9.6726    2.0241 C   0  0  0  0  0  0  0  0  0  0  0  0
   -0.3639  -10.4103    2.7363 C   0  0  2  0  0  0  0  0  0  0  0  0
   -1.0606  -10.7879    3.8954 C   0  0  0  0  0  0  0  0  0  0  0  0
    1.4589   -7.1231    0.5468 C   0  0  0  0  0  0  0  0  0  0  0  0
    0.9674  -11.3761    2.8261 C   0  0  2  0  0  0  0  0  0  0  0  0
    1.9781  -11.0931    2.3882 C   0  0  0  0  0  0  0  0  0  0  0  0
    0.7764  -12.7144    3.2015 C   0  0  0  0  0  0  0  0  0  0  0  0
    1.3391  -13.6741    2.4503 C   0  0  0  0  0  0  0  0  0  0  0  0
    0.8660  -14.6520    2.0416 O   0  0  0  0  0  0  0  0  0  0  0  0
    2.3615  -13.2211    1.6128 O   0  0  0  0  0  0  0  0  0  0  0  0
    1.6755   -5.9217    0.8798 C   0  0  0  0  0  0  0  0  0  0  0  0
    1.6161   -5.4084    2.1872 C   0  0  0  0  0  0  0  0  0  0  0  0
    1.0618   -6.2064    3.1497 C   0  0  0  0  0  0  0  0  0  0  0  0
    1.8105   -4.0079    2.4824 C   0  0  0  0  0  0  0  0  0  0  0  0
    3.0988  -10.8930    2.6952 O   0  0  0  0  0  0  0  0  0  0  0  0
  1  2  1  0
  3  4  1  0
  4  5  2  3
  5  6  1  0
  6  7  1  1
  6  9  1  0
  9 10  1  0
  9 11  1  6
 11 12  1  0
 12 13  2  0
 12 14  1  0
 16 18  1  0
 10 19  2  0
  2  3  2  0
  3  8  1  0
  8 15  2  0
 15 16  1  0
 16 17  2  0
  2 17  1  0
M  END

$$$$
No_2211-/export/home/yangzhenyu/potential_scad_32_flow//YTHDC2/2024-12-06-03-22-00/
     RDKit          3D

 18 19  0  0  0  0  0  0  0  0999 V2000
    1.1787   -8.0297    3.5154 C   0  0  0  0  0  0  0  0  0  0  0  0
    1.1048   -9.2215    3.2892 C   0  0  0  0  0  0  0  0  0  0  0  0
    1.2339   -9.7611    2.0189 C   0  0  0  0  0  0  0  0  0  0  0  0
    1.3583   -9.0036    0.9764 C   0  0  0  0  0  0  0  0  0  0  0  0
    1.5996   -7.6362    1.1311 C   0  0  0  0  0  0  0  0  0  0  0  0
    1.4830   -7.0928    2.3626 C   0  0  0  0  0  0  0  0  0  0  0  0
    1.1008  -11.2372    1.8542 C   0  0  0  0  0  0  0  0  0  0  0  0
    1.9749  -12.0938    2.2342 C   0  0  0  0  0  0  0  0  0  0  0  0
    1.5180  -13.3509    2.5910 C   0  0  0  0  0  0  0  0  0  0  0  0
    0.4120  -13.9272    2.2191 C   0  0  0  0  0  0  0  0  0  0  0  0
   -0.5860  -13.0563    1.8308 C   0  0  0  0  0  0  0  0  0  0  0  0
   -0.2264  -11.7453    1.4928 C   0  0  0  0  0  0  0  0  0  0  0  0
    1.5759   -5.6593    2.6277 Br  0  0  0  0  0  0  0  0  0  0  0  0
    0.0981  -15.2161    2.5396 N   0  0  0  0  0  0  0  0  0  0  0  0
   -1.0615  -15.7830    2.3955 C   0  0  0  0  0  0  0  0  0  0  0  0
    1.2689  -16.0289    3.1733 C   0  0  0  0  0  0  0  0  0  0  0  0
    0.9354  -17.2899    3.6277 C   0  0  0  0  0  0  0  0  0  0  0  0
    1.8584  -18.1481    3.9123 C   0  0  0  0  0  0  0  0  0  0  0  0
  3  7  1  0
  6 13  1  0
 10 14  1  0
 14 15  1  0
 14 16  1  0
 16 17  1  0
 17 18  2  0
  1  2  2  0
  2  3  1  0
  3  4  2  0
  4  5  1  0
  5  6  2  0
  1  6  1  0
  7  8  2  0
  8  9  1  0
  9 10  2  0
 10 11  1  0
 11 12  2  0
  7 12  1  0
M  END

$$$$
No_2212-/export/home/yangzhenyu/potential_scad_32_flow//YTHDC2/2024-12-06-03-22-00/
     RDKit          3D

 18 19  0  0  1  0  0  0  0  0999 V2000
    1.1787   -8.0297    3.5154 C   0  0  0  0  0  0  0  0  0  0  0  0
    1.1048   -9.2215    3.2892 C   0  0  0  0  0  0  0  0  0  0  0  0
    1.2339   -9.7611    2.0189 C   0  0  0  0  0  0  0  0  0  0  0  0
    1.1954  -11.2312    1.8661 C   0  0  1  0  0  0  0  0  0  0  0  0
    1.5546  -12.1691    2.7931 C   0  0  0  0  0  0  0  0  0  0  0  0
    0.5849   -7.0929    2.5729 C   0  0  0  0  0  0  0  0  0  0  0  0
    0.5651   -5.6716    2.6680 C   0  0  0  0  0  0  0  0  0  0  0  0
   -0.3793   -4.9147    2.1532 C   0  0  0  0  0  0  0  0  0  0  0  0
    1.4401  -13.4971    2.4871 C   0  0  1  0  0  0  0  0  0  0  0  0
    0.9608  -13.9156    1.3075 C   0  0  0  0  0  0  0  0  0  0  0  0
    0.4961  -13.1370    0.4177 C   0  0  0  0  0  0  0  0  0  0  0  0
    0.6370  -11.7378    0.6115 C   0  0  0  0  0  0  0  0  0  0  0  0
   -0.3615   -3.5579    2.2067 C   0  0  0  0  0  0  0  0  0  0  0  0
    0.7167   -2.9561    2.5939 C   0  0  0  0  0  0  0  0  0  0  0  0
    1.8328   -3.6172    3.1010 C   0  0  0  0  0  0  0  0  0  0  0  0
    1.7481   -5.0409    3.1254 C   0  0  0  0  0  0  0  0  0  0  0  0
    0.2816  -10.8932   -0.4060 O   0  0  0  0  0  0  0  0  0  0  0  0
    1.9505  -14.3847    3.4563 C   0  0  0  0  0  0  0  0  0  0  0  0
  1  2  1  0
  2  3  2  3
  3  4  1  0
  4  5  1  1
  1  6  2  3
  6  7  1  0
  9 10  1  0
  4 12  1  0
 11 12  1  0
 12 17  2  0
  9 18  1  6
  5  9  1  0
 10 11  1  0
  7  8  2  0
  8 13  1  0
 13 14  2  0
 14 15  1  0
 15 16  2  0
  7 16  1  0
M  END

$$$$
No_2213-/export/home/yangzhenyu/potential_scad_32_flow//YTHDC2/2024-12-06-03-22-00/
     RDKit          3D

 21 22  0  0  1  0  0  0  0  0999 V2000
    1.1787   -8.0297    3.5154 C   0  0  0  0  0  0  0  0  0  0  0  0
    1.0491   -6.8434    2.9820 C   0  0  0  0  0  0  0  0  0  0  0  0
    1.9985   -8.9840    2.8958 C   0  0  1  0  0  0  0  0  0  0  0  0
    1.9135  -10.3404    3.6266 C   0  0  0  0  0  0  0  0  0  0  0  0
    1.3291  -11.3908    3.0222 C   0  0  0  0  0  0  0  0  0  0  0  0
    1.2749  -12.5326    3.7562 C   0  0  0  0  0  0  0  0  0  0  0  0
    1.2373   -6.5190    1.7857 C   0  0  1  0  0  0  0  0  0  0  0  0
    1.4330   -7.4297    0.8912 C   0  0  0  0  0  0  0  0  0  0  0  0
    1.8894   -8.7773    1.3439 C   0  0  1  0  0  0  0  0  0  0  0  0
    0.7198  -13.7217    3.2045 C   0  0  0  0  0  0  0  0  0  0  0  0
    0.3120  -13.6716    1.9230 C   0  0  0  0  0  0  0  0  0  0  0  0
    0.4711  -12.6301    1.1309 C   0  0  0  0  0  0  0  0  0  0  0  0
    1.0377  -11.4550    1.6430 C   0  0  0  0  0  0  0  0  0  0  0  0
    0.9277   -5.2176    1.3081 C   0  0  0  0  0  0  0  0  0  0  0  0
    1.4666   -4.1071    1.9482 O   0  0  0  0  0  0  0  0  0  0  0  0
    0.2744   -4.8575    0.2985 O   0  0  0  0  0  0  0  0  0  0  0  0
   -0.0317  -14.9835    1.4364 C   0  0  0  0  0  0  0  0  0  0  0  0
   -1.2346  -14.9300    0.7157 C   0  0  0  0  0  0  0  0  0  0  0  0
   -1.6588  -16.1880    0.2049 Br  0  0  0  0  0  0  0  0  0  0  0  0
    2.5079   -9.6411    0.5638 C   0  0  0  0  0  0  0  0  0  0  0  0
    2.8074  -10.5877    0.4414 C   0  0  0  0  0  0  0  0  0  0  0  0
  1  2  1  0
  1  3  1  0
  3  4  1  6
  4  5  1  0
  2  7  1  0
  7  8  1  0
  3  9  1  0
  8  9  1  0
  7 14  1  6
 14 15  2  0
 14 16  1  0
 11 17  1  0
 17 18  2  3
 18 19  1  0
  9 20  1  6
 20 21  2  0
  5  6  2  0
  6 10  1  0
 10 11  2  0
 11 12  1  0
 12 13  2  0
  5 13  1  0
M  END

$$$$
No_2214-/export/home/yangzhenyu/potential_scad_32_flow//YTHDC2/2024-12-06-03-22-00/
     RDKit          3D

 19 20  0  0  0  0  0  0  0  0999 V2000
    1.1787   -8.0297    3.5154 C   0  0  0  0  0  0  0  0  0  0  0  0
    1.1048   -9.2215    3.2892 C   0  0  0  0  0  0  0  0  0  0  0  0
    1.2339   -9.7611    2.0189 C   0  0  0  0  0  0  0  0  0  0  0  0
    1.3583   -9.0036    0.9764 C   0  0  0  0  0  0  0  0  0  0  0  0
    1.5996   -7.6362    1.1311 C   0  0  0  0  0  0  0  0  0  0  0  0
    1.4830   -7.0928    2.3626 C   0  0  0  0  0  0  0  0  0  0  0  0
    1.1171  -11.3311    1.8661 C   0  0  0  0  0  0  0  0  0  0  0  0
    0.5022  -11.6388    0.6531 C   0  0  0  0  0  0  0  0  0  0  0  0
    0.5683  -13.0838    0.5424 C   0  0  0  0  0  0  0  0  0  0  0  0
    1.2665  -13.8887    1.3003 C   0  0  0  0  0  0  0  0  0  0  0  0
    1.9989  -13.3977    2.4029 C   0  0  0  0  0  0  0  0  0  0  0  0
    1.8520  -12.0917    2.7212 C   0  0  0  0  0  0  0  0  0  0  0  0
    2.4204  -11.5469    3.8139 N   0  0  0  0  0  0  0  0  0  0  0  0
    1.5490   -5.6616    2.6395 C   0  0  0  0  0  0  0  0  0  0  0  0
    1.7098   -5.1279    3.7631 N   0  0  0  0  0  0  0  0  0  0  0  0
    1.6551   -4.8535    1.4814 O   0  0  0  0  0  0  0  0  0  0  0  0
    1.5889   -9.4290   -0.3509 C   0  0  0  0  0  0  0  0  0  0  0  0
    1.7815   -8.7788   -1.2364 O   0  0  0  0  0  0  0  0  0  0  0  0
    1.6260  -10.6572   -0.6924 O   0  0  0  0  0  0  0  0  0  0  0  0
  3  7  1  0
  6 14  1  0
 14 15  1  0
 14 16  2  0
  4 17  1  0
 17 18  2  0
 17 19  1  0
 12 13  1  0
  1  2  2  0
  2  3  1  0
  3  4  2  0
  4  5  1  0
  5  6  2  0
  1  6  1  0
  7  8  2  0
  8  9  1  0
  9 10  2  0
 10 11  1  0
 11 12  2  0
  7 12  1  0
M  END

$$$$
No_2215-/export/home/yangzhenyu/potential_scad_32_flow//YTHDC2/2024-12-06-03-22-00/
     RDKit          3D

 18 19  0  0  0  0  0  0  0  0999 V2000
    1.1787   -8.0297    3.5154 C   0  0  0  0  0  0  0  0  0  0  0  0
    1.1048   -9.2215    3.2892 C   0  0  0  0  0  0  0  0  0  0  0  0
    1.3627  -10.1721    4.3044 C   0  0  0  0  0  0  0  0  0  0  0  0
    1.0682  -11.5187    4.0618 C   0  0  0  0  0  0  0  0  0  0  0  0
    0.6332  -11.9655    2.9682 C   0  0  0  0  0  0  0  0  0  0  0  0
    0.4776  -11.1308    1.9203 C   0  0  0  0  0  0  0  0  0  0  0  0
    0.7470   -9.8274    2.0368 C   0  0  0  0  0  0  0  0  0  0  0  0
    1.0387   -7.0301    2.5175 C   0  0  0  0  0  0  0  0  0  0  0  0
    0.9130   -7.5288    1.2013 C   0  0  0  0  0  0  0  0  0  0  0  0
    0.7893   -8.7979    0.9542 C   0  0  0  0  0  0  0  0  0  0  0  0
    0.5241   -9.2578   -0.2817 C   0  0  0  0  0  0  0  0  0  0  0  0
   -0.1121   -8.6523   -1.0898 N   0  0  0  0  0  0  0  0  0  0  0  0
    0.4971  -13.3750    2.6833 C   0  0  0  0  0  0  0  0  0  0  0  0
    0.9358  -14.0643    1.7007 C   0  0  0  0  0  0  0  0  0  0  0  0
    0.3375  -14.6448    0.9104 C   0  0  0  0  0  0  0  0  0  0  0  0
    0.8509  -15.2759   -0.3183 C   0  0  0  0  0  0  0  0  0  0  0  0
    2.0357  -15.3419   -0.4786 C   0  0  0  0  0  0  0  0  0  0  0  0
    2.4902  -14.1396    1.4555 C   0  0  0  0  0  0  0  0  0  0  0  0
 10 11  1  0
 11 12  1  0
  5 13  1  0
 13 14  1  0
 14 15  2  3
 15 16  1  0
 16 17  2  0
 14 18  1  0
  2  3  1  0
  3  4  2  0
  4  5  1  0
  5  6  2  0
  6  7  1  0
  1  2  2  0
  2  7  1  0
  7 10  2  0
  9 10  1  0
  8  9  2  0
  1  8  1  0
M  END

$$$$
No_2216-/export/home/yangzhenyu/potential_scad_32_flow//YTHDC2/2024-12-06-03-22-00/
     RDKit          3D

 17 18  0  0  0  0  0  0  0  0999 V2000
    1.1787   -8.0297    3.5154 C   0  0  0  0  0  0  0  0  0  0  0  0
    1.0491   -6.8434    2.9820 C   0  0  0  0  0  0  0  0  0  0  0  0
    0.2462   -8.9560    3.0873 C   0  0  0  0  0  0  0  0  0  0  0  0
    0.2723   -6.7528    1.8763 C   0  0  0  0  0  0  0  0  0  0  0  0
   -0.4754   -8.8523    2.1736 C   0  0  0  0  0  0  0  0  0  0  0  0
   -0.5459   -7.6879    1.4917 C   0  0  0  0  0  0  0  0  0  0  0  0
    0.4063  -10.3474    3.8079 C   0  0  0  0  0  0  0  0  0  0  0  0
   -0.7994  -11.0676    3.8709 C   0  0  0  0  0  0  0  0  0  0  0  0
   -1.7383  -10.8690    2.9204 C   0  0  0  0  0  0  0  0  0  0  0  0
   -1.6335   -9.7584    2.0355 C   0  0  0  0  0  0  0  0  0  0  0  0
   -2.7830  -11.7216    2.7326 C   0  0  0  0  0  0  0  0  0  0  0  0
    0.3561   -5.4767    1.1211 C   0  0  0  0  0  0  0  0  0  0  0  0
   -0.3973   -4.3361    1.6924 O   0  0  0  0  0  0  0  0  0  0  0  0
   -2.5529  -13.0525    2.3979 C   0  0  0  0  0  0  0  0  0  0  0  0
   -3.6595  -13.9274    2.4215 C   0  0  0  0  0  0  0  0  0  0  0  0
   -4.9266  -13.4708    2.7940 C   0  0  0  0  0  0  0  0  0  0  0  0
   -5.1446  -12.2391    3.2759 C   0  0  0  0  0  0  0  0  0  0  0  0
  9 11  1  0
  4 12  1  0
 12 13  1  0
 11 14  2  3
 14 15  1  0
 15 16  2  3
 16 17  1  0
  5 10  2  0
  9 10  1  0
  8  9  2  0
  7  8  1  0
  3  7  2  0
  1  2  2  0
  2  4  1  0
  4  6  2  0
  5  6  1  0
  3  5  1  0
  1  3  1  0
M  END

$$$$
No_2217-/export/home/yangzhenyu/potential_scad_32_flow//YTHDC2/2024-12-06-03-22-00/
     RDKit          3D

 18 19  0  0  0  0  0  0  0  0999 V2000
    1.1787   -8.0297    3.5154 C   0  0  0  0  0  0  0  0  0  0  0  0
    1.1048   -9.2215    3.2892 C   0  0  0  0  0  0  0  0  0  0  0  0
    1.3627  -10.1721    4.3044 C   0  0  0  0  0  0  0  0  0  0  0  0
    1.0682  -11.5187    4.0618 C   0  0  0  0  0  0  0  0  0  0  0  0
    0.6332  -11.9655    2.9682 C   0  0  0  0  0  0  0  0  0  0  0  0
    0.4776  -11.1308    1.9203 C   0  0  0  0  0  0  0  0  0  0  0  0
    0.7470   -9.8274    2.0368 C   0  0  0  0  0  0  0  0  0  0  0  0
    1.0387   -7.0301    2.5175 C   0  0  0  0  0  0  0  0  0  0  0  0
    0.9130   -7.5288    1.2013 C   0  0  0  0  0  0  0  0  0  0  0  0
    0.7893   -8.7979    0.9542 C   0  0  0  0  0  0  0  0  0  0  0  0
    1.3508   -9.2321   -0.2427 C   0  0  0  0  0  0  0  0  0  0  0  0
    0.8015   -8.9923   -1.3673 O   0  0  0  0  0  0  0  0  0  0  0  0
    2.5972   -9.6203   -0.3697 O   0  0  0  0  0  0  0  0  0  0  0  0
    0.4921  -13.3778    2.7127 C   0  0  0  0  0  0  0  0  0  0  0  0
    1.4399  -14.3414    3.2552 C   0  0  0  0  0  0  0  0  0  0  0  0
    1.5629  -15.5643    2.6456 C   0  0  0  0  0  0  0  0  0  0  0  0
    2.6317  -15.7855    1.9739 C   0  0  0  0  0  0  0  0  0  0  0  0
    2.8478  -17.2745    1.8145 C   0  0  0  0  0  0  0  0  0  0  0  0
 10 11  1  0
 11 12  1  0
 11 13  2  0
  5 14  1  0
 14 15  1  0
 15 16  1  0
 16 17  1  0
 17 18  2  0
  2  3  1  0
  3  4  2  0
  4  5  1  0
  5  6  2  0
  6  7  1  0
  1  2  2  0
  2  7  1  0
  7 10  2  0
  9 10  1  0
  8  9  2  0
  1  8  1  0
M  END

$$$$
No_2218-/export/home/yangzhenyu/potential_scad_32_flow//YTHDC2/2024-12-06-03-22-00/
     RDKit          3D

 20 20  0  0  1  0  0  0  0  0999 V2000
    1.1787   -8.0297    3.5154 C   0  0  0  0  0  0  0  0  0  0  0  0
    1.1048   -9.2215    3.2892 C   0  0  0  0  0  0  0  0  0  0  0  0
    1.2339   -9.7611    2.0189 C   0  0  0  0  0  0  0  0  0  0  0  0
    1.3583   -9.0036    0.9764 C   0  0  0  0  0  0  0  0  0  0  0  0
    1.5996   -7.6362    1.1311 C   0  0  0  0  0  0  0  0  0  0  0  0
    1.4830   -7.0928    2.3626 C   0  0  0  0  0  0  0  0  0  0  0  0
    1.4898   -5.7274    2.6199 C   0  0  0  0  0  0  0  0  0  0  0  0
    1.1681  -11.2222    1.8390 C   0  0  0  0  0  0  0  0  0  0  0  0
    0.5014  -11.9760    2.2068 C   0  0  0  0  0  0  0  0  0  0  0  0
    0.4167  -13.3685    2.0527 C   0  0  2  0  0  0  0  0  0  0  0  0
   -0.6161  -14.0718    1.8701 C   0  0  0  0  0  0  0  0  0  0  0  0
   -0.5561  -15.5453    1.8466 N   0  0  0  0  0  0  0  0  0  0  0  0
    1.7113  -14.1487    2.4013 C   0  0  0  0  0  0  0  0  0  0  0  0
    2.7971  -13.5665    2.7013 C   0  0  0  0  0  0  0  0  0  0  0  0
   -1.8801  -13.5695    1.7732 C   0  0  0  0  0  0  0  0  0  0  0  0
   -2.2117  -12.4965    1.3528 C   0  0  0  0  0  0  0  0  0  0  0  0
   -3.4927  -11.9644    1.4145 C   0  0  0  0  0  0  0  0  0  0  0  0
    1.2778  -15.2202    3.1654 O   0  0  0  0  0  0  0  0  0  0  0  0
    1.2510   -4.8512    1.6195 O   0  0  0  0  0  0  0  0  0  0  0  0
    0.3322  -16.0162    1.9432 H   0  0  0  0  0  0  0  0  0  0  0  0
  6  7  1  0
  3  8  1  0
  8  9  2  3
  9 10  1  0
 10 11  1  0
 11 12  2  0
 10 13  1  1
 13 14  1  0
 11 15  1  0
 15 16  2  3
 16 17  1  0
 13 18  2  0
  7 19  2  0
  1  2  2  0
  2  3  1  0
  3  4  2  0
  4  5  1  0
  5  6  2  0
  1  6  1  0
 12 20  1  0
M  END

$$$$
No_2219-/export/home/yangzhenyu/potential_scad_32_flow//YTHDC2/2024-12-06-03-22-00/
     RDKit          3D

 17 18  0  0  1  0  0  0  0  0999 V2000
    1.1787   -8.0297    3.5154 C   0  0  0  0  0  0  0  0  0  0  0  0
    1.1048   -9.2215    3.2892 C   0  0  0  0  0  0  0  0  0  0  0  0
    1.2339   -9.7611    2.0189 C   0  0  0  0  0  0  0  0  0  0  0  0
    1.3583   -9.0036    0.9764 C   0  0  0  0  0  0  0  0  0  0  0  0
    1.5996   -7.6362    1.1311 C   0  0  0  0  0  0  0  0  0  0  0  0
    1.4830   -7.0928    2.3626 C   0  0  0  0  0  0  0  0  0  0  0  0
    1.1008  -11.2372    1.8542 C   0  0  1  0  0  0  0  0  0  0  0  0
    0.4812  -11.6084    0.6459 C   0  0  0  0  0  0  0  0  0  0  0  0
   -0.3691  -10.9312    0.0124 C   0  0  0  0  0  0  0  0  0  0  0  0
   -1.0102  -11.3797   -1.1447 C   0  0  0  0  0  0  0  0  0  0  0  0
   -1.7633  -10.5197   -1.9537 C   0  0  0  0  0  0  0  0  0  0  0  0
   -1.9770   -9.1740   -1.3689 C   0  0  0  0  0  0  0  0  0  0  0  0
   -1.3247   -8.7110   -0.3076 C   0  0  0  0  0  0  0  0  0  0  0  0
   -0.5493   -9.5562    0.4453 C   0  0  0  0  0  0  0  0  0  0  0  0
    1.4672   -5.6529    2.6249 Br  0  0  0  0  0  0  0  0  0  0  0  0
    1.9798  -12.0663    2.4897 C   0  0  0  0  0  0  0  0  0  0  0  0
    1.8252  -13.4054    2.2916 C   0  0  0  0  0  0  0  0  0  0  0  0
  3  7  1  0
  7  8  1  6
  6 15  1  0
  7 16  1  0
 16 17  2  0
  8  9  1  0
  1  2  2  0
  2  3  1  0
  3  4  2  0
  4  5  1  0
  5  6  2  0
  1  6  1  0
  9 10  2  0
 10 11  1  0
 11 12  2  0
 12 13  1  0
 13 14  2  0
  9 14  1  0
M  END

$$$$
No_2220-/export/home/yangzhenyu/potential_scad_32_flow//YTHDC2/2024-12-06-03-22-00/
     RDKit          3D

 18 20  0  0  0  0  0  0  0  0999 V2000
    1.1787   -8.0297    3.5154 C   0  0  0  0  0  0  0  0  0  0  0  0
    1.0491   -6.8434    2.9820 C   0  0  0  0  0  0  0  0  0  0  0  0
    0.0950   -8.8404    3.2292 C   0  0  0  0  0  0  0  0  0  0  0  0
   -0.9173   -8.4596    2.5152 C   0  0  0  0  0  0  0  0  0  0  0  0
   -1.0331   -7.2162    2.0653 C   0  0  0  0  0  0  0  0  0  0  0  0
   -0.0105   -6.3168    2.3081 C   0  0  0  0  0  0  0  0  0  0  0  0
    0.1935  -10.3737    3.7416 C   0  0  0  0  0  0  0  0  0  0  0  0
    1.2406  -10.8901    4.0986 C   0  0  0  0  0  0  0  0  0  0  0  0
    1.1186  -12.3145    4.4006 C   0  0  0  0  0  0  0  0  0  0  0  0
    0.1013  -12.9075    3.8532 C   0  0  0  0  0  0  0  0  0  0  0  0
   -0.9044  -12.4076    3.3546 C   0  0  0  0  0  0  0  0  0  0  0  0
   -0.9318  -11.0156    3.2558 C   0  0  0  0  0  0  0  0  0  0  0  0
   -0.1401   -5.0294    1.8030 C   0  0  0  0  0  0  0  0  0  0  0  0
    0.6974   -4.0050    2.3299 C   0  0  0  0  0  0  0  0  0  0  0  0
    0.6654   -2.6585    2.0058 C   0  0  0  0  0  0  0  0  0  0  0  0
   -0.8879   -4.4813    0.7522 N   0  0  0  0  0  0  0  0  0  0  0  0
    0.2070   -2.3580    1.0500 C   0  0  0  0  0  0  0  0  0  0  0  0
   -0.7302   -3.2583    0.2489 C   0  0  0  0  0  0  0  0  0  0  0  0
  3  7  1  0
  6 13  1  0
 13 14  2  0
 14 15  1  0
 15 17  2  0
 17 18  1  0
 16 18  2  0
 13 16  1  0
  1  2  2  0
  2  6  1  0
  5  6  2  0
  4  5  1  0
  3  4  2  0
  1  3  1  0
  7  8  2  0
  8  9  1  0
  9 10  2  0
 10 11  1  0
 11 12  2  0
  7 12  1  0
M  END

$$$$
No_2221-/export/home/yangzhenyu/potential_scad_32_flow//YTHDC2/2024-12-06-03-22-00/
     RDKit          3D

 17 17  0  0  1  0  0  0  0  0999 V2000
    1.1787   -8.0297    3.5154 C   0  0  0  0  0  0  0  0  0  0  0  0
    1.1048   -9.2215    3.2892 C   0  0  2  0  0  0  0  0  0  0  0  0
    1.3627  -10.1721    4.3044 C   0  0  2  0  0  0  0  0  0  0  0  0
    2.3720  -10.8948    4.2468 C   0  0  0  0  0  0  0  0  0  0  0  0
    1.0579   -7.0441    2.4219 C   0  0  0  0  0  0  0  0  0  0  0  0
    0.9008   -7.8163    1.1995 C   0  0  1  0  0  0  0  0  0  0  0  0
    0.8179   -7.2775    0.0207 C   0  0  0  0  0  0  0  0  0  0  0  0
    0.9226   -9.2041    1.5202 C   0  0  0  0  0  0  0  0  0  0  0  0
    1.2488   -7.9831   -0.9142 C   0  0  0  0  0  0  0  0  0  0  0  0
    0.5208   -8.6433   -1.8842 O   0  0  0  0  0  0  0  0  0  0  0  0
    2.5432   -8.6247   -0.9658 O   0  0  0  0  0  0  0  0  0  0  0  0
    3.1224  -11.0946    3.4212 C   0  0  0  0  0  0  0  0  0  0  0  0
    0.2205  -10.4988    5.0223 C   0  0  0  0  0  0  0  0  0  0  0  0
   -0.9619   -9.9138    4.6680 O   0  0  0  0  0  0  0  0  0  0  0  0
    1.1550   -5.6198    2.5521 C   0  0  0  0  0  0  0  0  0  0  0  0
   -1.9152  -10.6735    3.9297 C   0  0  0  0  0  0  0  0  0  0  0  0
   -3.1752  -10.3468    4.0681 C   0  0  0  0  0  0  0  0  0  0  0  0
  1  2  1  0
  2  3  1  0
  3  4  1  0
  1  5  2  0
  5  6  1  0
  6  7  1  6
  2  8  1  6
  6  8  1  0
  7  9  1  0
  9 10  2  0
  9 11  1  0
  4 12  2  0
  3 13  1  6
 13 14  1  0
  5 15  1  0
 14 16  1  0
 16 17  1  0
M  END

$$$$
No_2222-/export/home/yangzhenyu/potential_scad_32_flow//YTHDC2/2024-12-06-03-22-00/
     RDKit          3D

 17 18  0  0  0  0  0  0  0  0999 V2000
    1.1787   -8.0297    3.5154 N   0  0  0  0  0  0  0  0  0  0  0  0
    1.0818   -9.0751    3.2053 C   0  0  0  0  0  0  0  0  0  0  0  0
    0.7576   -9.3725    1.9159 C   0  0  0  0  0  0  0  0  0  0  0  0
    0.7445  -10.8746    1.6491 C   0  0  0  0  0  0  0  0  0  0  0  0
    0.9910  -11.7526    2.6067 C   0  0  0  0  0  0  0  0  0  0  0  0
    1.4405  -11.4331    3.8064 C   0  0  0  0  0  0  0  0  0  0  0  0
    1.4304  -10.0463    4.1669 C   0  0  0  0  0  0  0  0  0  0  0  0
    1.1303   -6.7964    2.6709 C   0  0  0  0  0  0  0  0  0  0  0  0
    1.1940   -5.5106    3.0561 N   0  0  0  0  0  0  0  0  0  0  0  0
    1.2623   -6.9708    1.2205 N   0  0  0  0  0  0  0  0  0  0  0  0
    0.9545  -13.1953    2.2717 C   0  0  0  0  0  0  0  0  0  0  0  0
    1.9655  -13.9333    2.2216 C   0  0  0  0  0  0  0  0  0  0  0  0
    1.7200  -15.3393    2.3118 C   0  0  0  0  0  0  0  0  0  0  0  0
    0.5204  -15.8232    2.3962 C   0  0  0  0  0  0  0  0  0  0  0  0
   -0.5658  -15.0414    2.6815 C   0  0  0  0  0  0  0  0  0  0  0  0
   -0.3812  -13.6735    2.6500 C   0  0  0  0  0  0  0  0  0  0  0  0
   -1.4163  -12.8315    2.7918 C   0  0  0  0  0  0  0  0  0  0  0  0
  1  2  1  0
  1  8  2  3
  8  9  1  0
  8 10  1  0
  5 11  1  0
 16 17  1  0
 11 12  2  0
 12 13  1  0
 13 14  2  0
 14 15  1  0
 15 16  2  0
 11 16  1  0
  2  3  2  0
  3  4  1  0
  4  5  2  0
  5  6  1  0
  6  7  2  0
  2  7  1  0
M  END

$$$$
No_2223-/export/home/yangzhenyu/potential_scad_32_flow//YTHDC2/2024-12-06-03-22-00/
     RDKit          3D

 17 17  0  0  0  0  0  0  0  0999 V2000
    1.1787   -8.0297    3.5154 N   0  0  0  0  0  0  0  0  0  0  0  0
    1.0818   -9.0751    3.2053 C   0  0  0  0  0  0  0  0  0  0  0  0
    0.7576   -9.3725    1.9159 C   0  0  0  0  0  0  0  0  0  0  0  0
    0.8823   -8.4917    1.0547 C   0  0  0  0  0  0  0  0  0  0  0  0
    1.4631   -7.3107    1.2451 C   0  0  0  0  0  0  0  0  0  0  0  0
    1.6470   -6.9326    2.5669 C   0  0  0  0  0  0  0  0  0  0  0  0
    0.8237  -10.1305    4.2407 C   0  0  0  0  0  0  0  0  0  0  0  0
   -0.4178  -10.6899    4.4426 O   0  0  0  0  0  0  0  0  0  0  0  0
    1.8552  -10.7021    4.8355 O   0  0  0  0  0  0  0  0  0  0  0  0
    0.8290   -8.9288   -0.3994 C   0  0  0  0  0  0  0  0  0  0  0  0
    1.7271   -8.8280   -1.2272 O   0  0  0  0  0  0  0  0  0  0  0  0
   -0.3236   -9.4887   -0.7910 O   0  0  0  0  0  0  0  0  0  0  0  0
    1.7865   -5.6210    3.0185 C   0  0  0  0  0  0  0  0  0  0  0  0
    1.5138   -4.5751    2.2179 O   0  0  0  0  0  0  0  0  0  0  0  0
    1.8087   -5.3698    4.2908 O   0  0  0  0  0  0  0  0  0  0  0  0
    0.5173  -10.8053    1.5385 C   0  0  0  0  0  0  0  0  0  0  0  0
    1.6173  -11.8163    1.3144 C   0  0  0  0  0  0  0  0  0  0  0  0
  2  7  1  0
  7  8  2  0
  7  9  1  0
  4 10  1  0
 10 11  2  0
 10 12  1  0
  6 13  1  0
 13 14  2  0
 13 15  1  0
  3 16  1  0
 16 17  1  0
  1  2  2  0
  2  3  1  0
  3  4  2  0
  4  5  1  0
  5  6  2  0
  1  6  1  0
M  END

$$$$
No_2224-/export/home/yangzhenyu/potential_scad_32_flow//YTHDC2/2024-12-06-03-22-00/
     RDKit          3D

 17 18  0  0  0  0  0  0  0  0999 V2000
    1.1787   -8.0297    3.5154 C   0  0  0  0  0  0  0  0  0  0  0  0
    1.1048   -9.2215    3.2892 C   0  0  0  0  0  0  0  0  0  0  0  0
    1.2339   -9.7611    2.0189 C   0  0  0  0  0  0  0  0  0  0  0  0
    1.3583   -9.0036    0.9764 C   0  0  0  0  0  0  0  0  0  0  0  0
    1.5996   -7.6362    1.1311 C   0  0  0  0  0  0  0  0  0  0  0  0
    1.4830   -7.0928    2.3626 C   0  0  0  0  0  0  0  0  0  0  0  0
    1.5395   -5.7300    2.6182 C   0  0  0  0  0  0  0  0  0  0  0  0
    1.1969  -11.3760    1.8433 C   0  0  0  0  0  0  0  0  0  0  0  0
    0.2951  -11.9827    2.0623 N   0  0  0  0  0  0  0  0  0  0  0  0
   -0.9675  -11.4936    2.1056 C   0  0  0  0  0  0  0  0  0  0  0  0
   -1.6281  -11.2425    1.0427 C   0  0  0  0  0  0  0  0  0  0  0  0
   -1.3590  -11.6959   -0.1795 C   0  0  0  0  0  0  0  0  0  0  0  0
   -1.6777  -11.0788   -1.4092 C   0  0  0  0  0  0  0  0  0  0  0  0
   -2.4250   -9.9748   -1.3990 C   0  0  0  0  0  0  0  0  0  0  0  0
   -2.7311   -9.3192   -0.2218 C   0  0  0  0  0  0  0  0  0  0  0  0
   -2.3238   -9.9020    1.0253 C   0  0  0  0  0  0  0  0  0  0  0  0
    0.6443  -13.3667    2.5225 C   0  0  0  0  0  0  0  0  0  0  0  0
  6  7  1  0
  3  8  1  0
  8  9  1  0
  9 10  1  0
 10 11  1  0
  9 17  1  0
 11 12  2  0
 12 13  1  0
 13 14  2  0
 14 15  1  0
 15 16  2  0
 11 16  1  0
  1  2  2  0
  2  3  1  0
  3  4  2  0
  4  5  1  0
  5  6  2  0
  1  6  1  0
M  END

$$$$
No_2225-/export/home/yangzhenyu/potential_scad_32_flow//YTHDC2/2024-12-06-03-22-00/
     RDKit          3D

 20 21  0  0  1  0  0  0  0  0999 V2000
    1.1787   -8.0297    3.5154 C   0  0  0  0  0  0  0  0  0  0  0  0
    1.0491   -6.8434    2.9820 C   0  0  0  0  0  0  0  0  0  0  0  0
    0.9905   -9.0774    2.6527 C   0  0  0  0  0  0  0  0  0  0  0  0
    0.7897   -8.9519    1.3691 C   0  0  0  0  0  0  0  0  0  0  0  0
    0.7018   -7.7198    0.7892 C   0  0  0  0  0  0  0  0  0  0  0  0
    0.8918   -6.5957    1.6117 C   0  0  0  0  0  0  0  0  0  0  0  0
    1.0774  -10.6059    3.3145 C   0  0  0  0  0  0  0  0  0  0  0  0
    1.2215  -11.6205    2.4178 O   0  0  0  0  0  0  0  0  0  0  0  0
    1.1178  -10.7227    4.5245 O   0  0  0  0  0  0  0  0  0  0  0  0
    0.8212   -5.2791    1.1017 C   0  0  1  0  0  0  0  0  0  0  0  0
   -0.3719   -4.7969    0.7413 O   0  0  0  0  0  0  0  0  0  0  0  0
   -0.5652   -3.5430    0.3276 C   0  0  2  0  0  0  0  0  0  0  0  0
    0.7911  -12.8090    2.6160 C   0  0  0  0  0  0  0  0  0  0  0  0
    1.7903  -13.8528    2.8123 C   0  0  0  0  0  0  0  0  0  0  0  0
    2.3974  -14.3823    1.6759 O   0  0  0  0  0  0  0  0  0  0  0  0
    2.2782  -13.5524    0.6431 C   0  0  0  0  0  0  0  0  0  0  0  0
    0.1900   -2.6291    1.0203 C   0  0  0  0  0  0  0  0  0  0  0  0
    1.6112   -3.0363    1.4865 C   0  0  0  0  0  0  0  0  0  0  0  0
    1.6365   -4.4205    1.9289 C   0  0  0  0  0  0  0  0  0  0  0  0
   -1.8381   -3.1301    0.0397 C   0  0  0  0  0  0  0  0  0  0  0  0
  3  7  1  0
  7  8  1  0
  7  9  2  0
 10  6  1  1
 10 11  1  0
 11 12  1  0
  8 13  1  0
 13 14  1  0
 14 15  1  0
 15 16  1  0
 12 17  1  0
 17 18  1  0
 10 19  1  0
 18 19  1  0
 12 20  1  1
  1  2  2  0
  2  6  1  0
  5  6  2  0
  4  5  1  0
  3  4  2  0
  1  3  1  0
M  END

$$$$
No_2226-/export/home/yangzhenyu/potential_scad_32_flow//YTHDC2/2024-12-06-03-22-00/
     RDKit          3D

 17 17  0  0  1  0  0  0  0  0999 V2000
    1.1787   -8.0297    3.5154 C   0  0  0  0  0  0  0  0  0  0  0  0
    1.0491   -6.8434    2.9820 C   0  0  0  0  0  0  0  0  0  0  0  0
    0.0950   -8.8404    3.2292 C   0  0  0  0  0  0  0  0  0  0  0  0
   -0.9173   -8.4596    2.5152 C   0  0  0  0  0  0  0  0  0  0  0  0
   -1.0331   -7.2162    2.0653 C   0  0  0  0  0  0  0  0  0  0  0  0
   -0.0105   -6.3168    2.3081 C   0  0  0  0  0  0  0  0  0  0  0  0
    0.1150   -4.9910    1.8495 C   0  0  0  0  0  0  0  0  0  0  0  0
   -0.5774   -4.1593    2.0596 C   0  0  0  0  0  0  0  0  0  0  0  0
   -0.5028   -2.7328    1.5284 C   0  0  0  0  0  0  0  0  0  0  0  0
    0.1510  -10.2710    3.6783 C   0  0  2  0  0  0  0  0  0  0  0  0
   -1.0397  -10.8695    4.0294 C   0  0  0  0  0  0  0  0  0  0  0  0
    1.3586  -10.8914    4.0902 C   0  0  0  0  0  0  0  0  0  0  0  0
    2.0097  -11.6421    3.2176 C   0  0  0  0  0  0  0  0  0  0  0  0
    2.0170  -10.9529    1.9234 C   0  0  0  0  0  0  0  0  0  0  0  0
    1.5035  -11.5725    0.8777 C   0  0  0  0  0  0  0  0  0  0  0  0
    1.4189  -12.9313    0.9381 C   0  0  0  0  0  0  0  0  0  0  0  0
    1.0603  -10.8880   -0.1633 O   0  0  0  0  0  0  0  0  0  0  0  0
  6  7  1  0
  7  8  2  3
  8  9  1  0
  3 10  1  0
 10 11  1  1
 10 12  1  0
 12 13  1  0
 13 14  1  0
 14 15  1  0
 15 16  1  0
 15 17  2  0
  1  2  2  0
  2  6  1  0
  5  6  2  0
  4  5  1  0
  3  4  2  0
  1  3  1  0
M  END

$$$$
No_2227-/export/home/yangzhenyu/potential_scad_32_flow//YTHDC2/2024-12-06-03-22-00/
     RDKit          3D

 18 19  0  0  0  0  0  0  0  0999 V2000
    1.1787   -8.0297    3.5154 C   0  0  0  0  0  0  0  0  0  0  0  0
    1.0491   -6.8434    2.9820 C   0  0  0  0  0  0  0  0  0  0  0  0
    0.0950   -8.8404    3.2292 C   0  0  0  0  0  0  0  0  0  0  0  0
   -0.9173   -8.4596    2.5152 C   0  0  0  0  0  0  0  0  0  0  0  0
   -1.0331   -7.2162    2.0653 C   0  0  0  0  0  0  0  0  0  0  0  0
   -0.0105   -6.3168    2.3081 C   0  0  0  0  0  0  0  0  0  0  0  0
    0.1150   -4.9910    1.8495 C   0  0  0  0  0  0  0  0  0  0  0  0
    0.9121   -4.1017    2.4010 O   0  0  0  0  0  0  0  0  0  0  0  0
    0.1616  -10.4558    3.7401 C   0  0  0  0  0  0  0  0  0  0  0  0
   -1.0022  -11.1230    3.5667 C   0  0  0  0  0  0  0  0  0  0  0  0
    1.2083  -10.7826    4.6458 C   0  0  0  0  0  0  0  0  0  0  0  0
    1.4098  -12.0536    4.7504 C   0  0  0  0  0  0  0  0  0  0  0  0
   -0.8059  -12.4687    3.8502 C   0  0  0  0  0  0  0  0  0  0  0  0
    0.4730  -12.9422    4.3344 C   0  0  0  0  0  0  0  0  0  0  0  0
   -0.4475   -4.5387    0.8080 O   0  0  0  0  0  0  0  0  0  0  0  0
    0.5564  -14.3089    4.5217 Cl  0  0  0  0  0  0  0  0  0  0  0  0
    0.8679   -2.6857    2.4058 C   0  0  0  0  0  0  0  0  0  0  0  0
    1.9184   -2.1607    3.3642 C   0  0  0  0  0  0  0  0  0  0  0  0
  6  7  1  0
  7  8  1  0
  3  9  1  0
  7 15  2  0
 14 16  1  0
  8 17  1  0
 17 18  1  0
  9 10  2  0
 10 13  1  0
 13 14  2  0
 12 14  1  0
 11 12  2  0
  9 11  1  0
  1  2  2  0
  2  6  1  0
  5  6  2  0
  4  5  1  0
  3  4  2  0
  1  3  1  0
M  END

$$$$
No_2228-/export/home/yangzhenyu/potential_scad_32_flow//YTHDC2/2024-12-06-03-22-00/
     RDKit          3D

 16 16  0  0  0  0  0  0  0  0999 V2000
    1.1787   -8.0297    3.5154 C   0  0  0  0  0  0  0  0  0  0  0  0
    1.1048   -9.2215    3.2892 C   0  0  0  0  0  0  0  0  0  0  0  0
    1.2339   -9.7611    2.0189 C   0  0  0  0  0  0  0  0  0  0  0  0
    1.3583   -9.0036    0.9764 C   0  0  0  0  0  0  0  0  0  0  0  0
    1.5996   -7.6362    1.1311 C   0  0  0  0  0  0  0  0  0  0  0  0
    1.4830   -7.0928    2.3626 C   0  0  0  0  0  0  0  0  0  0  0  0
    1.5395   -5.7300    2.6182 N   0  0  0  0  0  0  0  0  0  0  0  0
    1.1972  -11.3758    1.8664 C   0  0  0  0  0  0  0  0  0  0  0  0
    1.0879  -11.6633    0.5433 O   0  0  0  0  0  0  0  0  0  0  0  0
    1.3138  -12.0381    2.8136 O   0  0  0  0  0  0  0  0  0  0  0  0
    0.8904   -4.8282    2.7469 O   0  0  0  0  0  0  0  0  0  0  0  0
    1.5766   -9.4494   -0.3419 C   0  0  0  0  0  0  0  0  0  0  0  0
    0.4067   -9.5949   -1.0270 O   0  0  0  0  0  0  0  0  0  0  0  0
    2.6458   -9.1843   -1.0936 O   0  0  0  0  0  0  0  0  0  0  0  0
    0.8148  -10.1269    4.5698 Cl  0  0  0  0  0  0  0  0  0  0  0  0
    0.4846  -12.9752    0.4921 C   0  0  0  0  0  0  0  0  0  0  0  0
  6  7  1  0
  3  8  1  0
  8  9  1  0
  8 10  2  0
  7 11  2  0
  4 12  1  0
 12 13  1  0
 12 14  2  0
  2 15  1  0
  9 16  1  0
  1  2  2  0
  2  3  1  0
  3  4  2  0
  4  5  1  0
  5  6  2  0
  1  6  1  0
M  END

$$$$
No_2229-/export/home/yangzhenyu/potential_scad_32_flow//YTHDC2/2024-12-06-03-22-00/
     RDKit          3D

 13 13  0  0  0  0  0  0  0  0999 V2000
    1.1787   -8.0297    3.5154 C   0  0  0  0  0  0  0  0  0  0  0  0
    1.1048   -9.2215    3.2892 C   0  0  0  0  0  0  0  0  0  0  0  0
    1.2339   -9.7611    2.0189 C   0  0  0  0  0  0  0  0  0  0  0  0
    1.1954  -11.2312    1.8661 C   0  0  0  0  0  0  0  0  0  0  0  0
    1.5546  -12.1691    2.7931 C   0  0  0  0  0  0  0  0  0  0  0  0
    1.4918  -11.6215    4.1439 C   0  0  0  0  0  0  0  0  0  0  0  0
    1.2451  -10.2569    4.3641 C   0  0  0  0  0  0  0  0  0  0  0  0
    1.5931  -13.4682    2.5140 N   0  0  0  0  0  0  0  0  0  0  0  0
    0.8750   -7.0738    2.6545 C   0  0  0  0  0  0  0  0  0  0  0  0
    1.0312   -5.6108    2.9657 C   0  0  0  0  0  0  0  0  0  0  0  0
    0.8426   -4.7439    1.8770 C   0  0  0  0  0  0  0  0  0  0  0  0
    0.0823   -3.8290    2.0757 O   0  0  0  0  0  0  0  0  0  0  0  0
    2.1203  -13.9677    1.3916 O   0  0  0  0  0  0  0  0  0  0  0  0
  1  2  1  0
  5  8  1  0
  1  9  2  3
  9 10  1  0
 10 11  1  0
 11 12  1  0
  8 13  2  0
  2  3  2  0
  3  4  1  0
  4  5  2  0
  5  6  1  0
  6  7  2  0
  2  7  1  0
M  END

$$$$
No_2230-/export/home/yangzhenyu/potential_scad_32_flow//YTHDC2/2024-12-06-03-22-00/
     RDKit          3D

 19 20  0  0  1  0  0  0  0  0999 V2000
    1.1787   -8.0297    3.5154 C   0  0  0  0  0  0  0  0  0  0  0  0
    1.1048   -9.2215    3.2892 C   0  0  0  0  0  0  0  0  0  0  0  0
    1.2339   -9.7611    2.0189 C   0  0  0  0  0  0  0  0  0  0  0  0
    1.3583   -9.0036    0.9764 C   0  0  0  0  0  0  0  0  0  0  0  0
    1.5394   -7.6373    1.2201 C   0  0  0  0  0  0  0  0  0  0  0  0
    1.4604   -7.0971    2.3874 C   0  0  0  0  0  0  0  0  0  0  0  0
    1.1370  -11.2343    1.8498 C   0  0  2  0  0  0  0  0  0  0  0  0
    1.9696  -12.0949    2.2674 C   0  0  0  0  0  0  0  0  0  0  0  0
    1.5024  -13.3471    2.6039 C   0  0  0  0  0  0  0  0  0  0  0  0
    0.7316  -14.0544    1.7329 C   0  0  2  0  0  0  0  0  0  0  0  0
   -0.2935  -13.2024    1.1980 C   0  0  0  0  0  0  0  0  0  0  0  0
    0.1252  -11.8021    0.9150 C   0  0  0  0  0  0  0  0  0  0  0  0
    1.4772   -5.6657    2.6404 Cl  0  0  0  0  0  0  0  0  0  0  0  0
   -0.4948  -11.0988    0.0078 O   0  0  0  0  0  0  0  0  0  0  0  0
    0.0837  -15.2084    2.4685 C   0  0  0  0  0  0  0  0  0  0  0  0
    0.0736  -16.4720    1.7538 C   0  0  0  0  0  0  0  0  0  0  0  0
   -0.1176  -17.4634    2.2451 C   0  0  0  0  0  0  0  0  0  0  0  0
   -0.4712  -17.6300    3.7128 C   0  0  0  0  0  0  0  0  0  0  0  0
   -0.4045  -16.4772    4.5244 C   0  0  0  0  0  0  0  0  0  0  0  0
  7  3  1  6
  7  8  1  0
  8  9  1  0
  9 10  1  0
 10 11  1  0
  7 12  1  0
 11 12  1  0
  6 13  1  0
 12 14  2  0
 10 15  1  1
 15 16  1  0
 16 17  2  3
 17 18  1  0
 18 19  2  0
  1  2  2  0
  2  3  1  0
  3  4  2  0
  4  5  1  0
  5  6  2  0
  1  6  1  0
M  END

$$$$
No_2231-/export/home/yangzhenyu/potential_scad_32_flow//YTHDC2/2024-12-06-03-22-00/
     RDKit          3D

 17 18  0  0  0  0  0  0  0  0999 V2000
    1.1787   -8.0297    3.5154 Cl  0  0  0  0  0  0  0  0  0  0  0  0
    0.7279   -9.0023    2.8722 C   0  0  0  0  0  0  0  0  0  0  0  0
    1.3852  -10.2194    3.0621 C   0  0  0  0  0  0  0  0  0  0  0  0
    1.4545  -11.1895    2.1693 C   0  0  0  0  0  0  0  0  0  0  0  0
    0.7928  -10.9727    1.1123 C   0  0  0  0  0  0  0  0  0  0  0  0
    0.2855   -9.9251    0.6787 C   0  0  0  0  0  0  0  0  0  0  0  0
    0.2285   -8.8883    1.5547 C   0  0  0  0  0  0  0  0  0  0  0  0
   -0.4880   -7.7616    1.1808 C   0  0  0  0  0  0  0  0  0  0  0  0
   -1.7057   -7.6500    1.1592 C   0  0  0  0  0  0  0  0  0  0  0  0
   -2.4766   -8.7793    1.4894 N   0  0  0  0  0  0  0  0  0  0  0  0
   -2.4266   -6.3997    0.8011 C   0  0  0  0  0  0  0  0  0  0  0  0
   -3.7343   -6.3956    0.7401 C   0  0  0  0  0  0  0  0  0  0  0  0
   -3.9210   -7.9547    1.2526 C   0  0  0  0  0  0  0  0  0  0  0  0
    1.8763  -12.5307    2.4847 C   0  0  0  0  0  0  0  0  0  0  0  0
    1.0020  -13.6687    2.3583 C   0  0  0  0  0  0  0  0  0  0  0  0
    1.5189  -15.0105    2.3372 C   0  0  0  0  0  0  0  0  0  0  0  0
    0.7251  -16.0554    2.6599 C   0  0  0  0  0  0  0  0  0  0  0  0
  1  2  1  0
  7  8  1  0
  8  9  2  3
  9 10  1  0
  9 11  1  0
 11 12  2  0
 10 13  1  0
 12 13  1  0
  4 14  1  0
 14 15  1  0
 15 16  1  0
 16 17  2  0
  2  3  2  0
  3  4  1  0
  4  5  2  0
  5  6  1  0
  6  7  2  0
  2  7  1  0
M  END

$$$$
No_2232-/export/home/yangzhenyu/potential_scad_32_flow//YTHDC2/2024-12-06-03-22-00/
     RDKit          3D

 19 19  0  0  1  0  0  0  0  0999 V2000
    1.1787   -8.0297    3.5154 C   0  0  0  0  0  0  0  0  0  0  0  0
    1.1048   -9.2215    3.2892 C   0  0  0  0  0  0  0  0  0  0  0  0
    1.2339   -9.7611    2.0189 C   0  0  0  0  0  0  0  0  0  0  0  0
    1.3583   -9.0036    0.9764 C   0  0  0  0  0  0  0  0  0  0  0  0
    1.5996   -7.6362    1.1311 C   0  0  0  0  0  0  0  0  0  0  0  0
    1.4830   -7.0928    2.3626 C   0  0  0  0  0  0  0  0  0  0  0  0
    1.4898   -5.7274    2.6199 C   0  0  0  0  0  0  0  0  0  0  0  0
    1.1681  -11.2222    1.8390 C   0  0  0  0  0  0  0  0  0  0  0  0
    0.5014  -11.9760    2.2068 C   0  0  0  0  0  0  0  0  0  0  0  0
    0.4167  -13.3685    2.0527 C   0  0  0  0  0  0  0  0  0  0  0  0
    1.5984  -14.1574    2.4634 C   0  0  0  0  0  0  0  0  0  0  0  0
    1.8090  -15.4261    2.0927 C   0  0  2  0  0  0  0  0  0  0  0  0
    3.0163  -15.8353    1.7346 C   0  0  0  0  0  0  0  0  0  0  0  0
    1.7017   -5.1723    3.8674 O   0  0  0  0  0  0  0  0  0  0  0  0
    1.3296   -4.8272    1.6687 O   0  0  0  0  0  0  0  0  0  0  0  0
    0.7908  -16.2889    1.9589 C   0  0  0  0  0  0  0  0  0  0  0  0
    0.9722  -17.5579    1.3884 C   0  0  0  0  0  0  0  0  0  0  0  0
    0.9893  -17.6934    0.2290 C   0  0  0  0  0  0  0  0  0  0  0  0
    1.1123  -19.0498   -0.2775 N   0  0  0  0  0  0  0  0  0  0  0  0
  6  7  1  0
  3  8  1  0
  8  9  2  3
  9 10  1  0
 10 11  1  0
 11 12  1  0
 12 13  1  6
  7 14  1  0
  7 15  2  0
 12 16  1  0
 16 17  1  0
 17 18  2  3
 18 19  1  0
  1  2  2  0
  2  3  1  0
  3  4  2  0
  4  5  1  0
  5  6  2  0
  1  6  1  0
M  END

$$$$
No_2233-/export/home/yangzhenyu/potential_scad_32_flow//YTHDC2/2024-12-06-03-22-00/
     RDKit          3D

 18 18  0  0  0  0  0  0  0  0999 V2000
    1.1787   -8.0297    3.5154 C   0  0  0  0  0  0  0  0  0  0  0  0
    1.0491   -6.8434    2.9820 C   0  0  0  0  0  0  0  0  0  0  0  0
    0.0950   -8.8404    3.2292 C   0  0  0  0  0  0  0  0  0  0  0  0
    0.0602  -10.1764    3.8231 C   0  0  0  0  0  0  0  0  0  0  0  0
    0.3808   -6.2771    2.2009 C   0  0  0  0  0  0  0  0  0  0  0  0
   -0.5785   -7.1471    1.7089 C   0  0  0  0  0  0  0  0  0  0  0  0
   -0.6899   -8.4051    2.1311 C   0  0  0  0  0  0  0  0  0  0  0  0
   -1.2470  -10.6354    3.9985 O   0  0  0  0  0  0  0  0  0  0  0  0
    1.0104  -10.8147    4.4038 N   0  0  0  0  0  0  0  0  0  0  0  0
    0.5720   -5.0203    1.5494 C   0  0  0  0  0  0  0  0  0  0  0  0
    2.3226  -10.8218    3.9325 C   0  0  0  0  0  0  0  0  0  0  0  0
    0.0288   -4.6317    0.5555 O   0  0  0  0  0  0  0  0  0  0  0  0
    1.4663   -4.1661    2.2226 O   0  0  0  0  0  0  0  0  0  0  0  0
    2.5316  -11.2727    2.7507 C   0  0  0  0  0  0  0  0  0  0  0  0
    1.8103  -12.3320    2.2505 C   0  0  0  0  0  0  0  0  0  0  0  0
    1.6531  -13.4849    3.0059 C   0  0  0  0  0  0  0  0  0  0  0  0
    1.3499  -14.6094    2.3902 C   0  0  0  0  0  0  0  0  0  0  0  0
    0.8928  -14.6631    1.1703 C   0  0  0  0  0  0  0  0  0  0  0  0
  3  4  1  0
  4  8  2  0
  4  9  1  0
  5 10  1  0
  9 11  1  0
 10 12  2  0
 10 13  1  0
 11 14  1  0
 14 15  1  0
 15 16  1  0
 16 17  2  3
 17 18  1  0
  1  2  2  0
  2  5  1  0
  5  6  2  0
  6  7  1  0
  3  7  2  0
  1  3  1  0
M  END

$$$$
No_2234-/export/home/yangzhenyu/potential_scad_32_flow//YTHDC2/2024-12-06-03-22-00/
     RDKit          3D

 16 17  0  0  0  0  0  0  0  0999 V2000
    1.1787   -8.0297    3.5154 C   0  0  0  0  0  0  0  0  0  0  0  0
    1.0491   -6.8434    2.9820 C   0  0  0  0  0  0  0  0  0  0  0  0
    0.0950   -8.8404    3.2292 C   0  0  0  0  0  0  0  0  0  0  0  0
   -0.9173   -8.4596    2.5152 C   0  0  0  0  0  0  0  0  0  0  0  0
   -1.0331   -7.2162    2.0653 C   0  0  0  0  0  0  0  0  0  0  0  0
   -0.0105   -6.3168    2.3081 C   0  0  0  0  0  0  0  0  0  0  0  0
    0.1465  -10.2446    3.6981 C   0  0  0  0  0  0  0  0  0  0  0  0
    0.1907  -11.3369    2.8651 C   0  0  0  0  0  0  0  0  0  0  0  0
    1.0128  -11.8996    2.5974 C   0  0  0  0  0  0  0  0  0  0  0  0
    1.2328  -13.0891    1.8129 C   0  0  0  0  0  0  0  0  0  0  0  0
    0.1831  -13.5436    1.2817 C   0  0  0  0  0  0  0  0  0  0  0  0
   -0.9583  -12.9140    1.3153 C   0  0  0  0  0  0  0  0  0  0  0  0
   -1.0325  -11.7940    2.1538 C   0  0  0  0  0  0  0  0  0  0  0  0
    0.0368   -4.7927    1.8437 Cl  0  0  0  0  0  0  0  0  0  0  0  0
   -0.0326  -10.4566    5.0374 O   0  0  0  0  0  0  0  0  0  0  0  0
   -2.2997  -11.2176    2.2856 C   0  0  0  0  0  0  0  0  0  0  0  0
  3  7  1  0
  7  8  1  0
  6 14  1  0
  7 15  2  0
 13 16  1  0
  1  2  2  0
  2  6  1  0
  5  6  2  0
  4  5  1  0
  3  4  2  0
  1  3  1  0
  8  9  2  0
  9 10  1  0
 10 11  2  0
 11 12  1  0
 12 13  2  0
  8 13  1  0
M  END

$$$$
No_2235-/export/home/yangzhenyu/potential_scad_32_flow//YTHDC2/2024-12-06-03-22-00/
     RDKit          3D

 19 20  0  0  1  0  0  0  0  0999 V2000
    1.1787   -8.0297    3.5154 C   0  0  0  0  0  0  0  0  0  0  0  0
    1.0491   -6.8434    2.9820 C   0  0  0  0  0  0  0  0  0  0  0  0
    1.9985   -8.9840    2.8958 C   0  0  0  0  0  0  0  0  0  0  0  0
    1.9135  -10.3404    3.6266 C   0  0  0  0  0  0  0  0  0  0  0  0
    1.3291  -11.3908    3.0222 C   0  0  0  0  0  0  0  0  0  0  0  0
    1.0344  -11.3281    1.7959 C   0  0  0  0  0  0  0  0  0  0  0  0
    1.7340   -5.8103    3.4001 Cl  0  0  0  0  0  0  0  0  0  0  0  0
    1.0754  -12.5025    1.1370 C   0  0  0  0  0  0  0  0  0  0  0  0
    1.2394  -13.7378    1.6808 C   0  0  0  0  0  0  0  0  0  0  0  0
    1.5122  -13.5185    3.1869 C   0  0  0  0  0  0  0  0  0  0  0  0
    1.4586  -12.5098    3.8170 C   0  0  0  0  0  0  0  0  0  0  0  0
    0.2037   -6.6240    1.9045 C   0  0  2  0  0  0  0  0  0  0  0  0
    0.0683   -7.5276    0.9288 C   0  0  0  0  0  0  0  0  0  0  0  0
    1.0773   -7.8995    0.0824 C   0  0  0  0  0  0  0  0  0  0  0  0
    1.0178   -8.7735   -0.8990 C   0  0  0  0  0  0  0  0  0  0  0  0
   -0.1753   -9.1869   -1.1447 C   0  0  0  0  0  0  0  0  0  0  0  0
   -1.2950   -8.9054   -0.4833 C   0  0  0  0  0  0  0  0  0  0  0  0
   -1.1645   -8.0423    0.6280 C   0  0  0  0  0  0  0  0  0  0  0  0
   -0.1466   -5.3279    1.5890 C   0  0  0  0  0  0  0  0  0  0  0  0
  1  2  1  0
  1  3  1  0
  3  4  1  0
  4  5  1  0
  2  7  1  0
  2 12  1  0
 12 13  1  0
 12 19  1  6
  5  6  2  0
  6  8  1  0
  8  9  2  0
  9 10  1  0
 10 11  2  0
  5 11  1  0
 13 14  2  0
 14 15  1  0
 15 16  2  0
 16 17  1  0
 17 18  2  0
 13 18  1  0
M  END

$$$$
No_2236-/export/home/yangzhenyu/potential_scad_32_flow//YTHDC2/2024-12-06-03-22-00/
     RDKit          3D

 19 19  0  0  0  0  0  0  0  0999 V2000
    1.1787   -8.0297    3.5154 N   0  0  0  0  0  0  0  0  0  0  0  0
    1.0818   -9.0751    3.2053 C   0  0  0  0  0  0  0  0  0  0  0  0
    0.7576   -9.3725    1.9159 C   0  0  0  0  0  0  0  0  0  0  0  0
    0.8823   -8.4917    1.0547 C   0  0  0  0  0  0  0  0  0  0  0  0
    1.4631   -7.3107    1.2451 C   0  0  0  0  0  0  0  0  0  0  0  0
    1.6470   -6.9326    2.5669 C   0  0  0  0  0  0  0  0  0  0  0  0
    1.0024  -10.2234    4.2810 C   0  0  0  0  0  0  0  0  0  0  0  0
   -0.2696  -10.9513    4.3450 O   0  0  0  0  0  0  0  0  0  0  0  0
    2.1024  -10.8836    4.7048 O   0  0  0  0  0  0  0  0  0  0  0  0
    0.8087   -8.8904   -0.4257 C   0  0  0  0  0  0  0  0  0  0  0  0
   -0.5218   -9.1063   -0.7230 O   0  0  0  0  0  0  0  0  0  0  0  0
    1.6441   -9.1410   -1.2127 O   0  0  0  0  0  0  0  0  0  0  0  0
    1.8175   -5.6589    3.0423 C   0  0  0  0  0  0  0  0  0  0  0  0
    1.5317   -4.6073    2.2118 O   0  0  0  0  0  0  0  0  0  0  0  0
    1.8212   -5.3761    4.2815 O   0  0  0  0  0  0  0  0  0  0  0  0
    0.5003  -10.9694    1.4552 C   0  0  0  0  0  0  0  0  0  0  0  0
   -0.7662  -11.2973    1.2529 C   0  0  0  0  0  0  0  0  0  0  0  0
   -0.9679  -12.5443    0.6439 C   0  0  0  0  0  0  0  0  0  0  0  0
    0.0702  -13.4243    0.5477 C   0  0  0  0  0  0  0  0  0  0  0  0
  2  7  1  0
  7  8  2  0
  7  9  1  0
  4 10  1  0
 10 11  2  0
 10 12  1  0
  6 13  1  0
 13 14  2  0
 13 15  1  0
  3 16  1  0
 16 17  1  0
 17 18  2  3
 18 19  1  0
  1  2  2  0
  2  3  1  0
  3  4  2  0
  4  5  1  0
  5  6  2  0
  1  6  1  0
M  END

$$$$
No_2237-/export/home/yangzhenyu/potential_scad_32_flow//YTHDC2/2024-12-06-03-22-00/
     RDKit          3D

 18 19  0  0  1  0  0  0  0  0999 V2000
    1.1787   -8.0297    3.5154 C   0  0  0  0  0  0  0  0  0  0  0  0
    1.0491   -6.8434    2.9820 C   0  0  0  0  0  0  0  0  0  0  0  0
    0.9905   -9.0774    2.6527 C   0  0  0  0  0  0  0  0  0  0  0  0
    1.1655  -10.4663    3.1286 C   0  0  2  0  0  0  0  0  0  0  0  0
    1.7409  -10.6480    4.4599 C   0  0  0  0  0  0  0  0  0  0  0  0
    1.0486   -6.3431    1.8833 C   0  0  0  0  0  0  0  0  0  0  0  0
    0.8094   -7.4673    0.8674 C   0  0  0  0  0  0  0  0  0  0  0  0
    0.8523   -8.7792    1.1982 C   0  0  0  0  0  0  0  0  0  0  0  0
    1.8423  -11.3059    2.0428 C   0  0  0  0  0  0  0  0  0  0  0  0
    0.9915  -12.2606    1.4100 C   0  0  0  0  0  0  0  0  0  0  0  0
    1.1855  -13.4864    1.5246 C   0  0  0  0  0  0  0  0  0  0  0  0
    0.3404  -14.4780    1.2605 C   0  0  0  0  0  0  0  0  0  0  0  0
   -0.8777  -14.1135    0.8309 C   0  0  0  0  0  0  0  0  0  0  0  0
   -1.3087  -12.8937    0.7024 C   0  0  0  0  0  0  0  0  0  0  0  0
   -0.3704  -11.8401    0.9551 C   0  0  0  0  0  0  0  0  0  0  0  0
    0.8766   -5.0715    1.3057 Cl  0  0  0  0  0  0  0  0  0  0  0  0
   -2.5074  -12.4029    0.1333 O   0  0  0  0  0  0  0  0  0  0  0  0
   -3.3973  -12.9948    0.0566 C   0  0  0  0  0  0  0  0  0  0  0  0
  3  4  1  0
  4  5  1  1
  4  9  1  0
  9 10  1  0
  6 16  1  0
 14 17  1  0
 17 18  1  0
 10 11  2  0
 11 12  1  0
 12 13  2  0
 13 14  1  0
 14 15  2  0
 10 15  1  0
  1  2  2  0
  2  6  1  0
  6  7  2  0
  7  8  1  0
  3  8  2  0
  1  3  1  0
M  END

$$$$
No_2238-/export/home/yangzhenyu/potential_scad_32_flow//YTHDC2/2024-12-06-03-22-00/
     RDKit          3D

 19 20  0  0  1  0  0  0  0  0999 V2000
    1.1787   -8.0297    3.5154 C   0  0  0  0  0  0  0  0  0  0  0  0
    1.1048   -9.2215    3.2892 C   0  0  0  0  0  0  0  0  0  0  0  0
    1.3627  -10.1721    4.3044 C   0  0  0  0  0  0  0  0  0  0  0  0
    1.0682  -11.5187    4.0618 C   0  0  0  0  0  0  0  0  0  0  0  0
    0.7653  -11.7320    2.7387 C   0  0  0  0  0  0  0  0  0  0  0  0
    0.7465  -10.3365    2.0821 N   0  0  0  0  0  0  0  0  0  0  0  0
    1.0476   -7.1726    2.2153 C   0  0  0  0  0  0  0  0  0  0  0  0
    1.1201   -5.6702    2.5598 C   0  0  1  0  0  0  0  0  0  0  0  0
    0.4804  -12.6195    1.9618 C   0  0  0  0  0  0  0  0  0  0  0  0
    0.8939  -13.8822    2.4363 C   0  0  0  0  0  0  0  0  0  0  0  0
    0.5442  -15.0994    1.7466 C   0  0  0  0  0  0  0  0  0  0  0  0
   -0.2397  -14.9684    0.6717 C   0  0  0  0  0  0  0  0  0  0  0  0
   -0.6732  -13.6958    0.2174 C   0  0  0  0  0  0  0  0  0  0  0  0
   -0.2474  -12.5882    0.8508 C   0  0  0  0  0  0  0  0  0  0  0  0
    0.7452   -7.5597    0.9773 C   0  0  0  0  0  0  0  0  0  0  0  0
    1.4319   -5.2390    3.6594 C   0  0  0  0  0  0  0  0  0  0  0  0
    1.0285   -4.9104    1.3887 C   0  0  0  0  0  0  0  0  0  0  0  0
    0.0670   -3.8626    1.7257 C   0  0  0  0  0  0  0  0  0  0  0  0
    0.5738   -2.5885    1.7281 F   0  0  0  0  0  0  0  0  0  0  0  0
  1  2  1  0
  2  3  1  0
  3  4  2  0
  4  5  1  0
  2  6  1  0
  5  6  1  0
  1  7  2  3
  7  8  1  0
  5  9  1  0
  7 15  1  0
  8 16  1  6
  8 17  1  0
 17 18  1  0
 18 19  1  0
  9 10  2  0
 10 11  1  0
 11 12  2  0
 12 13  1  0
 13 14  2  0
  9 14  1  0
M  END

$$$$
No_2239-/export/home/yangzhenyu/potential_scad_32_flow//YTHDC2/2024-12-06-03-22-00/
     RDKit          3D

 12 12  0  0  0  0  0  0  0  0999 V2000
    1.1787   -8.0297    3.5154 C   0  0  0  0  0  0  0  0  0  0  0  0
    1.1048   -9.2215    3.2892 C   0  0  0  0  0  0  0  0  0  0  0  0
    1.2339   -9.7611    2.0189 C   0  0  0  0  0  0  0  0  0  0  0  0
    1.3583   -9.0036    0.9764 C   0  0  0  0  0  0  0  0  0  0  0  0
    1.5996   -7.6362    1.1311 C   0  0  0  0  0  0  0  0  0  0  0  0
    1.4830   -7.0928    2.3626 C   0  0  0  0  0  0  0  0  0  0  0  0
    1.4898   -5.7274    2.6199 C   0  0  0  0  0  0  0  0  0  0  0  0
    1.1681  -11.2222    1.8390 C   0  0  0  0  0  0  0  0  0  0  0  0
    0.7145  -11.5870    0.5424 C   0  0  0  0  0  0  0  0  0  0  0  0
    0.5927  -13.0110    0.4510 C   0  0  0  0  0  0  0  0  0  0  0  0
    0.7658  -13.7508    1.6748 C   0  0  0  0  0  0  0  0  0  0  0  0
    1.2320  -12.8009    2.7886 C   0  0  0  0  0  0  0  0  0  0  0  0
  6  7  1  0
  3  8  1  0
  8  9  1  0
  9 10  2  3
 10 11  1  0
 11 12  2  0
  1  2  2  0
  2  3  1  0
  3  4  2  0
  4  5  1  0
  5  6  2  0
  1  6  1  0
M  END

$$$$
No_2240-/export/home/yangzhenyu/potential_scad_32_flow//YTHDC2/2024-12-06-03-22-00/
     RDKit          3D

 17 18  0  0  0  0  0  0  0  0999 V2000
    1.1787   -8.0297    3.5154 C   0  0  0  0  0  0  0  0  0  0  0  0
    1.0491   -6.8434    2.9820 C   0  0  0  0  0  0  0  0  0  0  0  0
    1.9985   -8.9840    2.8958 C   0  0  0  0  0  0  0  0  0  0  0  0
    1.9135  -10.3404    3.6266 C   0  0  0  0  0  0  0  0  0  0  0  0
    1.3291  -11.3908    3.0222 C   0  0  0  0  0  0  0  0  0  0  0  0
    1.0344  -11.3281    1.7959 O   0  0  0  0  0  0  0  0  0  0  0  0
    0.8341  -12.2785    3.8152 N   0  0  0  0  0  0  0  0  0  0  0  0
    0.4578   -6.5704    1.7618 C   0  0  0  0  0  0  0  0  0  0  0  0
    0.7016   -7.4128    0.8678 C   0  0  0  0  0  0  0  0  0  0  0  0
    0.2493  -13.4295    3.2399 C   0  0  0  0  0  0  0  0  0  0  0  0
   -0.9098  -13.5505    2.7130 C   0  0  0  0  0  0  0  0  0  0  0  0
   -1.3557  -14.6827    2.2355 C   0  0  0  0  0  0  0  0  0  0  0  0
   -0.5348  -15.8015    2.2684 C   0  0  0  0  0  0  0  0  0  0  0  0
    0.7710  -15.7573    2.7401 C   0  0  0  0  0  0  0  0  0  0  0  0
    1.2423  -14.5367    3.2581 C   0  0  0  0  0  0  0  0  0  0  0  0
    0.7523   -8.4972    0.8646 C   0  0  0  0  0  0  0  0  0  0  0  0
    1.8717   -9.3455    1.5174 C   0  0  0  0  0  0  0  0  0  0  0  0
  1  2  1  0
  1  3  1  0
  3  4  1  0
  4  5  1  0
  5  6  2  0
  5  7  1  0
  2  8  1  0
  8  9  1  0
  7 10  1  0
  9 16  1  0
  3 17  1  0
 16 17  1  0
 10 11  2  0
 11 12  1  0
 12 13  2  0
 13 14  1  0
 14 15  2  0
 10 15  1  0
M  END

$$$$
No_2241-/export/home/yangzhenyu/potential_scad_32_flow//YTHDC2/2024-12-06-03-22-00/
     RDKit          3D

 19 19  0  0  1  0  0  0  0  0999 V2000
    1.1787   -8.0297    3.5154 C   0  0  0  0  0  0  0  0  0  0  0  0
    1.0491   -6.8434    2.9820 C   0  0  1  0  0  0  0  0  0  0  0  0
    1.9985   -8.9840    2.8958 C   0  0  0  0  0  0  0  0  0  0  0  0
    1.9135  -10.3404    3.6266 C   0  0  0  0  0  0  0  0  0  0  0  0
    0.7479  -10.9191    3.7202 C   0  0  0  0  0  0  0  0  0  0  0  0
    1.8085   -5.7988    3.2380 C   0  0  0  0  0  0  0  0  0  0  0  0
    0.2524  -11.5736    2.6428 C   0  0  0  0  0  0  0  0  0  0  0  0
    1.1046  -12.4658    1.9478 C   0  0  0  0  0  0  0  0  0  0  0  0
    1.4225  -13.6353    2.4630 C   0  0  0  0  0  0  0  0  0  0  0  0
    2.2825  -14.5235    1.7560 C   0  0  0  0  0  0  0  0  0  0  0  0
    2.4840  -15.8230    2.2063 C   0  0  0  0  0  0  0  0  0  0  0  0
    1.8327  -16.3543    3.2733 C   0  0  0  0  0  0  0  0  0  0  0  0
    0.8727  -15.4620    3.9351 C   0  0  0  0  0  0  0  0  0  0  0  0
    0.6627  -14.2704    3.4685 C   0  0  0  0  0  0  0  0  0  0  0  0
    1.1161   -4.5649    3.2779 O   0  0  0  0  0  0  0  0  0  0  0  0
    1.5294  -11.9283    0.7938 C   0  0  0  0  0  0  0  0  0  0  0  0
    2.5583  -12.1661    0.3055 O   0  0  0  0  0  0  0  0  0  0  0  0
    0.6219  -11.1500    0.0626 O   0  0  0  0  0  0  0  0  0  0  0  0
    0.2701   -6.7826    1.7639 C   0  0  0  0  0  0  0  0  0  0  0  0
  1  2  1  0
  1  3  1  0
  3  4  1  0
  4  5  1  0
  2  6  1  0
  5  7  1  0
  7  8  1  0
  8  9  1  0
  6 15  1  0
  8 16  1  0
 16 17  2  0
 16 18  1  0
  2 19  1  6
  9 10  2  0
 10 11  1  0
 11 12  2  0
 12 13  1  0
 13 14  2  0
  9 14  1  0
M  END

$$$$
No_2242-/export/home/yangzhenyu/potential_scad_32_flow//YTHDC2/2024-12-06-03-22-00/
     RDKit          3D

 19 20  0  0  0  0  0  0  0  0999 V2000
    1.1787   -8.0297    3.5154 C   0  0  0  0  0  0  0  0  0  0  0  0
    1.1048   -9.2215    3.2892 C   0  0  0  0  0  0  0  0  0  0  0  0
    1.2339   -9.7611    2.0189 C   0  0  0  0  0  0  0  0  0  0  0  0
    1.3583   -9.0036    0.9764 C   0  0  0  0  0  0  0  0  0  0  0  0
    1.5996   -7.6362    1.1311 C   0  0  0  0  0  0  0  0  0  0  0  0
    1.4830   -7.0928    2.3626 C   0  0  0  0  0  0  0  0  0  0  0  0
    1.1008  -11.2372    1.8542 C   0  0  0  0  0  0  0  0  0  0  0  0
    0.5178  -11.9759    2.3445 C   0  0  0  0  0  0  0  0  0  0  0  0
    0.4575  -13.3705    2.1281 C   0  0  0  0  0  0  0  0  0  0  0  0
    1.3992  -14.2795    2.9783 C   0  0  0  0  0  0  0  0  0  0  0  0
    1.3982  -15.5837    2.7718 C   0  0  0  0  0  0  0  0  0  0  0  0
    0.6478  -16.1498    1.8129 C   0  0  0  0  0  0  0  0  0  0  0  0
   -0.1507  -15.4364    1.0075 C   0  0  0  0  0  0  0  0  0  0  0  0
   -0.2761  -14.0581    1.2370 C   0  0  0  0  0  0  0  0  0  0  0  0
    1.5638   -5.6558    2.6514 Cl  0  0  0  0  0  0  0  0  0  0  0  0
    1.4846   -9.4447   -0.3899 Cl  0  0  0  0  0  0  0  0  0  0  0  0
   -1.0699  -13.3281    0.4001 Cl  0  0  0  0  0  0  0  0  0  0  0  0
    0.6803  -17.7635    1.6247 Br  0  0  0  0  0  0  0  0  0  0  0  0
   -1.0628  -16.0987    0.0018 O   0  0  0  0  0  0  0  0  0  0  0  0
  3  7  1  0
  7  8  2  3
  8  9  1  0
  6 15  1  0
  4 16  1  0
 14 17  1  0
 12 18  1  0
 13 19  1  0
  1  2  2  0
  2  3  1  0
  3  4  2  0
  4  5  1  0
  5  6  2  0
  1  6  1  0
  9 10  2  0
 10 11  1  0
 11 12  2  0
 12 13  1  0
 13 14  2  0
  9 14  1  0
M  END

$$$$
No_2243-/export/home/yangzhenyu/potential_scad_32_flow//YTHDC2/2024-12-06-03-22-00/
     RDKit          3D

 18 19  0  0  0  0  0  0  0  0999 V2000
    1.1787   -8.0297    3.5154 C   0  0  0  0  0  0  0  0  0  0  0  0
    1.1048   -9.2215    3.2892 C   0  0  0  0  0  0  0  0  0  0  0  0
    1.3627  -10.1721    4.3044 C   0  0  0  0  0  0  0  0  0  0  0  0
    1.0682  -11.5187    4.0618 C   0  0  0  0  0  0  0  0  0  0  0  0
    0.6332  -11.9655    2.9682 C   0  0  0  0  0  0  0  0  0  0  0  0
    0.4776  -11.1308    1.9203 C   0  0  0  0  0  0  0  0  0  0  0  0
    0.7470   -9.8274    2.0368 C   0  0  0  0  0  0  0  0  0  0  0  0
    0.5535   -7.1314    2.6861 C   0  0  0  0  0  0  0  0  0  0  0  0
    0.2950   -7.6000    1.3275 C   0  0  0  0  0  0  0  0  0  0  0  0
    0.2693   -8.8631    1.0973 C   0  0  0  0  0  0  0  0  0  0  0  0
    0.4787  -13.3960    2.7088 C   0  0  0  0  0  0  0  0  0  0  0  0
   -0.7335  -13.8737    2.3241 O   0  0  0  0  0  0  0  0  0  0  0  0
    1.5034  -14.2567    2.5384 N   0  0  0  0  0  0  0  0  0  0  0  0
    1.5163  -15.5720    2.3764 C   0  0  0  0  0  0  0  0  0  0  0  0
    0.8048  -16.4476    3.1188 C   0  0  0  0  0  0  0  0  0  0  0  0
    0.4496  -16.2393    4.2977 C   0  0  0  0  0  0  0  0  0  0  0  0
   -0.1999  -17.2183    5.0800 C   0  0  0  0  0  0  0  0  0  0  0  0
   -0.5061  -18.3450    4.4480 C   0  0  0  0  0  0  0  0  0  0  0  0
  5 11  1  0
 11 12  2  0
 11 13  1  0
 13 14  1  0
 14 15  1  0
 15 16  1  0
 16 17  2  3
 17 18  1  0
  2  3  1  0
  3  4  2  0
  4  5  1  0
  5  6  2  0
  6  7  1  0
  1  2  2  0
  2  7  1  0
  7 10  2  0
  9 10  1  0
  8  9  2  0
  1  8  1  0
M  END

$$$$
No_2244-/export/home/yangzhenyu/potential_scad_32_flow//YTHDC2/2024-12-06-03-22-00/
     RDKit          3D

 18 18  0  0  1  0  0  0  0  0999 V2000
    1.1787   -8.0297    3.5154 C   0  0  0  0  0  0  0  0  0  0  0  0
    1.0491   -6.8434    2.9820 C   0  0  0  0  0  0  0  0  0  0  0  0
    0.9905   -9.0774    2.6527 C   0  0  0  0  0  0  0  0  0  0  0  0
    0.7897   -8.9519    1.3691 C   0  0  0  0  0  0  0  0  0  0  0  0
    0.7018   -7.7198    0.7892 C   0  0  0  0  0  0  0  0  0  0  0  0
    0.8918   -6.5957    1.6117 C   0  0  0  0  0  0  0  0  0  0  0  0
    1.0711  -10.4814    3.2282 C   0  0  0  0  0  0  0  0  0  0  0  0
   -0.1055  -11.1328    3.5223 C   0  0  0  0  0  0  0  0  0  0  0  0
   -1.2061  -10.3495    3.8837 O   0  0  0  0  0  0  0  0  0  0  0  0
   -0.2758  -12.3582    3.4655 O   0  0  0  0  0  0  0  0  0  0  0  0
    0.8462   -5.3040    1.0899 C   0  0  0  0  0  0  0  0  0  0  0  0
    2.2259  -11.1203    3.4244 C   0  0  0  0  0  0  0  0  0  0  0  0
    2.3679  -11.8517    4.7257 C   0  0  0  0  0  0  0  0  0  0  0  0
   -0.3242   -4.7707    0.7011 C   0  0  2  0  0  0  0  0  0  0  0  0
   -0.4645   -3.4976    0.1699 C   0  0  0  0  0  0  0  0  0  0  0  0
    0.3421   -2.5201    0.7873 C   0  0  0  0  0  0  0  0  0  0  0  0
   -1.6138   -5.3428    1.0171 C   0  0  0  0  0  0  0  0  0  0  0  0
   -2.6039   -4.7295    0.8498 O   0  0  0  0  0  0  0  0  0  0  0  0
  3  7  1  0
  7  8  1  0
  8  9  1  0
  8 10  2  0
  6 11  1  0
  7 12  1  0
 12 13  1  0
 14 11  1  1
 14 15  1  0
 15 16  2  0
 14 17  1  0
 17 18  2  0
  1  2  2  0
  2  6  1  0
  5  6  2  0
  4  5  1  0
  3  4  2  0
  1  3  1  0
M  END

$$$$
No_2245-/export/home/yangzhenyu/potential_scad_32_flow//YTHDC2/2024-12-06-03-22-00/
     RDKit          3D

 18 19  0  0  1  0  0  0  0  0999 V2000
    1.1787   -8.0297    3.5154 C   0  0  0  0  0  0  0  0  0  0  0  0
    1.1048   -9.2215    3.2892 C   0  0  2  0  0  0  0  0  0  0  0  0
    1.3627  -10.1721    4.3044 C   0  0  0  0  0  0  0  0  0  0  0  0
    1.7354  -11.4730    3.9023 C   0  0  0  0  0  0  0  0  0  0  0  0
    1.6166  -11.5515    2.5159 C   0  0  2  0  0  0  0  0  0  0  0  0
    1.4080  -10.1475    2.0704 C   0  0  2  0  0  0  0  0  0  0  0  0
    1.0837   -7.1462    2.2374 C   0  0  2  0  0  0  0  0  0  0  0  0
    1.3901   -7.8684    1.0270 C   0  0  0  0  0  0  0  0  0  0  0  0
    1.5319   -9.2097    0.9492 C   0  0  0  0  0  0  0  0  0  0  0  0
    1.7058   -9.7243   -0.2487 O   0  0  0  0  0  0  0  0  0  0  0  0
    0.9036  -12.3803    1.8659 C   0  0  0  0  0  0  0  0  0  0  0  0
   -0.3791  -12.0846    1.4434 O   0  0  0  0  0  0  0  0  0  0  0  0
    1.4995  -13.3237    1.1211 N   0  0  0  0  0  0  0  0  0  0  0  0
    0.9841   -5.5496    2.3079 C   0  0  0  0  0  0  0  0  0  0  0  0
    2.8000  -13.7848    1.4746 C   0  0  0  0  0  0  0  0  0  0  0  0
    0.4788   -5.0114    1.3099 O   0  0  0  0  0  0  0  0  0  0  0  0
    1.5266   -5.0524    3.3493 O   0  0  0  0  0  0  0  0  0  0  0  0
    2.5677  -14.7759    2.5962 C   0  0  0  0  0  0  0  0  0  0  0  0
  2  1  1  1
  2  3  1  0
  3  4  2  0
  4  5  1  0
  2  6  1  0
  5  6  1  0
  7  8  1  0
  6  9  1  1
  8  9  1  0
  9 10  2  0
  5 11  1  1
 11 12  2  0
 11 13  1  0
  7 14  1  1
 13 15  1  0
 14 16  2  0
 14 17  1  0
 15 18  1  0
  1  7  1  0
M  END

$$$$
No_2246-/export/home/yangzhenyu/potential_scad_32_flow//YTHDC2/2024-12-06-03-22-00/
     RDKit          3D

 19 20  0  0  1  0  0  0  0  0999 V2000
    1.1787   -8.0297    3.5154 C   0  0  0  0  0  0  0  0  0  0  0  0
    1.1048   -9.2215    3.2892 C   0  0  0  0  0  0  0  0  0  0  0  0
    1.3627  -10.1721    4.3044 C   0  0  0  0  0  0  0  0  0  0  0  0
    1.0682  -11.5187    4.0618 C   0  0  0  0  0  0  0  0  0  0  0  0
    0.6332  -11.9655    2.9682 C   0  0  0  0  0  0  0  0  0  0  0  0
    0.4776  -11.1308    1.9203 C   0  0  0  0  0  0  0  0  0  0  0  0
    0.7470   -9.8274    2.0368 C   0  0  0  0  0  0  0  0  0  0  0  0
    0.5536   -7.1314    2.6860 C   0  0  2  0  0  0  0  0  0  0  0  0
    0.2951   -7.6000    1.3275 C   0  0  0  0  0  0  0  0  0  0  0  0
    0.2693   -8.8631    1.0973 C   0  0  1  0  0  0  0  0  0  0  0  0
   -0.0069   -6.7080    0.3888 O   0  0  0  0  0  0  0  0  0  0  0  0
    0.4773  -13.6209    2.7227 C   0  0  0  0  0  0  0  0  0  0  0  0
   -0.6029  -14.0051    2.5513 O   0  0  0  0  0  0  0  0  0  0  0  0
    1.5807  -14.3264    3.0934 O   0  0  0  0  0  0  0  0  0  0  0  0
    0.0291   -9.3346   -0.1642 C   0  0  0  0  0  0  0  0  0  0  0  0
   -1.3543   -9.7233   -0.3872 O   0  0  0  0  0  0  0  0  0  0  0  0
    0.7799   -9.1862   -1.2001 O   0  0  0  0  0  0  0  0  0  0  0  0
    0.7820   -5.6513    2.8841 O   0  0  0  0  0  0  0  0  0  0  0  0
    2.0145   -4.9906    3.1294 C   0  0  0  0  0  0  0  0  0  0  0  0
  1  2  1  0
  8  9  1  0
  7 10  1  0
  9 10  1  0
  9 11  2  0
  5 12  1  0
 12 13  2  0
 12 14  1  0
 10 15  1  6
 15 16  1  0
 15 17  2  0
  8 18  1  6
 18 19  1  0
  1  8  1  0
  2  3  2  0
  3  4  1  0
  4  5  2  0
  5  6  1  0
  6  7  2  0
  2  7  1  0
M  END

$$$$
No_2247-/export/home/yangzhenyu/potential_scad_32_flow//YTHDC2/2024-12-06-03-22-00/
     RDKit          3D

 20 22  0  0  0  0  0  0  0  0999 V2000
    1.1787   -8.0297    3.5154 C   0  0  0  0  0  0  0  0  0  0  0  0
    1.1048   -9.2215    3.2892 C   0  0  0  0  0  0  0  0  0  0  0  0
    1.3627  -10.1721    4.3044 C   0  0  0  0  0  0  0  0  0  0  0  0
    1.7354  -11.4730    3.9023 C   0  0  0  0  0  0  0  0  0  0  0  0
    1.8080  -11.8127    2.7216 C   0  0  0  0  0  0  0  0  0  0  0  0
    1.4028  -10.9289    1.8117 C   0  0  0  0  0  0  0  0  0  0  0  0
    1.2324   -9.6663    1.9861 C   0  0  0  0  0  0  0  0  0  0  0  0
    1.1223   -8.7716    0.9645 C   0  0  0  0  0  0  0  0  0  0  0  0
    0.6910   -7.5259    1.1890 C   0  0  0  0  0  0  0  0  0  0  0  0
    0.8699   -6.9773    2.4690 C   0  0  0  0  0  0  0  0  0  0  0  0
    0.7725   -5.5968    2.6775 C   0  0  0  0  0  0  0  0  0  0  0  0
    1.9775  -13.2469    2.4170 C   0  0  0  0  0  0  0  0  0  0  0  0
    1.1945  -14.0119    1.6564 N   0  0  0  0  0  0  0  0  0  0  0  0
    1.6485  -14.8861    1.0069 C   0  0  0  0  0  0  0  0  0  0  0  0
    0.7479  -15.5659    0.1498 C   0  0  0  0  0  0  0  0  0  0  0  0
   -0.3986  -14.9002   -0.0644 C   0  0  0  0  0  0  0  0  0  0  0  0
   -0.7538  -13.7484    0.4231 C   0  0  0  0  0  0  0  0  0  0  0  0
    0.0787  -13.1472    1.3675 C   0  0  0  0  0  0  0  0  0  0  0  0
   -0.3127   -5.0145    2.1436 C   0  0  0  0  0  0  0  0  0  0  0  0
   -1.3440   -5.6854    1.5941 C   0  0  0  0  0  0  0  0  0  0  0  0
 10 11  1  0
  5 12  1  0
 12 13  1  0
 13 14  1  0
 15 16  1  0
 13 18  1  0
 17 18  1  0
 11 19  2  3
 19 20  1  0
 14 15  1  0
 16 17  1  0
  1  2  2  0
  7  8  2  0
  8  9  1  0
  9 10  2  0
  1 10  1  0
  2  3  1  0
  3  4  2  0
  4  5  1  0
  5  6  2  0
  6  7  1  0
  2  7  1  0
M  END

$$$$
No_2248-/export/home/yangzhenyu/potential_scad_32_flow//YTHDC2/2024-12-06-03-22-00/
     RDKit          3D

 12 12  0  0  0  0  0  0  0  0999 V2000
    1.1787   -8.0297    3.5154 C   0  0  0  0  0  0  0  0  0  0  0  0
    1.1048   -9.2215    3.2892 C   0  0  0  0  0  0  0  0  0  0  0  0
    1.3627  -10.1721    4.3044 C   0  0  0  0  0  0  0  0  0  0  0  0
    1.0682  -11.5187    4.0618 C   0  0  0  0  0  0  0  0  0  0  0  0
    0.6332  -11.9655    2.9682 C   0  0  0  0  0  0  0  0  0  0  0  0
    0.4776  -11.1308    1.9203 C   0  0  0  0  0  0  0  0  0  0  0  0
    0.7470   -9.8274    2.0368 C   0  0  0  0  0  0  0  0  0  0  0  0
    1.8805   -7.1616    3.5539 O   0  0  0  0  0  0  0  0  0  0  0  0
   -0.2411   -7.5021    3.1832 O   0  0  0  0  0  0  0  0  0  0  0  0
    0.3673  -13.3605    2.7498 C   0  0  0  0  0  0  0  0  0  0  0  0
    1.3281  -14.3057    3.1481 C   0  0  0  0  0  0  0  0  0  0  0  0
    1.4692  -15.5348    2.5218 C   0  0  0  0  0  0  0  0  0  0  0  0
  1  2  1  0
  1  8  2  0
  1  9  1  0
  5 10  1  0
 10 11  1  0
 11 12  1  0
  2  3  2  0
  3  4  1  0
  4  5  2  0
  5  6  1  0
  6  7  2  0
  2  7  1  0
M  END

$$$$
No_2249-/export/home/yangzhenyu/potential_scad_32_flow//YTHDC2/2024-12-06-03-22-00/
     RDKit          3D

 17 18  0  0  0  0  0  0  0  0999 V2000
    1.1787   -8.0297    3.5154 C   0  0  0  0  0  0  0  0  0  0  0  0
    1.0491   -6.8434    2.9820 C   0  0  0  0  0  0  0  0  0  0  0  0
    0.9905   -9.0774    2.6527 C   0  0  0  0  0  0  0  0  0  0  0  0
    1.1655  -10.4663    3.1286 C   0  0  0  0  0  0  0  0  0  0  0  0
    1.2197  -11.4898    2.5831 C   0  0  0  0  0  0  0  0  0  0  0  0
    1.0589  -11.4458    1.1293 C   0  0  0  0  0  0  0  0  0  0  0  0
    0.9638  -10.3069    0.4651 C   0  0  0  0  0  0  0  0  0  0  0  0
    0.9191   -9.0789    1.1942 C   0  0  0  0  0  0  0  0  0  0  0  0
    0.9198   -7.8339    0.6158 C   0  0  0  0  0  0  0  0  0  0  0  0
    1.0184   -6.6904    1.4953 C   0  0  0  0  0  0  0  0  0  0  0  0
    1.3445  -12.8197    3.0746 C   0  0  0  0  0  0  0  0  0  0  0  0
    0.2302  -13.7310    2.9230 O   0  0  0  0  0  0  0  0  0  0  0  0
    0.7458  -15.0725    3.1879 C   0  0  0  0  0  0  0  0  0  0  0  0
    1.3368   -5.5995    3.6551 O   0  0  0  0  0  0  0  0  0  0  0  0
    1.9014  -15.4428    2.5158 C   0  0  0  0  0  0  0  0  0  0  0  0
    2.3305  -16.8124    2.6693 C   0  0  0  0  0  0  0  0  0  0  0  0
    1.5815  -17.5121    3.5821 C   0  0  0  0  0  0  0  0  0  0  0  0
  1  2  1  0
  8  9  1  0
  2 10  1  0
  5 11  1  0
 11 12  1  0
 12 13  1  0
  2 14  2  0
 13 15  1  0
 15 16  2  3
 16 17  1  0
  1  3  1  0
  9 10  1  0
  3  4  2  0
  4  5  1  0
  5  6  2  0
  6  7  1  0
  7  8  2  0
  3  8  1  0
M  END

$$$$
No_2250-/export/home/yangzhenyu/potential_scad_32_flow//YTHDC2/2024-12-06-03-22-00/
     RDKit          3D

 21 21  0  0  1  0  0  0  0  0999 V2000
    1.1787   -8.0297    3.5154 C   0  0  0  0  0  0  0  0  0  0  0  0
    1.1048   -9.2215    3.2892 C   0  0  0  0  0  0  0  0  0  0  0  0
    1.4683  -10.2314    4.1915 C   0  0  0  0  0  0  0  0  0  0  0  0
    0.8445   -6.9865    2.5175 C   0  0  0  0  0  0  0  0  0  0  0  0
    0.3587   -7.3973    1.3953 C   0  0  0  0  0  0  0  0  0  0  0  0
    0.1901   -8.6971    1.0711 C   0  0  0  0  0  0  0  0  0  0  0  0
    0.5759   -9.6648    1.9442 C   0  0  0  0  0  0  0  0  0  0  0  0
    1.8402  -11.5521    3.5557 C   0  0  0  0  0  0  0  0  0  0  0  0
    1.0193  -12.1914    2.8655 C   0  0  0  0  0  0  0  0  0  0  0  0
    1.4147  -13.4384    2.2162 C   0  0  1  0  0  0  0  0  0  0  0  0
    1.8838  -13.1220    0.9605 C   0  0  0  0  0  0  0  0  0  0  0  0
   -0.0287   -6.3892    0.3038 O   0  0  0  0  0  0  0  0  0  0  0  0
    1.6424  -14.6426    2.7432 C   0  0  0  0  0  0  0  0  0  0  0  0
    2.3258  -15.5790    1.9696 C   0  0  0  0  0  0  0  0  0  0  0  0
    1.8810  -16.6286    1.7282 C   0  0  1  0  0  0  0  0  0  0  0  0
    2.5200  -17.9058    2.0641 C   0  0  0  0  0  0  0  0  0  0  0  0
    0.4601  -16.7972    2.1394 C   0  0  0  0  0  0  0  0  0  0  0  0
    1.0553   -5.4092    2.9295 O   0  0  0  0  0  0  0  0  0  0  0  0
   -0.5098  -16.5028    1.3196 O   0  0  0  0  0  0  0  0  0  0  0  0
    0.0632  -17.5555    3.3050 C   0  0  0  0  0  0  0  0  0  0  0  0
    0.7909  -17.7718    4.3188 C   0  0  0  0  0  0  0  0  0  0  0  0
  2  3  1  0
  3  8  1  0
  8  9  1  0
  9 10  1  0
 10 11  1  1
  5 12  1  0
 10 13  1  0
 13 14  1  0
 14 15  1  0
 15 16  1  1
 15 17  1  0
  4 18  1  0
 17 19  2  0
 17 20  1  0
 20 21  1  0
  1  2  2  0
  2  7  1  0
  6  7  2  0
  5  6  1  0
  4  5  2  0
  1  4  1  0
M  END

$$$$
No_2251-/export/home/yangzhenyu/potential_scad_32_flow//YTHDC2/2024-12-06-03-22-00/
     RDKit          3D

 17 18  0  0  1  0  0  0  0  0999 V2000
    1.1787   -8.0297    3.5154 C   0  0  0  0  0  0  0  0  0  0  0  0
    1.0491   -6.8434    2.9820 C   0  0  0  0  0  0  0  0  0  0  0  0
    0.0950   -8.8404    3.2292 C   0  0  0  0  0  0  0  0  0  0  0  0
   -0.9173   -8.4596    2.5152 C   0  0  0  0  0  0  0  0  0  0  0  0
   -1.0331   -7.2162    2.0653 C   0  0  0  0  0  0  0  0  0  0  0  0
   -0.0105   -6.3168    2.3081 C   0  0  0  0  0  0  0  0  0  0  0  0
    0.1465  -10.2446    3.6981 C   0  0  2  0  0  0  0  0  0  0  0  0
    1.2433  -10.8239    4.0166 C   0  0  0  0  0  0  0  0  0  0  0  0
    1.6493  -11.8557    3.2298 C   0  0  0  0  0  0  0  0  0  0  0  0
    0.4418  -12.6279    2.8482 C   0  0  1  0  0  0  0  0  0  0  0  0
   -0.6360  -11.9577    2.6276 C   0  0  0  0  0  0  0  0  0  0  0  0
   -0.9542  -10.8989    3.2746 C   0  0  0  0  0  0  0  0  0  0  0  0
    0.8598  -13.8884    2.3503 C   0  0  0  0  0  0  0  0  0  0  0  0
    0.0060  -14.8502    2.1718 C   0  0  0  0  0  0  0  0  0  0  0  0
    2.2866  -14.2450    2.1933 C   0  0  0  0  0  0  0  0  0  0  0  0
    2.5754  -15.5429    1.9153 C   0  0  0  0  0  0  0  0  0  0  0  0
    1.7287  -16.4697    1.8014 C   0  0  0  0  0  0  0  0  0  0  0  0
  7  3  1  6
  7  8  1  0
  8  9  1  0
  9 10  1  0
 10 11  1  0
  7 12  1  0
 11 12  1  0
 10 13  1  6
 13 14  2  0
 13 15  1  0
 15 16  2  3
 16 17  1  0
  1  2  2  0
  2  6  1  0
  5  6  2  0
  4  5  1  0
  3  4  2  0
  1  3  1  0
M  END

$$$$
No_2252-/export/home/yangzhenyu/potential_scad_32_flow//YTHDC2/2024-12-06-03-22-00/
     RDKit          3D

 17 17  0  0  0  0  0  0  0  0999 V2000
    1.1787   -8.0297    3.5154 C   0  0  0  0  0  0  0  0  0  0  0  0
    1.1048   -9.2215    3.2892 C   0  0  0  0  0  0  0  0  0  0  0  0
    1.2339   -9.7611    2.0189 C   0  0  0  0  0  0  0  0  0  0  0  0
    1.3583   -9.0036    0.9764 C   0  0  0  0  0  0  0  0  0  0  0  0
    1.5996   -7.6362    1.1311 C   0  0  0  0  0  0  0  0  0  0  0  0
    1.4830   -7.0928    2.3626 C   0  0  0  0  0  0  0  0  0  0  0  0
    1.1008  -11.2372    1.8542 F   0  0  0  0  0  0  0  0  0  0  0  0
    1.5699   -9.5772   -0.2993 Br  0  0  0  0  0  0  0  0  0  0  0  0
    1.4766   -5.6375    2.6273 C   0  0  0  0  0  0  0  0  0  0  0  0
    0.4744   -4.8685    2.7206 N   0  0  0  0  0  0  0  0  0  0  0  0
   -0.7245   -5.2749    2.2997 C   0  0  0  0  0  0  0  0  0  0  0  0
    0.5886   -3.5083    3.1478 C   0  0  0  0  0  0  0  0  0  0  0  0
   -1.8730   -4.9451    2.9310 O   0  0  0  0  0  0  0  0  0  0  0  0
   -0.9872   -5.7049    0.9908 O   0  0  0  0  0  0  0  0  0  0  0  0
    0.9777  -10.2976    4.6195 Cl  0  0  0  0  0  0  0  0  0  0  0  0
    0.9991   -2.7918    2.1610 C   0  0  0  0  0  0  0  0  0  0  0  0
    1.2032   -1.6762    2.1111 C   0  0  0  0  0  0  0  0  0  0  0  0
  3  7  1  0
  4  8  1  0
  6  9  1  0
  9 10  1  0
 10 11  1  0
 10 12  1  0
 11 13  1  0
 11 14  2  0
  2 15  1  0
 12 16  1  0
 16 17  2  0
  1  2  2  0
  2  3  1  0
  3  4  2  0
  4  5  1  0
  5  6  2  0
  1  6  1  0
M  END

$$$$
No_2253-/export/home/yangzhenyu/potential_scad_32_flow//YTHDC2/2024-12-06-03-22-00/
     RDKit          3D

 18 20  0  0  0  0  0  0  0  0999 V2000
    1.1787   -8.0297    3.5154 C   0  0  0  0  0  0  0  0  0  0  0  0
    1.0491   -6.8434    2.9820 C   0  0  0  0  0  0  0  0  0  0  0  0
    0.0950   -8.8404    3.2292 C   0  0  0  0  0  0  0  0  0  0  0  0
   -0.9173   -8.4596    2.5152 C   0  0  0  0  0  0  0  0  0  0  0  0
   -1.0331   -7.2162    2.0653 C   0  0  0  0  0  0  0  0  0  0  0  0
   -0.0105   -6.3168    2.3081 C   0  0  0  0  0  0  0  0  0  0  0  0
    0.1150   -4.9910    1.8495 C   0  0  0  0  0  0  0  0  0  0  0  0
    0.9121   -4.1017    2.4010 N   0  0  0  0  0  0  0  0  0  0  0  0
   -0.7467   -4.4284    0.9350 C   0  0  0  0  0  0  0  0  0  0  0  0
   -0.4967   -3.0611    0.6425 C   0  0  0  0  0  0  0  0  0  0  0  0
    0.4618   -2.3162    1.1191 C   0  0  0  0  0  0  0  0  0  0  0  0
    1.2472   -2.9106    2.0154 C   0  0  0  0  0  0  0  0  0  0  0  0
    0.2105  -10.2153    3.7795 C   0  0  0  0  0  0  0  0  0  0  0  0
    1.2725  -10.8704    4.1054 C   0  0  0  0  0  0  0  0  0  0  0  0
    1.1018  -12.2787    4.4620 C   0  0  0  0  0  0  0  0  0  0  0  0
    0.1964  -12.9739    3.6304 C   0  0  0  0  0  0  0  0  0  0  0  0
   -0.5297  -12.0431    2.8104 C   0  0  0  0  0  0  0  0  0  0  0  0
   -0.6918  -10.8372    2.9402 C   0  0  0  0  0  0  0  0  0  0  0  0
  6  7  1  0
  3 13  1  0
 13 14  2  0
 14 15  1  0
 15 16  2  0
 16 17  1  0
 17 18  2  0
 13 18  1  0
  1  2  2  0
  2  6  1  0
  5  6  2  0
  4  5  1  0
  3  4  2  0
  1  3  1  0
  7  8  2  0
  8 12  1  0
 11 12  2  0
 10 11  1  0
  9 10  2  0
  7  9  1  0
M  END

$$$$
No_2254-/export/home/yangzhenyu/potential_scad_32_flow//YTHDC2/2024-12-06-03-22-00/
     RDKit          3D

 18 18  0  0  1  0  0  0  0  0999 V2000
    1.1787   -8.0297    3.5154 O   0  0  0  0  0  0  0  0  0  0  0  0
    0.9969   -8.9689    3.0048 C   0  0  0  0  0  0  0  0  0  0  0  0
    1.3055  -10.1056    3.6616 C   0  0  0  0  0  0  0  0  0  0  0  0
    1.1249  -11.3503    3.0941 C   0  0  0  0  0  0  0  0  0  0  0  0
    0.6932  -11.4484    1.8586 C   0  0  0  0  0  0  0  0  0  0  0  0
    0.5498  -10.3736    1.0579 C   0  0  0  0  0  0  0  0  0  0  0  0
    0.7643   -9.1185    1.6383 C   0  0  0  0  0  0  0  0  0  0  0  0
    0.5937   -7.8467    1.0482 C   0  0  0  0  0  0  0  0  0  0  0  0
   -0.4358   -7.6746    0.4159 O   0  0  0  0  0  0  0  0  0  0  0  0
    1.5404   -6.9777    0.8453 O   0  0  0  0  0  0  0  0  0  0  0  0
    1.1769  -12.6398    3.8403 C   0  0  0  0  0  0  0  0  0  0  0  0
    1.4171  -13.7378    2.9657 O   0  0  0  0  0  0  0  0  0  0  0  0
    0.6119  -14.8770    3.1814 C   0  0  0  0  0  0  0  0  0  0  0  0
    0.9864  -15.7525    2.0205 C   0  0  2  0  0  0  0  0  0  0  0  0
    1.4407  -15.2661    0.9781 C   0  0  0  0  0  0  0  0  0  0  0  0
    2.5135  -14.6432    0.9342 N   0  0  0  0  0  0  0  0  0  0  0  0
    0.8140  -15.4912   -0.1287 O   0  0  0  0  0  0  0  0  0  0  0  0
    0.5867  -17.0701    2.3179 C   0  0  0  0  0  0  0  0  0  0  0  0
  1  2  1  0
  7  8  1  0
  8  9  2  0
  8 10  1  0
  4 11  1  0
 11 12  1  0
 12 13  1  0
 13 14  1  0
 14 15  1  0
 15 16  1  0
 15 17  2  0
 14 18  1  6
  2  3  2  0
  3  4  1  0
  4  5  2  0
  5  6  1  0
  6  7  2  0
  2  7  1  0
M  END

$$$$
No_2255-/export/home/yangzhenyu/potential_scad_32_flow//YTHDC2/2024-12-06-03-22-00/
     RDKit          3D

 18 20  0  0  0  0  0  0  0  0999 V2000
    1.1787   -8.0297    3.5154 C   0  0  0  0  0  0  0  0  0  0  0  0
    1.0491   -6.8434    2.9820 C   0  0  0  0  0  0  0  0  0  0  0  0
    0.0950   -8.8404    3.2292 C   0  0  0  0  0  0  0  0  0  0  0  0
   -0.9173   -8.4596    2.5152 C   0  0  0  0  0  0  0  0  0  0  0  0
   -1.0331   -7.2162    2.0653 C   0  0  0  0  0  0  0  0  0  0  0  0
   -0.0105   -6.3168    2.3081 C   0  0  0  0  0  0  0  0  0  0  0  0
    0.1935  -10.3737    3.7416 C   0  0  0  0  0  0  0  0  0  0  0  0
   -0.9968  -11.0614    3.6410 C   0  0  0  0  0  0  0  0  0  0  0  0
   -2.0651  -10.5736    2.9123 C   0  0  0  0  0  0  0  0  0  0  0  0
   -2.0392   -9.2902    2.3541 C   0  0  0  0  0  0  0  0  0  0  0  0
   -3.1781  -11.3582    2.7993 C   0  0  0  0  0  0  0  0  0  0  0  0
   -0.0283   -4.7554    1.7912 C   0  0  0  0  0  0  0  0  0  0  0  0
   -3.0396  -12.6325    2.2736 C   0  0  0  0  0  0  0  0  0  0  0  0
   -4.1915  -13.4770    2.3771 C   0  0  0  0  0  0  0  0  0  0  0  0
   -4.8822  -13.4520    3.1256 C   0  0  0  0  0  0  0  0  0  0  0  0
   -5.1440  -12.3213    4.0684 C   0  0  0  0  0  0  0  0  0  0  0  0
   -4.1802  -11.3037    3.9347 C   0  0  0  0  0  0  0  0  0  0  0  0
    0.8826   -4.0777    2.1530 O   0  0  0  0  0  0  0  0  0  0  0  0
  9 11  1  0
  6 12  1  0
 12 18  2  0
  4 10  2  0
  9 10  1  0
  8  9  2  0
  7  8  1  0
  3  7  2  0
  1  2  2  0
  2  6  1  0
  5  6  2  0
  4  5  1  0
  3  4  1  0
  1  3  1  0
 11 13  2  0
 13 14  1  0
 14 15  2  0
 15 16  1  0
 16 17  2  0
 11 17  1  0
M  END

$$$$
No_2256-/export/home/yangzhenyu/potential_scad_32_flow//YTHDC2/2024-12-06-03-22-00/
     RDKit          3D

 19 21  0  0  0  0  0  0  0  0999 V2000
    1.1787   -8.0297    3.5154 C   0  0  0  0  0  0  0  0  0  0  0  0
    1.1048   -9.2215    3.2892 C   0  0  0  0  0  0  0  0  0  0  0  0
    1.0239   -9.7790    2.0239 C   0  0  0  0  0  0  0  0  0  0  0  0
    1.1393   -9.0211    0.9686 C   0  0  0  0  0  0  0  0  0  0  0  0
    1.4051   -7.6500    1.1251 C   0  0  0  0  0  0  0  0  0  0  0  0
    1.4868   -7.1041    2.3534 C   0  0  0  0  0  0  0  0  0  0  0  0
    1.5562   -5.7208    2.5782 C   0  0  0  0  0  0  0  0  0  0  0  0
    0.8782  -11.3633    1.9235 C   0  0  0  0  0  0  0  0  0  0  0  0
   -0.2042  -11.6972    1.2253 C   0  0  0  0  0  0  0  0  0  0  0  0
   -1.2491  -10.8156    0.8048 C   0  0  0  0  0  0  0  0  0  0  0  0
   -2.1826  -10.3733    1.5823 C   0  0  0  0  0  0  0  0  0  0  0  0
   -3.1362   -9.5280    1.1121 C   0  0  0  0  0  0  0  0  0  0  0  0
   -3.2576   -9.1414   -0.2187 C   0  0  0  0  0  0  0  0  0  0  0  0
   -4.1520   -8.0886   -0.5426 C   0  0  0  0  0  0  0  0  0  0  0  0
   -4.0354   -7.5342   -1.7873 C   0  0  0  0  0  0  0  0  0  0  0  0
   -3.1006   -8.0248   -2.7508 C   0  0  0  0  0  0  0  0  0  0  0  0
   -2.1168   -8.9593   -2.3862 C   0  0  0  0  0  0  0  0  0  0  0  0
   -2.1361   -9.5035   -1.0400 C   0  0  0  0  0  0  0  0  0  0  0  0
   -1.2609  -10.4560   -0.6370 N   0  0  0  0  0  0  0  0  0  0  0  0
  6  7  1  0
  3  8  1  0
  8  9  2  3
  9 10  1  0
  1  2  2  0
  2  3  1  0
  3  4  2  0
  4  5  1  0
  5  6  2  0
  1  6  1  0
 13 14  1  0
 14 15  2  0
 15 16  1  0
 16 17  2  0
 17 18  1  0
 10 11  2  0
 11 12  1  0
 12 13  2  0
 13 18  1  0
 18 19  2  0
 10 19  1  0
M  END

$$$$
No_2257-/export/home/yangzhenyu/potential_scad_32_flow//YTHDC2/2024-12-06-03-22-00/
     RDKit          3D

 17 17  0  0  0  0  0  0  0  0999 V2000
    1.1787   -8.0297    3.5154 C   0  0  0  0  0  0  0  0  0  0  0  0
    1.0491   -6.8434    2.9820 C   0  0  0  0  0  0  0  0  0  0  0  0
    1.9985   -8.9840    2.8958 C   0  0  0  0  0  0  0  0  0  0  0  0
    1.9135  -10.3404    3.6266 C   0  0  0  0  0  0  0  0  0  0  0  0
    1.3291  -11.3908    3.0222 C   0  0  0  0  0  0  0  0  0  0  0  0
    1.2749  -12.5326    3.7562 C   0  0  0  0  0  0  0  0  0  0  0  0
    0.4248   -6.6481    1.7861 O   0  0  0  0  0  0  0  0  0  0  0  0
    1.8980   -5.7285    3.2958 O   0  0  0  0  0  0  0  0  0  0  0  0
    0.6965  -13.6843    3.1541 N   0  0  0  0  0  0  0  0  0  0  0  0
    1.1916  -11.7491    1.7682 C   0  0  0  0  0  0  0  0  0  0  0  0
    0.8819  -12.7812    1.1051 C   0  0  0  0  0  0  0  0  0  0  0  0
    0.6428  -13.8678    1.9891 C   0  0  0  0  0  0  0  0  0  0  0  0
    0.3168  -15.1064    1.5944 C   0  0  0  0  0  0  0  0  0  0  0  0
   -0.6937  -15.3430    0.7628 C   0  0  0  0  0  0  0  0  0  0  0  0
   -1.0297  -16.6125    0.3297 C   0  0  0  0  0  0  0  0  0  0  0  0
   -0.2662  -17.6149    0.9647 C   0  0  0  0  0  0  0  0  0  0  0  0
    0.6574  -17.4999    1.8693 C   0  0  0  0  0  0  0  0  0  0  0  0
  1  2  1  0
  1  3  1  0
  3  4  1  0
  4  5  1  0
  2  7  2  0
  2  8  1  0
 12 13  1  0
 13 14  2  3
 14 15  1  0
 15 16  2  3
 16 17  1  0
  5  6  2  0
  6  9  1  0
  9 12  2  0
 11 12  1  0
 10 11  2  0
  5 10  1  0
M  END

$$$$
No_2258-/export/home/yangzhenyu/potential_scad_32_flow//YTHDC2/2024-12-06-03-22-00/
     RDKit          3D

 19 22  0  0  0  0  0  0  0  0999 V2000
    1.1787   -8.0297    3.5154 C   0  0  0  0  0  0  0  0  0  0  0  0
    1.0491   -6.8434    2.9820 C   0  0  0  0  0  0  0  0  0  0  0  0
    0.0950   -8.8404    3.2292 C   0  0  0  0  0  0  0  0  0  0  0  0
   -0.7663   -8.2602    2.4375 C   0  0  0  0  0  0  0  0  0  0  0  0
   -0.3589   -6.8665    2.1913 C   0  0  0  0  0  0  0  0  0  0  0  0
    0.1385  -10.2460    3.6202 C   0  0  0  0  0  0  0  0  0  0  0  0
    1.1012  -10.8729    4.1203 C   0  0  0  0  0  0  0  0  0  0  0  0
    0.9460  -12.2727    4.3789 C   0  0  0  0  0  0  0  0  0  0  0  0
   -0.1423  -12.7749    3.7515 C   0  0  0  0  0  0  0  0  0  0  0  0
   -0.8583  -11.4457    3.3296 C   0  0  0  0  0  0  0  0  0  0  0  0
   -0.8694   -5.8127    1.6336 C   0  0  0  0  0  0  0  0  0  0  0  0
   -0.2860   -4.6060    1.6428 C   0  0  0  0  0  0  0  0  0  0  0  0
   -0.9488   -3.4325    1.1257 C   0  0  0  0  0  0  0  0  0  0  0  0
   -0.3252   -2.2548    1.0558 C   0  0  0  0  0  0  0  0  0  0  0  0
    1.0609   -2.2399    1.3198 C   0  0  0  0  0  0  0  0  0  0  0  0
    1.7913   -3.3074    1.7283 C   0  0  0  0  0  0  0  0  0  0  0  0
    1.1440   -4.5521    1.8015 C   0  0  0  0  0  0  0  0  0  0  0  0
    1.7433   -5.6738    2.4570 C   0  0  0  0  0  0  0  0  0  0  0  0
   -2.0758  -11.2698    2.8252 C   0  0  0  0  0  0  0  0  0  0  0  0
  1  2  1  0
  1  3  2  0
  3  4  1  0
  3  6  1  0
  6  7  2  0
  7  8  1  0
  8  9  2  0
  6 10  1  0
  9 10  1  0
 10 19  1  0
  4  5  1  0
 12 13  1  0
 13 14  2  0
 14 15  1  0
 15 16  2  0
 16 17  1  0
  2  5  2  0
  5 11  1  0
 11 12  2  0
 12 17  1  0
 17 18  2  0
  2 18  1  0
M  END

$$$$
No_2259-/export/home/yangzhenyu/potential_scad_32_flow//YTHDC2/2024-12-06-03-22-00/
     RDKit          3D

 19 20  0  0  1  0  0  0  0  0999 V2000
    1.1787   -8.0297    3.5154 C   0  0  0  0  0  0  0  0  0  0  0  0
    1.0491   -6.8434    2.9820 C   0  0  0  0  0  0  0  0  0  0  0  0
    0.2462   -8.9560    3.0873 C   0  0  0  0  0  0  0  0  0  0  0  0
    0.3295   -6.5187    1.9069 C   0  0  0  0  0  0  0  0  0  0  0  0
   -0.5260   -8.7862    2.1368 C   0  0  0  0  0  0  0  0  0  0  0  0
   -0.5458   -7.5614    1.5054 C   0  0  0  0  0  0  0  0  0  0  0  0
    0.2879   -5.2870    1.3175 F   0  0  0  0  0  0  0  0  0  0  0  0
    0.3768  -10.3153    3.6711 C   0  0  2  0  0  0  0  0  0  0  0  0
    1.4695  -10.8669    4.0834 C   0  0  0  0  0  0  0  0  0  0  0  0
    1.6359  -12.2507    3.9187 N   0  0  0  0  0  0  0  0  0  0  0  0
    0.5057  -12.8748    3.7184 N   0  0  0  0  0  0  0  0  0  0  0  0
   -0.2652  -11.5415    3.3546 C   0  0  0  0  0  0  0  0  0  0  0  0
   -1.6192  -11.6466    2.8861 C   0  0  0  0  0  0  0  0  0  0  0  0
    2.7531  -10.2103    4.5806 C   0  0  0  0  0  0  0  0  0  0  0  0
    3.6081  -11.1578    5.3939 N   0  0  0  0  0  0  0  0  0  0  0  0
   -1.3864   -7.1713    0.5111 C   0  0  0  0  0  0  0  0  0  0  0  0
   -1.1035   -7.6704   -0.7005 C   0  0  0  0  0  0  0  0  0  0  0  0
   -1.8807   -7.4823   -1.8820 I   0  0  0  0  0  0  0  0  0  0  0  0
   -0.0164   -8.7295   -0.7807 O   0  0  0  0  0  0  0  0  0  0  0  0
  4  7  1  0
  8  3  1  6
  8  9  1  0
  9 10  2  0
 10 11  1  0
  8 12  1  0
 11 12  2  0
 12 13  1  0
  9 14  1  0
 14 15  1  0
  6 16  1  0
 16 17  1  0
 17 18  1  0
 17 19  2  0
  1  2  2  0
  2  4  1  0
  4  6  2  0
  5  6  1  0
  3  5  2  0
  1  3  1  0
M  END

$$$$
No_2260-/export/home/yangzhenyu/potential_scad_32_flow//YTHDC2/2024-12-06-03-22-00/
     RDKit          3D

 17 18  0  0  0  0  0  0  0  0999 V2000
    1.1787   -8.0297    3.5154 C   0  0  0  0  0  0  0  0  0  0  0  0
    1.1048   -9.2215    3.2892 C   0  0  0  0  0  0  0  0  0  0  0  0
    1.3627  -10.1721    4.3044 C   0  0  0  0  0  0  0  0  0  0  0  0
    1.0682  -11.5187    4.0618 C   0  0  0  0  0  0  0  0  0  0  0  0
    0.6332  -11.9655    2.9682 C   0  0  0  0  0  0  0  0  0  0  0  0
    0.4776  -11.1308    1.9203 C   0  0  0  0  0  0  0  0  0  0  0  0
    0.7470   -9.8274    2.0368 C   0  0  0  0  0  0  0  0  0  0  0  0
    1.0387   -7.0301    2.5175 C   0  0  0  0  0  0  0  0  0  0  0  0
    0.9130   -7.5288    1.2013 C   0  0  0  0  0  0  0  0  0  0  0  0
    0.7893   -8.7979    0.9542 C   0  0  0  0  0  0  0  0  0  0  0  0
    0.5241   -9.2578   -0.2817 C   0  0  0  0  0  0  0  0  0  0  0  0
    1.2450   -9.2169   -1.2769 N   0  0  0  0  0  0  0  0  0  0  0  0
   -0.8363   -9.2928   -0.6404 O   0  0  0  0  0  0  0  0  0  0  0  0
    0.5219  -13.3834    2.7051 N   0  0  0  0  0  0  0  0  0  0  0  0
   -0.4954  -13.9530    2.4004 C   0  0  0  0  0  0  0  0  0  0  0  0
   -0.3441  -15.4555    2.3522 C   0  0  0  0  0  0  0  0  0  0  0  0
   -1.2638  -16.2557    2.2659 C   0  0  0  0  0  0  0  0  0  0  0  0
 10 11  1  0
 11 12  1  0
 11 13  2  0
  5 14  1  0
 14 15  1  0
 15 16  1  0
 16 17  2  0
  2  3  1  0
  3  4  2  0
  4  5  1  0
  5  6  2  0
  6  7  1  0
  1  2  2  0
  2  7  1  0
  7 10  2  0
  9 10  1  0
  8  9  2  0
  1  8  1  0
M  END

$$$$
No_2261-/export/home/yangzhenyu/potential_scad_32_flow//YTHDC2/2024-12-06-03-22-00/
     RDKit          3D

 19 19  0  0  0  0  0  0  0  0999 V2000
    1.1787   -8.0297    3.5154 C   0  0  0  0  0  0  0  0  0  0  0  0
    1.1048   -9.2215    3.2892 C   0  0  0  0  0  0  0  0  0  0  0  0
    1.2339   -9.7611    2.0189 C   0  0  0  0  0  0  0  0  0  0  0  0
    1.3583   -9.0036    0.9764 C   0  0  0  0  0  0  0  0  0  0  0  0
    1.5996   -7.6362    1.1311 C   0  0  0  0  0  0  0  0  0  0  0  0
    1.4830   -7.0928    2.3626 C   0  0  0  0  0  0  0  0  0  0  0  0
    1.4898   -5.7274    2.6199 C   0  0  0  0  0  0  0  0  0  0  0  0
    1.1681  -11.2222    1.8390 C   0  0  0  0  0  0  0  0  0  0  0  0
    0.7145  -11.5870    0.5424 O   0  0  0  0  0  0  0  0  0  0  0  0
    1.6081  -12.0518    2.6142 O   0  0  0  0  0  0  0  0  0  0  0  0
    0.6790   -4.9771    2.7220 O   0  0  0  0  0  0  0  0  0  0  0  0
    1.5940   -9.4569   -0.4860 C   0  0  0  0  0  0  0  0  0  0  0  0
    2.6152   -9.6329   -0.8577 O   0  0  0  0  0  0  0  0  0  0  0  0
    0.5157   -9.3427   -1.1486 O   0  0  0  0  0  0  0  0  0  0  0  0
    2.6782   -5.1650    2.9122 N   0  0  0  0  0  0  0  0  0  0  0  0
   -0.5861  -12.1885    0.6631 C   0  0  0  0  0  0  0  0  0  0  0  0
   -0.5974  -13.2887   -0.1582 C   0  0  0  0  0  0  0  0  0  0  0  0
   -1.7439  -14.0152    0.0288 C   0  0  0  0  0  0  0  0  0  0  0  0
   -2.7881  -13.5489    0.7938 C   0  0  0  0  0  0  0  0  0  0  0  0
  6  7  1  0
  3  8  1  0
  8  9  1  0
  8 10  2  0
  7 11  2  0
  4 12  1  0
 12 13  1  0
 12 14  2  0
  7 15  1  0
  9 16  1  0
 16 17  1  0
 17 18  2  3
 18 19  1  0
  1  2  2  0
  2  3  1  0
  3  4  2  0
  4  5  1  0
  5  6  2  0
  1  6  1  0
M  END

$$$$
No_2262-/export/home/yangzhenyu/potential_scad_32_flow//YTHDC2/2024-12-06-03-22-00/
     RDKit          3D

 18 20  0  0  0  0  0  0  0  0999 V2000
    1.1787   -8.0297    3.5154 C   0  0  0  0  0  0  0  0  0  0  0  0
    1.1048   -9.2215    3.2892 C   0  0  0  0  0  0  0  0  0  0  0  0
    1.2339   -9.7611    2.0189 C   0  0  0  0  0  0  0  0  0  0  0  0
    1.3583   -9.0036    0.9764 C   0  0  0  0  0  0  0  0  0  0  0  0
    1.5996   -7.6362    1.1311 C   0  0  0  0  0  0  0  0  0  0  0  0
    1.4830   -7.0928    2.3626 C   0  0  0  0  0  0  0  0  0  0  0  0
    1.1008  -11.2372    1.8542 C   0  0  0  0  0  0  0  0  0  0  0  0
    1.9749  -12.0938    2.2342 C   0  0  0  0  0  0  0  0  0  0  0  0
    1.5180  -13.3509    2.5910 C   0  0  0  0  0  0  0  0  0  0  0  0
    0.4120  -13.9272    2.2191 C   0  0  0  0  0  0  0  0  0  0  0  0
   -0.5860  -13.0563    1.8308 C   0  0  0  0  0  0  0  0  0  0  0  0
   -0.2264  -11.7453    1.4928 C   0  0  0  0  0  0  0  0  0  0  0  0
    1.5759   -5.6593    2.6277 C   0  0  0  0  0  0  0  0  0  0  0  0
    0.0964  -15.2149    2.5390 C   0  0  0  0  0  0  0  0  0  0  0  0
    1.0228  -16.0188    3.2059 N   0  0  0  0  0  0  0  0  0  0  0  0
   -1.1309  -15.7879    2.5963 C   0  0  0  0  0  0  0  0  0  0  0  0
    0.6266  -17.2493    3.4921 C   0  0  0  0  0  0  0  0  0  0  0  0
   -0.7599  -17.1496    3.1568 C   0  0  0  0  0  0  0  0  0  0  0  0
  3  7  1  0
  6 13  1  0
 10 14  1  0
 14 15  2  0
 14 16  1  0
 15 17  1  0
 16 18  2  0
 17 18  1  0
  1  2  2  0
  2  3  1  0
  3  4  2  0
  4  5  1  0
  5  6  2  0
  1  6  1  0
  7  8  2  0
  8  9  1  0
  9 10  2  0
 10 11  1  0
 11 12  2  0
  7 12  1  0
M  END

$$$$
No_2263-/export/home/yangzhenyu/potential_scad_32_flow//YTHDC2/2024-12-06-03-22-00/
     RDKit          3D

 18 19  0  0  1  0  0  0  0  0999 V2000
    1.1787   -8.0297    3.5154 C   0  0  0  0  0  0  0  0  0  0  0  0
    1.0491   -6.8434    2.9820 C   0  0  0  0  0  0  0  0  0  0  0  0
    0.0950   -8.8404    3.2292 C   0  0  0  0  0  0  0  0  0  0  0  0
   -0.9173   -8.4596    2.5152 C   0  0  0  0  0  0  0  0  0  0  0  0
   -1.0331   -7.2162    2.0653 C   0  0  0  0  0  0  0  0  0  0  0  0
   -0.0105   -6.3168    2.3081 C   0  0  0  0  0  0  0  0  0  0  0  0
    0.1465  -10.2446    3.6981 C   0  0  0  0  0  0  0  0  0  0  0  0
    0.1907  -11.3369    2.8651 C   0  0  1  0  0  0  0  0  0  0  0  0
   -0.2018  -11.4456    1.8156 C   0  0  0  0  0  0  0  0  0  0  0  0
   -0.1002  -12.4840    0.9716 C   0  0  0  0  0  0  0  0  0  0  0  0
    0.6847  -13.6389    1.4371 C   0  0  0  0  0  0  0  0  0  0  0  0
    1.2708  -13.5730    2.6365 C   0  0  0  0  0  0  0  0  0  0  0  0
    1.0830  -12.4946    3.4740 C   0  0  0  0  0  0  0  0  0  0  0  0
    1.9507  -14.6682    3.2073 O   0  0  0  0  0  0  0  0  0  0  0  0
    0.0397   -4.9471    1.8524 C   0  0  0  0  0  0  0  0  0  0  0  0
    0.7460   -4.0124    2.4783 C   0  0  0  0  0  0  0  0  0  0  0  0
    0.9097   -2.6318    2.1143 C   0  0  0  0  0  0  0  0  0  0  0  0
   -0.8693   -4.4138    0.8562 C   0  0  0  0  0  0  0  0  0  0  0  0
  3  7  1  0
  8  7  1  6
  9 10  1  0
 11 12  1  0
  8 13  1  0
 12 13  1  0
 12 14  2  0
  6 15  1  0
 15 16  2  3
 16 17  1  0
 15 18  1  0
 10 11  1  0
  8  9  1  0
  1  2  2  0
  2  6  1  0
  5  6  2  0
  4  5  1  0
  3  4  2  0
  1  3  1  0
M  END

$$$$
No_2264-/export/home/yangzhenyu/potential_scad_32_flow//YTHDC2/2024-12-06-03-22-00/
     RDKit          3D

 18 19  0  0  1  0  0  0  0  0999 V2000
    1.1787   -8.0297    3.5154 C   0  0  0  0  0  0  0  0  0  0  0  0
    1.0491   -6.8434    2.9820 C   0  0  0  0  0  0  0  0  0  0  0  0
    0.9905   -9.0774    2.6527 C   0  0  1  0  0  0  0  0  0  0  0  0
    0.7897   -8.9519    1.3691 C   0  0  0  0  0  0  0  0  0  0  0  0
    0.7018   -7.7198    0.7892 C   0  0  0  0  0  0  0  0  0  0  0  0
    0.8918   -6.5957    1.6117 C   0  0  0  0  0  0  0  0  0  0  0  0
    1.0998  -10.4710    3.2437 C   0  0  0  0  0  0  0  0  0  0  0  0
    1.3102  -11.5554    2.5214 C   0  0  1  0  0  0  0  0  0  0  0  0
    1.4257  -12.8124    3.1919 C   0  0  0  0  0  0  0  0  0  0  0  0
    1.4301  -14.0627    2.4374 C   0  0  2  0  0  0  0  0  0  0  0  0
    0.8799   -5.2656    1.2046 O   0  0  0  0  0  0  0  0  0  0  0  0
    1.0324  -15.2246    3.0586 O   0  0  0  0  0  0  0  0  0  0  0  0
    1.9147  -14.2161    1.2997 Cl  0  0  0  0  0  0  0  0  0  0  0  0
    0.6114   -9.9671    0.4197 C   0  0  0  0  0  0  0  0  0  0  0  0
    1.1284  -11.3530    1.1422 C   0  0  0  0  0  0  0  0  0  0  0  0
    0.3510   -9.9696   -0.6865 O   0  0  0  0  0  0  0  0  0  0  0  0
    1.4134  -16.4045    2.6659 C   0  0  0  0  0  0  0  0  0  0  0  0
    2.5554  -16.8190    3.0303 C   0  0  0  0  0  0  0  0  0  0  0  0
  1  2  1  0
  3  4  1  0
  2  6  1  0
  5  6  1  0
  3  7  1  6
  8  9  1  1
  9 10  1  0
  6 11  2  0
 10 12  1  0
 10 13  1  1
  4 14  1  0
  8 15  1  0
 14 15  1  0
 14 16  2  0
 12 17  1  0
 17 18  1  0
  1  3  1  0
  4  5  1  0
  7  8  1  0
M  END

$$$$
No_2265-/export/home/yangzhenyu/potential_scad_32_flow//YTHDC2/2024-12-06-03-22-00/
     RDKit          3D

 18 20  0  0  0  0  0  0  0  0999 V2000
    1.1787   -8.0297    3.5154 C   0  0  0  0  0  0  0  0  0  0  0  0
    1.1048   -9.2215    3.2892 C   0  0  0  0  0  0  0  0  0  0  0  0
    1.3627  -10.1721    4.3044 C   0  0  0  0  0  0  0  0  0  0  0  0
    1.0682  -11.5187    4.0618 C   0  0  0  0  0  0  0  0  0  0  0  0
    0.6332  -11.9655    2.9682 C   0  0  0  0  0  0  0  0  0  0  0  0
    0.4776  -11.1308    1.9203 C   0  0  0  0  0  0  0  0  0  0  0  0
    0.7470   -9.8274    2.0368 C   0  0  0  0  0  0  0  0  0  0  0  0
    1.0387   -7.0301    2.5175 N   0  0  0  0  0  0  0  0  0  0  0  0
    0.9298   -7.5514    1.2672 C   0  0  0  0  0  0  0  0  0  0  0  0
    0.7824   -8.7713    0.9713 C   0  0  0  0  0  0  0  0  0  0  0  0
    0.3996  -13.3769    2.6931 C   0  0  0  0  0  0  0  0  0  0  0  0
   -0.8101  -13.8098    2.3074 C   0  0  0  0  0  0  0  0  0  0  0  0
   -1.0048  -15.1881    2.1450 C   0  0  0  0  0  0  0  0  0  0  0  0
   -0.0074  -16.1105    2.2590 C   0  0  0  0  0  0  0  0  0  0  0  0
    1.3290  -15.6901    2.7200 C   0  0  0  0  0  0  0  0  0  0  0  0
    1.5364  -14.2973    2.9574 C   0  0  0  0  0  0  0  0  0  0  0  0
    0.5253   -9.2170   -0.3414 C   0  0  0  0  0  0  0  0  0  0  0  0
    1.2947   -9.2979   -1.2085 O   0  0  0  0  0  0  0  0  0  0  0  0
  5 11  1  0
 10 17  1  0
 17 18  2  0
 11 12  2  0
 12 13  1  0
 13 14  2  0
 14 15  1  0
 15 16  2  0
 11 16  1  0
  2  3  1  0
  3  4  2  0
  4  5  1  0
  5  6  2  0
  6  7  1  0
  1  2  2  0
  2  7  1  0
  7 10  2  0
  9 10  1  0
  8  9  2  0
  1  8  1  0
M  END

$$$$
No_2266-/export/home/yangzhenyu/potential_scad_32_flow//YTHDC2/2024-12-06-03-22-00/
     RDKit          3D

 17 17  0  0  0  0  0  0  0  0999 V2000
    1.1787   -8.0297    3.5154 C   0  0  0  0  0  0  0  0  0  0  0  0
    1.0491   -6.8434    2.9820 C   0  0  0  0  0  0  0  0  0  0  0  0
    0.0950   -8.8404    3.2292 C   0  0  0  0  0  0  0  0  0  0  0  0
   -0.9173   -8.4596    2.5152 C   0  0  0  0  0  0  0  0  0  0  0  0
   -1.0331   -7.2162    2.0653 C   0  0  0  0  0  0  0  0  0  0  0  0
   -0.0105   -6.3168    2.3081 C   0  0  0  0  0  0  0  0  0  0  0  0
    0.1150   -4.9910    1.8495 C   0  0  0  0  0  0  0  0  0  0  0  0
   -0.5774   -4.1593    2.0596 O   0  0  0  0  0  0  0  0  0  0  0  0
    1.1226   -4.6805    0.9513 O   0  0  0  0  0  0  0  0  0  0  0  0
    0.1816  -10.2865    3.6380 C   0  0  0  0  0  0  0  0  0  0  0  0
    1.2274  -10.8816    4.1088 C   0  0  0  0  0  0  0  0  0  0  0  0
    1.1296  -12.2707    4.4088 C   0  0  0  0  0  0  0  0  0  0  0  0
    0.9556  -12.9743    3.2366 C   0  0  0  0  0  0  0  0  0  0  0  0
    1.0486  -14.4414    3.3214 C   0  0  0  0  0  0  0  0  0  0  0  0
    0.8469  -15.1779    2.4254 C   0  0  0  0  0  0  0  0  0  0  0  0
    0.3910  -14.7208    1.1980 C   0  0  0  0  0  0  0  0  0  0  0  0
    0.2359  -13.3374    1.0496 C   0  0  0  0  0  0  0  0  0  0  0  0
  6  7  1  0
  7  8  2  0
  7  9  1  0
  3 10  1  0
 10 11  2  3
 11 12  1  0
 12 13  2  3
 13 14  1  0
 14 15  2  3
 15 16  1  0
 16 17  2  0
  1  2  2  0
  2  6  1  0
  5  6  2  0
  4  5  1  0
  3  4  2  0
  1  3  1  0
M  END

$$$$
No_2267-/export/home/yangzhenyu/potential_scad_32_flow//YTHDC2/2024-12-06-03-22-00/
     RDKit          3D

 19 19  0  0  1  0  0  0  0  0999 V2000
    1.1787   -8.0297    3.5154 C   0  0  0  0  0  0  0  0  0  0  0  0
    1.0491   -6.8434    2.9820 C   0  0  0  0  0  0  0  0  0  0  0  0
    1.9985   -8.9840    2.8958 C   0  0  0  0  0  0  0  0  0  0  0  0
    1.1814  -10.1889    2.5497 C   0  0  0  0  0  0  0  0  0  0  0  0
    0.3496  -10.1352    1.6537 O   0  0  0  0  0  0  0  0  0  0  0  0
    1.1138  -11.2297    3.5283 N   0  0  0  0  0  0  0  0  0  0  0  0
    0.2773   -6.6893    1.8456 C   0  0  0  0  0  0  0  0  0  0  0  0
    0.8407   -6.4291    0.6823 O   0  0  0  0  0  0  0  0  0  0  0  0
   -0.9745   -6.6203    1.9801 O   0  0  0  0  0  0  0  0  0  0  0  0
    0.5308  -12.3833    3.3265 C   0  0  0  0  0  0  0  0  0  0  0  0
    1.1049  -13.1320    2.2555 C   0  0  0  0  0  0  0  0  0  0  0  0
    1.2190  -14.5124    2.3247 C   0  0  2  0  0  0  0  0  0  0  0  0
    0.5752  -15.2584    3.3321 C   0  0  0  0  0  0  0  0  0  0  0  0
    1.0321  -16.7471    3.3752 C   0  0  0  0  0  0  0  0  0  0  0  0
    2.1464  -17.1705    2.7317 C   0  0  2  0  0  0  0  0  0  0  0  0
    2.8844  -16.3159    1.8240 C   0  0  0  0  0  0  0  0  0  0  0  0
    2.5391  -15.0170    1.7667 C   0  0  0  0  0  0  0  0  0  0  0  0
    3.1799  -14.2579    0.9750 O   0  0  0  0  0  0  0  0  0  0  0  0
    2.4972  -18.5287    2.8918 C   0  0  0  0  0  0  0  0  0  0  0  0
  1  2  1  0
  1  3  1  0
  3  4  1  0
  4  5  2  0
  4  6  1  0
  2  7  1  0
  7  8  2  0
  7  9  1  0
  6 10  1  0
 10 11  1  0
 12 11  1  1
 12 13  1  0
 14 15  1  0
 12 17  1  0
 16 17  1  0
 17 18  2  0
 15 19  1  6
 13 14  1  0
 15 16  1  0
M  END

$$$$
No_2268-/export/home/yangzhenyu/potential_scad_32_flow//YTHDC2/2024-12-06-03-22-00/
     RDKit          3D

 20 20  0  0  1  0  0  0  0  0999 V2000
    1.1787   -8.0297    3.5154 C   0  0  0  0  0  0  0  0  0  0  0  0
    1.1048   -9.2215    3.2892 C   0  0  0  0  0  0  0  0  0  0  0  0
    1.2339   -9.7611    2.0189 C   0  0  0  0  0  0  0  0  0  0  0  0
    1.3583   -9.0036    0.9764 C   0  0  0  0  0  0  0  0  0  0  0  0
    1.5996   -7.6362    1.1311 C   0  0  0  0  0  0  0  0  0  0  0  0
    1.4830   -7.0928    2.3626 C   0  0  0  0  0  0  0  0  0  0  0  0
    1.1008  -11.2372    1.8542 C   0  0  1  0  0  0  0  0  0  0  0  0
    0.4812  -11.6084    0.6459 C   0  0  0  0  0  0  0  0  0  0  0  0
   -0.3691  -10.9312    0.0124 C   0  0  0  0  0  0  0  0  0  0  0  0
   -0.9284   -9.6856    0.5810 C   0  0  0  0  0  0  0  0  0  0  0  0
   -1.6505   -8.9364   -0.6012 C   0  0  0  0  0  0  0  0  0  0  0  0
   -1.3893   -9.2714   -1.9474 N   0  0  0  0  0  0  0  0  0  0  0  0
   -2.2156   -7.6942   -0.2194 C   0  0  0  0  0  0  0  0  0  0  0  0
   -2.5335   -7.4165    1.0707 O   0  0  0  0  0  0  0  0  0  0  0  0
   -2.4384   -6.7091   -1.0680 O   0  0  0  0  0  0  0  0  0  0  0  0
    1.8990  -12.0075    2.6605 C   0  0  0  0  0  0  0  0  0  0  0  0
    1.7906  -13.4142    2.3987 C   0  0  0  0  0  0  0  0  0  0  0  0
    2.3235  -14.3182    3.3777 C   0  0  0  0  0  0  0  0  0  0  0  0
    1.4422   -5.6574    2.5850 C   0  0  0  0  0  0  0  0  0  0  0  0
    2.2323  -15.6492    3.0103 C   0  0  0  0  0  0  0  0  0  0  0  0
  7  3  1  6
  7  8  1  0
  8  9  2  3
  9 10  1  0
 10 11  2  3
 11 12  1  0
 11 13  1  0
 13 14  1  0
 13 15  2  0
  7 16  1  0
 16 17  2  3
 17 18  1  0
  6 19  1  0
 18 20  2  0
  1  2  2  0
  2  3  1  0
  3  4  2  0
  4  5  1  0
  5  6  2  0
  1  6  1  0
M  END

$$$$
No_2269-/export/home/yangzhenyu/potential_scad_32_flow//YTHDC2/2024-12-06-03-22-00/
     RDKit          3D

 20 21  0  0  0  0  0  0  0  0999 V2000
    1.1787   -8.0297    3.5154 C   0  0  0  0  0  0  0  0  0  0  0  0
    1.1048   -9.2215    3.2892 C   0  0  0  0  0  0  0  0  0  0  0  0
    1.2339   -9.7611    2.0189 C   0  0  0  0  0  0  0  0  0  0  0  0
    1.3583   -9.0036    0.9764 C   0  0  0  0  0  0  0  0  0  0  0  0
    1.5996   -7.6362    1.1311 C   0  0  0  0  0  0  0  0  0  0  0  0
    1.4830   -7.0928    2.3626 C   0  0  0  0  0  0  0  0  0  0  0  0
    1.4898   -5.7274    2.6199 C   0  0  0  0  0  0  0  0  0  0  0  0
    1.1681  -11.2222    1.8390 N   0  0  0  0  0  0  0  0  0  0  0  0
    0.7927  -12.0467    2.3427 C   0  0  0  0  0  0  0  0  0  0  0  0
    1.2021  -13.3483    2.2652 C   0  0  0  0  0  0  0  0  0  0  0  0
    0.9628  -14.3499    3.2021 C   0  0  0  0  0  0  0  0  0  0  0  0
    1.3990  -15.6895    2.8915 C   0  0  0  0  0  0  0  0  0  0  0  0
    2.1903  -15.9729    1.7616 C   0  0  0  0  0  0  0  0  0  0  0  0
    2.6223  -15.1247    1.2358 C   0  0  0  0  0  0  0  0  0  0  0  0
    2.2325  -13.7636    1.2342 C   0  0  0  0  0  0  0  0  0  0  0  0
   -0.4585  -11.9307    2.8506 O   0  0  0  0  0  0  0  0  0  0  0  0
    0.6813   -4.9799    2.7225 N   0  0  0  0  0  0  0  0  0  0  0  0
    0.4202   -3.9311    2.2714 O   0  0  0  0  0  0  0  0  0  0  0  0
    1.5701   -9.5107   -0.3254 O   0  0  0  0  0  0  0  0  0  0  0  0
    2.8391  -17.4427    1.9035 Cl  0  0  0  0  0  0  0  0  0  0  0  0
  6  7  1  0
  3  8  1  0
  8  9  1  0
  9 10  1  0
  9 16  2  0
  7 17  1  0
 17 18  2  0
  4 19  1  0
 13 20  1  0
  1  2  2  0
  2  3  1  0
  3  4  2  0
  4  5  1  0
  5  6  2  0
  1  6  1  0
 10 11  2  0
 11 12  1  0
 12 13  2  0
 13 14  1  0
 14 15  2  0
 10 15  1  0
M  END

$$$$
No_2270-/export/home/yangzhenyu/potential_scad_32_flow//YTHDC2/2024-12-06-03-22-00/
     RDKit          3D

 19 20  0  0  1  0  0  0  0  0999 V2000
    1.1787   -8.0297    3.5154 C   0  0  0  0  0  0  0  0  0  0  0  0
    1.1048   -9.2215    3.2892 C   0  0  0  0  0  0  0  0  0  0  0  0
    1.2339   -9.7611    2.0189 C   0  0  0  0  0  0  0  0  0  0  0  0
    1.3583   -9.0036    0.9764 C   0  0  0  0  0  0  0  0  0  0  0  0
    1.5996   -7.6362    1.1311 C   0  0  0  0  0  0  0  0  0  0  0  0
    1.4830   -7.0928    2.3626 C   0  0  0  0  0  0  0  0  0  0  0  0
    1.4898   -5.7274    2.6199 C   0  0  0  0  0  0  0  0  0  0  0  0
    1.1882  -11.3736    1.8424 C   0  0  0  0  0  0  0  0  0  0  0  0
    1.0670  -11.6643    0.5390 C   0  0  0  0  0  0  0  0  0  0  0  0
    1.0178  -13.1173    0.5007 C   0  0  0  0  0  0  0  0  0  0  0  0
    0.9325  -13.9108    1.5000 C   0  0  0  0  0  0  0  0  0  0  0  0
    1.2011  -13.4411    2.7794 C   0  0  0  0  0  0  0  0  0  0  0  0
    1.2802  -12.0548    2.9649 C   0  0  0  0  0  0  0  0  0  0  0  0
    0.6612   -4.9922    2.7265 O   0  0  0  0  0  0  0  0  0  0  0  0
    1.5002  -11.5234    4.2066 C   0  0  0  0  0  0  0  0  0  0  0  0
    0.9527  -15.3592    1.4154 C   0  0  1  0  0  0  0  0  0  0  0  0
    2.0521  -16.0574    1.8842 Br  0  0  0  0  0  0  0  0  0  0  0  0
   -0.3548  -15.9220    1.4848 C   0  0  0  0  0  0  0  0  0  0  0  0
   -0.6466  -16.9453    1.4167 O   0  0  0  0  0  0  0  0  0  0  0  0
  6  7  1  0
  3  8  1  0
  7 14  2  0
 13 15  1  0
 11 16  1  0
 16 17  1  1
 16 18  1  0
 18 19  2  0
  1  2  2  0
  2  3  1  0
  3  4  2  0
  4  5  1  0
  5  6  2  0
  1  6  1  0
  8  9  2  0
  9 10  1  0
 10 11  2  0
 11 12  1  0
 12 13  2  0
  8 13  1  0
M  END

$$$$
No_2271-/export/home/yangzhenyu/potential_scad_32_flow//YTHDC2/2024-12-06-03-22-00/
     RDKit          3D

 18 18  0  0  0  0  0  0  0  0999 V2000
    1.1787   -8.0297    3.5154 C   0  0  0  0  0  0  0  0  0  0  0  0
    1.1048   -9.2215    3.2892 C   0  0  0  0  0  0  0  0  0  0  0  0
    1.2339   -9.7611    2.0189 C   0  0  0  0  0  0  0  0  0  0  0  0
    1.3583   -9.0036    0.9764 C   0  0  0  0  0  0  0  0  0  0  0  0
    1.5996   -7.6362    1.1311 C   0  0  0  0  0  0  0  0  0  0  0  0
    1.4830   -7.0928    2.3626 C   0  0  0  0  0  0  0  0  0  0  0  0
    1.5395   -5.7300    2.6182 C   0  0  0  0  0  0  0  0  0  0  0  0
    1.1775  -11.2234    1.8407 C   0  0  0  0  0  0  0  0  0  0  0  0
    0.7252  -11.5870    0.5413 O   0  0  0  0  0  0  0  0  0  0  0  0
    2.0095  -12.0297    2.4291 N   0  0  0  0  0  0  0  0  0  0  0  0
    1.9179  -13.3987    2.2402 C   0  0  0  0  0  0  0  0  0  0  0  0
    1.0518  -14.0696    3.2680 C   0  0  0  0  0  0  0  0  0  0  0  0
    0.9208  -15.4530    3.0842 O   0  0  0  0  0  0  0  0  0  0  0  0
    0.8373  -13.5976    4.2918 O   0  0  0  0  0  0  0  0  0  0  0  0
    0.6325   -4.8775    2.7722 O   0  0  0  0  0  0  0  0  0  0  0  0
    0.5681   -3.6286    2.3149 C   0  0  0  0  0  0  0  0  0  0  0  0
    2.3740  -13.9488    1.2122 O   0  0  0  0  0  0  0  0  0  0  0  0
    0.6131   -2.6018    3.0130 C   0  0  0  0  0  0  0  0  0  0  0  0
  6  7  1  0
  3  8  1  0
  8  9  2  0
  8 10  1  0
 10 11  1  0
 11 12  1  0
 12 13  2  0
 12 14  1  0
  7 15  1  0
 15 16  1  0
 11 17  2  0
 16 18  1  0
  1  2  2  0
  2  3  1  0
  3  4  2  0
  4  5  1  0
  5  6  2  0
  1  6  1  0
M  END

$$$$
No_2272-/export/home/yangzhenyu/potential_scad_32_flow//YTHDC2/2024-12-06-03-22-00/
     RDKit          3D

 19 21  0  0  0  0  0  0  0  0999 V2000
    1.1787   -8.0297    3.5154 C   0  0  0  0  0  0  0  0  0  0  0  0
    1.1048   -9.2215    3.2892 C   0  0  0  0  0  0  0  0  0  0  0  0
    1.3627  -10.1721    4.3044 C   0  0  0  0  0  0  0  0  0  0  0  0
    1.0682  -11.5187    4.0618 C   0  0  0  0  0  0  0  0  0  0  0  0
    0.6332  -11.9655    2.9682 C   0  0  0  0  0  0  0  0  0  0  0  0
    0.4776  -11.1308    1.9203 C   0  0  0  0  0  0  0  0  0  0  0  0
    0.7470   -9.8274    2.0368 C   0  0  0  0  0  0  0  0  0  0  0  0
    1.0387   -7.0301    2.5175 N   0  0  0  0  0  0  0  0  0  0  0  0
    0.9298   -7.5514    1.2672 C   0  0  0  0  0  0  0  0  0  0  0  0
    0.7824   -8.7713    0.9713 C   0  0  0  0  0  0  0  0  0  0  0  0
    0.3634   -9.2077   -0.2511 C   0  0  0  0  0  0  0  0  0  0  0  0
   -0.2053   -8.5850   -1.0192 F   0  0  0  0  0  0  0  0  0  0  0  0
    0.4940  -13.3710    2.6564 C   0  0  0  0  0  0  0  0  0  0  0  0
    1.4356  -14.2896    3.1122 C   0  0  0  0  0  0  0  0  0  0  0  0
    1.2136  -15.6615    2.9493 C   0  0  0  0  0  0  0  0  0  0  0  0
    0.3350  -16.1246    2.2043 C   0  0  0  0  0  0  0  0  0  0  0  0
   -0.5548  -15.2756    1.6257 C   0  0  0  0  0  0  0  0  0  0  0  0
   -0.3921  -13.9238    1.8391 C   0  0  0  0  0  0  0  0  0  0  0  0
    0.8168  -10.0841   -0.7192 F   0  0  0  0  0  0  0  0  0  0  0  0
 10 11  1  0
 11 12  1  0
  5 13  1  0
 11 19  1  0
  2  3  1  0
  3  4  2  0
  4  5  1  0
  5  6  2  0
  6  7  1  0
 13 14  2  0
 14 15  1  0
 15 16  2  0
 16 17  1  0
 17 18  2  0
 13 18  1  0
  1  2  2  0
  2  7  1  0
  7 10  2  0
  9 10  1  0
  8  9  2  0
  1  8  1  0
M  END

$$$$
No_2273-/export/home/yangzhenyu/potential_scad_32_flow//YTHDC2/2024-12-06-03-22-00/
     RDKit          3D

 20 21  0  0  0  0  0  0  0  0999 V2000
    1.1787   -8.0297    3.5154 C   0  0  0  0  0  0  0  0  0  0  0  0
    1.1048   -9.2215    3.2892 C   0  0  0  0  0  0  0  0  0  0  0  0
    1.2339   -9.7611    2.0189 C   0  0  0  0  0  0  0  0  0  0  0  0
    1.3583   -9.0036    0.9764 C   0  0  0  0  0  0  0  0  0  0  0  0
    1.5996   -7.6362    1.1311 C   0  0  0  0  0  0  0  0  0  0  0  0
    1.4830   -7.0928    2.3626 C   0  0  0  0  0  0  0  0  0  0  0  0
    1.1171  -11.3311    1.8661 C   0  0  0  0  0  0  0  0  0  0  0  0
    0.5042  -11.9974    2.3631 C   0  0  0  0  0  0  0  0  0  0  0  0
   -0.5114  -11.5127    3.3905 C   0  0  0  0  0  0  0  0  0  0  0  0
    0.2645  -13.4361    2.0658 C   0  0  0  0  0  0  0  0  0  0  0  0
   -0.7057  -13.9135    1.5335 C   0  0  0  0  0  0  0  0  0  0  0  0
   -1.0168  -15.2158    1.4756 C   0  0  0  0  0  0  0  0  0  0  0  0
   -0.0755  -16.0935    1.9760 C   0  0  0  0  0  0  0  0  0  0  0  0
    1.0791  -15.6750    2.6210 C   0  0  0  0  0  0  0  0  0  0  0  0
    1.2879  -14.2553    2.7084 C   0  0  0  0  0  0  0  0  0  0  0  0
    1.5634   -5.6678    2.6222 N   0  0  0  0  0  0  0  0  0  0  0  0
    1.0882   -4.7092    1.8943 C   0  0  0  0  0  0  0  0  0  0  0  0
    0.1322   -4.0656    2.2235 O   0  0  0  0  0  0  0  0  0  0  0  0
    1.6081   -4.4043    0.6517 O   0  0  0  0  0  0  0  0  0  0  0  0
   -0.2175  -17.4966    1.9171 C   0  0  0  0  0  0  0  0  0  0  0  0
  3  7  1  0
  7  8  2  3
  8  9  1  0
  8 10  1  0
  6 16  1  0
 16 17  1  0
 17 18  2  0
 17 19  1  0
 13 20  1  0
  1  2  2  0
  2  3  1  0
  3  4  2  0
  4  5  1  0
  5  6  2  0
  1  6  1  0
 10 11  2  0
 11 12  1  0
 12 13  2  0
 13 14  1  0
 14 15  2  0
 10 15  1  0
M  END

$$$$
No_2274-/export/home/yangzhenyu/potential_scad_32_flow//YTHDC2/2024-12-06-03-22-00/
     RDKit          3D

 18 19  0  0  0  0  0  0  0  0999 V2000
    1.1787   -8.0297    3.5154 C   0  0  0  0  0  0  0  0  0  0  0  0
    1.0491   -6.8434    2.9820 C   0  0  0  0  0  0  0  0  0  0  0  0
    1.9985   -8.9840    2.8958 C   0  0  0  0  0  0  0  0  0  0  0  0
    1.1815  -10.1889    2.5497 C   0  0  0  0  0  0  0  0  0  0  0  0
    0.9817  -11.1388    2.8134 C   0  0  0  0  0  0  0  0  0  0  0  0
    0.1125  -12.0891    2.4838 C   0  0  0  0  0  0  0  0  0  0  0  0
   -0.6446  -11.8250    1.4596 C   0  0  0  0  0  0  0  0  0  0  0  0
   -0.2941  -10.7598    0.6431 C   0  0  0  0  0  0  0  0  0  0  0  0
    0.5711   -9.8346    1.1239 C   0  0  0  0  0  0  0  0  0  0  0  0
    0.3257   -6.8342    1.7752 C   0  0  0  0  0  0  0  0  0  0  0  0
   -0.0217   -5.6805    1.1562 C   0  0  0  0  0  0  0  0  0  0  0  0
    0.4056   -4.4833    1.6886 C   0  0  0  0  0  0  0  0  0  0  0  0
    1.3105   -4.4840    2.7880 C   0  0  0  0  0  0  0  0  0  0  0  0
    1.6041   -5.6844    3.4590 C   0  0  0  0  0  0  0  0  0  0  0  0
    1.0672   -8.8800    0.2416 C   0  0  0  0  0  0  0  0  0  0  0  0
    2.3210   -8.4514    0.1002 C   0  0  0  0  0  0  0  0  0  0  0  0
    0.4854   -9.1090   -1.1026 O   0  0  0  0  0  0  0  0  0  0  0  0
   -0.2289  -13.2962    3.2649 C   0  0  0  0  0  0  0  0  0  0  0  0
  1  2  1  0
  1  3  1  0
  3  4  1  0
  9 15  1  0
 15 16  1  0
 15 17  2  0
  6 18  1  0
  2 10  2  0
 10 11  1  0
 11 12  2  0
 12 13  1  0
 13 14  2  0
  2 14  1  0
  4  5  2  0
  5  6  1  0
  6  7  2  0
  7  8  1  0
  8  9  2  0
  4  9  1  0
M  END

$$$$
No_2275-/export/home/yangzhenyu/potential_scad_32_flow//YTHDC2/2024-12-06-03-22-00/
     RDKit          3D

 18 19  0  0  0  0  0  0  0  0999 V2000
    1.1787   -8.0297    3.5154 C   0  0  0  0  0  0  0  0  0  0  0  0
    1.1048   -9.2215    3.2892 C   0  0  0  0  0  0  0  0  0  0  0  0
    1.2339   -9.7611    2.0189 C   0  0  0  0  0  0  0  0  0  0  0  0
    1.3583   -9.0036    0.9764 C   0  0  0  0  0  0  0  0  0  0  0  0
    1.5996   -7.6362    1.1311 C   0  0  0  0  0  0  0  0  0  0  0  0
    1.4830   -7.0928    2.3626 C   0  0  0  0  0  0  0  0  0  0  0  0
    1.2249  -11.3952    1.9460 C   0  0  0  0  0  0  0  0  0  0  0  0
    0.2582  -12.0282    2.2068 O   0  0  0  0  0  0  0  0  0  0  0  0
   -0.7850  -11.6533    1.9019 C   0  0  0  0  0  0  0  0  0  0  0  0
   -1.6333  -11.1885    2.7143 C   0  0  0  0  0  0  0  0  0  0  0  0
   -2.7131  -10.3479    2.6320 C   0  0  0  0  0  0  0  0  0  0  0  0
   -3.2472  -10.3792    1.3749 C   0  0  0  0  0  0  0  0  0  0  0  0
   -2.6477  -11.0698    0.3474 C   0  0  0  0  0  0  0  0  0  0  0  0
   -1.4373  -11.6821    0.5428 C   0  0  0  0  0  0  0  0  0  0  0  0
   -0.7096  -12.2460   -0.4294 O   0  0  0  0  0  0  0  0  0  0  0  0
    1.5877   -5.6757    2.5899 Cl  0  0  0  0  0  0  0  0  0  0  0  0
    1.5134   -9.5713   -0.2937 C   0  0  0  0  0  0  0  0  0  0  0  0
    1.9838   -9.0011   -1.2359 O   0  0  0  0  0  0  0  0  0  0  0  0
  3  7  1  0
  7  8  1  0
  8  9  1  0
  9 10  1  0
 11 12  1  0
  9 14  1  0
 13 14  1  0
 14 15  2  0
  6 16  1  0
  4 17  1  0
 17 18  2  0
 10 11  1  0
 12 13  1  0
  1  2  2  0
  2  3  1  0
  3  4  2  0
  4  5  1  0
  5  6  2  0
  1  6  1  0
M  END

$$$$
No_2276-/export/home/yangzhenyu/potential_scad_32_flow//YTHDC2/2024-12-06-03-22-00/
     RDKit          3D

 17 18  0  0  0  0  0  0  0  0999 V2000
    1.1787   -8.0297    3.5154 C   0  0  0  0  0  0  0  0  0  0  0  0
    1.0491   -6.8434    2.9820 C   0  0  0  0  0  0  0  0  0  0  0  0
    0.0950   -8.8404    3.2292 C   0  0  0  0  0  0  0  0  0  0  0  0
    0.0602  -10.1764    3.8231 C   0  0  0  0  0  0  0  0  0  0  0  0
    0.2248   -6.3830    2.0648 C   0  0  0  0  0  0  0  0  0  0  0  0
   -0.6745   -7.2322    1.6857 C   0  0  0  0  0  0  0  0  0  0  0  0
   -0.7374   -8.4992    2.1291 C   0  0  0  0  0  0  0  0  0  0  0  0
   -1.2197  -10.6611    4.0385 C   0  0  0  0  0  0  0  0  0  0  0  0
   -2.2122  -10.2766    3.1435 C   0  0  0  0  0  0  0  0  0  0  0  0
   -2.0039   -9.1685    2.3315 C   0  0  0  0  0  0  0  0  0  0  0  0
    0.2925   -5.1707    1.3181 C   0  0  0  0  0  0  0  0  0  0  0  0
   -0.2381   -3.9658    1.9822 C   0  0  0  0  0  0  0  0  0  0  0  0
   -1.5619   -3.9332    2.0621 C   0  0  0  0  0  0  0  0  0  0  0  0
   -2.1336   -4.0304    3.3985 C   0  0  0  0  0  0  0  0  0  0  0  0
   -3.6081  -11.0916    3.0796 O   0  0  0  0  0  0  0  0  0  0  0  0
   -4.4972  -10.6344    3.7331 C   0  0  0  0  0  0  0  0  0  0  0  0
   -4.5064   -9.7042    4.3210 C   0  0  0  0  0  0  0  0  0  0  0  0
  5 11  1  0
 11 12  1  0
 12 13  1  0
 13 14  1  0
  9 15  1  0
 15 16  1  0
 16 17  1  0
  1  2  2  0
  2  5  1  0
  5  6  2  0
  6  7  1  0
  1  3  1  0
  3  4  2  0
  4  8  1  0
  8  9  2  0
  9 10  1  0
  7 10  2  0
  3  7  1  0
M  END

$$$$
No_2277-/export/home/yangzhenyu/potential_scad_32_flow//YTHDC2/2024-12-06-03-22-00/
     RDKit          3D

 17 18  0  0  1  0  0  0  0  0999 V2000
    1.1787   -8.0297    3.5154 C   0  0  0  0  0  0  0  0  0  0  0  0
    1.0491   -6.8434    2.9820 C   0  0  0  0  0  0  0  0  0  0  0  0
    0.9905   -9.0774    2.6527 C   0  0  0  0  0  0  0  0  0  0  0  0
    1.1655  -10.4663    3.1286 C   0  0  0  0  0  0  0  0  0  0  0  0
    1.2197  -11.4898    2.5831 C   0  0  0  0  0  0  0  0  0  0  0  0
    1.0589  -11.4458    1.1293 C   0  0  0  0  0  0  0  0  0  0  0  0
    0.9638  -10.3069    0.4651 C   0  0  0  0  0  0  0  0  0  0  0  0
    0.9191   -9.0789    1.1942 C   0  0  0  0  0  0  0  0  0  0  0  0
    0.9103   -7.8220    0.6974 C   0  0  0  0  0  0  0  0  0  0  0  0
    1.0140   -6.6889    1.5108 C   0  0  1  0  0  0  0  0  0  0  0  0
    0.7513   -7.6341   -0.4649 O   0  0  0  0  0  0  0  0  0  0  0  0
    1.3227  -12.8060    3.1122 C   0  0  0  0  0  0  0  0  0  0  0  0
    1.3639  -13.9125    2.1381 Cl  0  0  0  0  0  0  0  0  0  0  0  0
    1.4556   -5.6066    3.6399 O   0  0  0  0  0  0  0  0  0  0  0  0
    1.0315   -5.3779    1.0603 C   0  0  0  0  0  0  0  0  0  0  0  0
    2.1610  -12.8743    4.1524 O   0  0  0  0  0  0  0  0  0  0  0  0
   -0.3027   -4.7908    0.8880 F   0  0  0  0  0  0  0  0  0  0  0  0
  1  2  1  0
  8  9  1  0
  2 10  1  0
  9 10  1  0
  9 11  2  0
  5 12  1  0
 12 13  1  0
  2 14  2  0
 10 15  1  1
 12 16  2  0
 15 17  1  0
  1  3  1  0
  3  4  2  0
  4  5  1  0
  5  6  2  0
  6  7  1  0
  7  8  2  0
  3  8  1  0
M  END

$$$$
No_2278-/export/home/yangzhenyu/potential_scad_32_flow//YTHDC2/2024-12-06-03-22-00/
     RDKit          3D

 19 21  0  0  0  0  0  0  0  0999 V2000
    1.1787   -8.0297    3.5154 C   0  0  0  0  0  0  0  0  0  0  0  0
    1.1048   -9.2215    3.2892 C   0  0  0  0  0  0  0  0  0  0  0  0
    1.3627  -10.1721    4.3044 C   0  0  0  0  0  0  0  0  0  0  0  0
    1.0682  -11.5187    4.0618 C   0  0  0  0  0  0  0  0  0  0  0  0
    0.7653  -11.7320    2.7387 C   0  0  0  0  0  0  0  0  0  0  0  0
    0.5661  -10.9730    1.8367 C   0  0  0  0  0  0  0  0  0  0  0  0
    0.7745   -9.6758    2.0361 C   0  0  0  0  0  0  0  0  0  0  0  0
    0.4411   -6.9477    3.0544 N   0  0  0  0  0  0  0  0  0  0  0  0
    0.5463   -8.6810    1.1109 C   0  0  0  0  0  0  0  0  0  0  0  0
    0.1643   -7.2764    1.5993 C   0  0  0  0  0  0  0  0  0  0  0  0
    0.5472  -13.2449    2.3860 C   0  0  0  0  0  0  0  0  0  0  0  0
   -0.6674  -13.6696    2.0788 C   0  0  0  0  0  0  0  0  0  0  0  0
   -0.7047  -15.0964    1.8149 C   0  0  0  0  0  0  0  0  0  0  0  0
    0.2809  -15.9659    2.0121 C   0  0  0  0  0  0  0  0  0  0  0  0
    1.5031  -15.5199    2.4159 C   0  0  0  0  0  0  0  0  0  0  0  0
    1.6373  -14.1227    2.7510 C   0  0  0  0  0  0  0  0  0  0  0  0
    0.4119   -8.7651   -0.3224 C   0  0  0  0  0  0  0  0  0  0  0  0
   -0.8135   -9.1629   -0.6775 O   0  0  0  0  0  0  0  0  0  0  0  0
    1.3802   -8.7233   -1.0477 O   0  0  0  0  0  0  0  0  0  0  0  0
  5 11  1  0
  9 17  1  0
 17 18  2  0
 17 19  1  0
 11 12  2  0
 12 13  1  0
 13 14  2  0
 14 15  1  0
 15 16  2  0
 11 16  1  0
  2  3  1  0
  3  4  2  0
  4  5  1  0
  5  6  2  0
  6  7  1  0
  1  2  2  0
  2  7  1  0
  7  9  2  0
  9 10  1  0
  8 10  2  0
  1  8  1  0
M  END

$$$$
No_2279-/export/home/yangzhenyu/potential_scad_32_flow//YTHDC2/2024-12-06-03-22-00/
     RDKit          3D

 17 18  0  0  1  0  0  0  0  0999 V2000
    1.1787   -8.0297    3.5154 C   0  0  0  0  0  0  0  0  0  0  0  0
    1.1048   -9.2215    3.2892 C   0  0  0  0  0  0  0  0  0  0  0  0
    1.0240   -9.7790    2.0239 C   0  0  2  0  0  0  0  0  0  0  0  0
    1.0632  -11.2393    1.8978 C   0  0  0  0  0  0  0  0  0  0  0  0
    1.1290   -7.1931    2.2312 C   0  0  2  0  0  0  0  0  0  0  0  0
    1.2150   -7.7311    1.0133 C   0  0  0  0  0  0  0  0  0  0  0  0
    1.1283   -9.0526    0.8563 C   0  0  0  0  0  0  0  0  0  0  0  0
    1.5352  -12.1349    2.7537 C   0  0  0  0  0  0  0  0  0  0  0  0
    1.5033  -13.4900    2.4921 C   0  0  0  0  0  0  0  0  0  0  0  0
    0.9393  -14.0657    1.4945 C   0  0  0  0  0  0  0  0  0  0  0  0
    0.4872  -13.2015    0.5055 C   0  0  0  0  0  0  0  0  0  0  0  0
    0.5294  -11.8392    0.6708 C   0  0  0  0  0  0  0  0  0  0  0  0
    1.1541   -9.5166   -0.3778 O   0  0  0  0  0  0  0  0  0  0  0  0
    1.2234   -5.7006    2.3449 Cl  0  0  0  0  0  0  0  0  0  0  0  0
    1.0198  -15.4071    1.2645 C   0  0  0  0  0  0  0  0  0  0  0  0
    0.3373  -16.1649    1.9001 C   0  0  0  0  0  0  0  0  0  0  0  0
    0.7628  -17.1502    2.7829 C   0  0  0  0  0  0  0  0  0  0  0  0
  2  3  1  0
  3  4  1  6
  1  5  1  0
  3  7  1  0
  6  7  1  0
  7 13  2  0
  5 14  1  1
 10 15  1  0
 15 16  1  0
 16 17  1  0
  1  2  1  0
  5  6  1  0
  4  8  2  0
  8  9  1  0
  9 10  2  0
 10 11  1  0
 11 12  2  0
  4 12  1  0
M  END

$$$$
No_2280-/export/home/yangzhenyu/potential_scad_32_flow//YTHDC2/2024-12-06-03-22-00/
     RDKit          3D

 18 18  0  0  0  0  0  0  0  0999 V2000
    1.1787   -8.0297    3.5154 C   0  0  0  0  0  0  0  0  0  0  0  0
    1.0491   -6.8434    2.9820 C   0  0  0  0  0  0  0  0  0  0  0  0
    0.9905   -9.0774    2.6527 C   0  0  0  0  0  0  0  0  0  0  0  0
    0.9687   -8.6883    1.3634 C   0  0  0  0  0  0  0  0  0  0  0  0
    1.0948   -6.3768    1.7686 C   0  0  0  0  0  0  0  0  0  0  0  0
    0.9504   -7.3975    0.8471 C   0  0  0  0  0  0  0  0  0  0  0  0
    1.0365  -10.4250    2.9992 C   0  0  0  0  0  0  0  0  0  0  0  0
    1.2082  -11.3465    2.2077 C   0  0  0  0  0  0  0  0  0  0  0  0
    1.2890  -12.8206    2.7089 C   0  0  0  0  0  0  0  0  0  0  0  0
    0.2035  -13.6244    2.5546 C   0  0  0  0  0  0  0  0  0  0  0  0
   -0.9458  -13.0446    2.0739 N   0  0  0  0  0  0  0  0  0  0  0  0
    0.2987  -14.9028    3.0013 O   0  0  0  0  0  0  0  0  0  0  0  0
    1.0595   -4.8747    1.2865 C   0  0  0  0  0  0  0  0  0  0  0  0
    1.8126   -4.1229    1.9761 C   0  0  0  0  0  0  0  0  0  0  0  0
   -2.0731  -13.8687    1.9063 C   0  0  0  0  0  0  0  0  0  0  0  0
   -3.0238  -13.6008    2.8266 C   0  0  0  0  0  0  0  0  0  0  0  0
   -3.9141  -14.5355    3.2240 C   0  0  0  0  0  0  0  0  0  0  0  0
   -3.9426  -15.6683    2.5100 C   0  0  0  0  0  0  0  0  0  0  0  0
  3  7  1  0
  7  8  2  3
  8  9  1  0
  9 10  1  0
 10 11  1  0
 10 12  2  0
  5 13  1  0
 13 14  1  0
 11 15  1  0
 15 16  1  0
 16 17  2  3
 17 18  1  0
  1  2  2  0
  2  5  1  0
  5  6  2  0
  4  6  1  0
  3  4  2  0
  1  3  1  0
M  END

$$$$
No_2281-/export/home/yangzhenyu/potential_scad_32_flow//YTHDC2/2024-12-06-03-22-00/
     RDKit          3D

 17 18  0  0  0  0  0  0  0  0999 V2000
    1.1787   -8.0297    3.5154 C   0  0  0  0  0  0  0  0  0  0  0  0
    1.1048   -9.2215    3.2892 C   0  0  0  0  0  0  0  0  0  0  0  0
    1.2339   -9.7611    2.0189 C   0  0  0  0  0  0  0  0  0  0  0  0
    1.1954  -11.2312    1.8661 C   0  0  0  0  0  0  0  0  0  0  0  0
    1.5546  -12.1691    2.7931 C   0  0  0  0  0  0  0  0  0  0  0  0
    0.9527   -7.0669    2.3918 C   0  0  0  0  0  0  0  0  0  0  0  0
    1.0618   -7.6392    1.0692 C   0  0  0  0  0  0  0  0  0  0  0  0
    1.2060   -8.9530    0.8578 C   0  0  0  0  0  0  0  0  0  0  0  0
    1.5110  -13.5006    2.3856 C   0  0  0  0  0  0  0  0  0  0  0  0
    1.1461  -13.9087    1.2014 C   0  0  0  0  0  0  0  0  0  0  0  0
    0.9324  -13.0660    0.2177 C   0  0  0  0  0  0  0  0  0  0  0  0
    0.9275  -11.6786    0.5224 C   0  0  0  0  0  0  0  0  0  0  0  0
    1.0094   -5.6129    2.4729 C   0  0  0  0  0  0  0  0  0  0  0  0
    0.3087   -4.8927    1.6394 C   0  0  0  0  0  0  0  0  0  0  0  0
    0.4262   -3.4921    1.7774 C   0  0  0  0  0  0  0  0  0  0  0  0
    1.9058  -14.4136    3.4332 O   0  0  0  0  0  0  0  0  0  0  0  0
    1.0905   -2.8527    2.7918 C   0  0  0  0  0  0  0  0  0  0  0  0
  3  4  1  0
  6 13  1  0
 13 14  2  3
 14 15  1  0
  9 16  1  0
 15 17  2  0
  1  2  2  0
  2  3  1  0
  3  8  2  0
  7  8  1  0
  6  7  2  0
  1  6  1  0
  4  5  2  0
  5  9  1  0
  9 10  2  0
 10 11  1  0
 11 12  2  0
  4 12  1  0
M  END

$$$$
No_2282-/export/home/yangzhenyu/potential_scad_32_flow//YTHDC2/2024-12-06-03-22-00/
     RDKit          3D

 19 20  0  0  0  0  0  0  0  0999 V2000
    1.1787   -8.0297    3.5154 C   0  0  0  0  0  0  0  0  0  0  0  0
    1.0491   -6.8434    2.9820 Cl  0  0  0  0  0  0  0  0  0  0  0  0
    0.0905   -8.9512    3.3831 C   0  0  0  0  0  0  0  0  0  0  0  0
    0.2318  -10.2544    3.9736 C   0  0  0  0  0  0  0  0  0  0  0  0
   -0.8140  -11.1080    3.8400 N   0  0  0  0  0  0  0  0  0  0  0  0
   -1.8382  -10.7997    3.2116 C   0  0  0  0  0  0  0  0  0  0  0  0
   -2.0858   -9.5574    2.8176 C   0  0  0  0  0  0  0  0  0  0  0  0
   -1.0638   -8.6201    2.8870 C   0  0  0  0  0  0  0  0  0  0  0  0
    1.4226  -10.8026    4.5667 N   0  0  0  0  0  0  0  0  0  0  0  0
   -2.9780  -11.6989    3.2252 Cl  0  0  0  0  0  0  0  0  0  0  0  0
    1.9378  -12.0035    4.1719 C   0  0  0  0  0  0  0  0  0  0  0  0
    1.0301  -12.7547    3.3165 C   0  0  0  0  0  0  0  0  0  0  0  0
    1.7256  -13.9267    2.7055 C   0  0  0  0  0  0  0  0  0  0  0  0
    1.1156  -15.0013    2.3362 C   0  0  0  0  0  0  0  0  0  0  0  0
   -0.2661  -15.0086    2.3588 C   0  0  0  0  0  0  0  0  0  0  0  0
   -0.9569  -14.0141    2.9114 C   0  0  0  0  0  0  0  0  0  0  0  0
   -0.3572  -12.9646    3.4013 C   0  0  0  0  0  0  0  0  0  0  0  0
    1.9304  -16.0980    1.9594 Cl  0  0  0  0  0  0  0  0  0  0  0  0
   -0.9456  -16.3045    1.7082 O   0  0  0  0  0  0  0  0  0  0  0  0
  1  2  1  0
  1  3  1  0
  4  9  1  0
  6 10  1  0
  9 11  1  0
 11 12  1  0
 14 18  1  0
 15 19  1  0
 12 13  2  0
 13 14  1  0
 14 15  2  0
 15 16  1  0
 16 17  2  0
 12 17  1  0
  3  4  2  0
  4  5  1  0
  5  6  2  0
  6  7  1  0
  7  8  2  0
  3  8  1  0
M  END

$$$$
No_2283-/export/home/yangzhenyu/potential_scad_32_flow//YTHDC2/2024-12-06-03-22-00/
     RDKit          3D

 19 20  0  0  1  0  0  0  0  0999 V2000
    1.1787   -8.0297    3.5154 C   0  0  0  0  0  0  0  0  0  0  0  0
    1.1048   -9.2215    3.2892 C   0  0  0  0  0  0  0  0  0  0  0  0
    1.3627  -10.1721    4.3044 C   0  0  0  0  0  0  0  0  0  0  0  0
    1.0682  -11.5187    4.0618 C   0  0  0  0  0  0  0  0  0  0  0  0
    0.6332  -11.9655    2.9682 C   0  0  0  0  0  0  0  0  0  0  0  0
    0.4776  -11.1308    1.9203 C   0  0  0  0  0  0  0  0  0  0  0  0
    0.7470   -9.8274    2.0368 C   0  0  0  0  0  0  0  0  0  0  0  0
    1.8805   -7.1616    3.5538 C   0  0  0  0  0  0  0  0  0  0  0  0
    0.3661  -13.4265    2.7867 C   0  0  0  0  0  0  0  0  0  0  0  0
   -0.7765  -13.9095    2.4152 C   0  0  0  0  0  0  0  0  0  0  0  0
   -0.8801  -15.3436    2.3271 C   0  0  0  0  0  0  0  0  0  0  0  0
    0.2279  -16.1799    2.6084 C   0  0  0  0  0  0  0  0  0  0  0  0
    1.4263  -15.6152    2.9103 C   0  0  0  0  0  0  0  0  0  0  0  0
    1.5998  -14.2312    3.0892 C   0  0  0  0  0  0  0  0  0  0  0  0
    0.7662   -9.0676    0.9403 C   0  0  0  0  0  0  0  0  0  0  0  0
   -0.3166   -8.5062    0.4053 C   0  0  2  0  0  0  0  0  0  0  0  0
   -1.1456   -7.8812    1.0959 C   0  0  0  0  0  0  0  0  0  0  0  0
   -2.1754   -8.4635    1.7572 C   0  0  0  0  0  0  0  0  0  0  0  0
   -0.5959   -8.7411   -0.8306 C   0  0  0  0  0  0  0  0  0  0  0  0
  1  2  1  0
  1  8  2  0
  5  9  1  0
  7 15  1  0
 15 16  1  0
 16 17  1  0
 17 18  1  0
 16 19  1  1
  2  3  2  0
  3  4  1  0
  4  5  2  0
  5  6  1  0
  6  7  2  0
  2  7  1  0
  9 10  2  0
 10 11  1  0
 11 12  2  0
 12 13  1  0
 13 14  2  0
  9 14  1  0
M  END

$$$$
No_2284-/export/home/yangzhenyu/potential_scad_32_flow//YTHDC2/2024-12-06-03-22-00/
     RDKit          3D

 19 21  0  0  0  0  0  0  0  0999 V2000
    1.1787   -8.0297    3.5154 C   0  0  0  0  0  0  0  0  0  0  0  0
    1.1048   -9.2215    3.2892 C   0  0  0  0  0  0  0  0  0  0  0  0
    1.3627  -10.1721    4.3044 C   0  0  0  0  0  0  0  0  0  0  0  0
    1.0682  -11.5187    4.0618 C   0  0  0  0  0  0  0  0  0  0  0  0
    0.6332  -11.9655    2.9682 C   0  0  0  0  0  0  0  0  0  0  0  0
    0.4776  -11.1308    1.9203 C   0  0  0  0  0  0  0  0  0  0  0  0
    0.7470   -9.8274    2.0368 C   0  0  0  0  0  0  0  0  0  0  0  0
    1.0387   -7.0301    2.5175 C   0  0  0  0  0  0  0  0  0  0  0  0
    0.9130   -7.5288    1.2013 C   0  0  0  0  0  0  0  0  0  0  0  0
    0.7893   -8.7979    0.9542 C   0  0  0  0  0  0  0  0  0  0  0  0
    0.5241   -9.2578   -0.2817 C   0  0  0  0  0  0  0  0  0  0  0  0
   -0.1121   -8.6523   -1.0898 O   0  0  0  0  0  0  0  0  0  0  0  0
    0.4743  -13.6037    2.6713 C   0  0  0  0  0  0  0  0  0  0  0  0
    1.4261  -14.3845    3.2016 C   0  0  0  0  0  0  0  0  0  0  0  0
    1.1765  -15.7429    2.9987 C   0  0  0  0  0  0  0  0  0  0  0  0
    0.3655  -16.2026    2.1292 C   0  0  0  0  0  0  0  0  0  0  0  0
   -0.4709  -15.3021    1.4930 C   0  0  0  0  0  0  0  0  0  0  0  0
   -0.3125  -13.9741    1.7650 C   0  0  0  0  0  0  0  0  0  0  0  0
    1.1003  -10.2404   -0.7949 O   0  0  0  0  0  0  0  0  0  0  0  0
 10 11  1  0
 11 12  2  0
  5 13  1  0
 11 19  1  0
  2  3  1  0
  3  4  2  0
  4  5  1  0
  5  6  2  0
  6  7  1  0
 13 14  2  0
 14 15  1  0
 15 16  2  0
 16 17  1  0
 17 18  2  0
 13 18  1  0
  1  2  2  0
  2  7  1  0
  7 10  2  0
  9 10  1  0
  8  9  2  0
  1  8  1  0
M  END

$$$$
No_2285-/export/home/yangzhenyu/potential_scad_32_flow//YTHDC2/2024-12-06-03-22-00/
     RDKit          3D

 18 18  0  0  0  0  0  0  0  0999 V2000
    1.1787   -8.0297    3.5154 C   0  0  0  0  0  0  0  0  0  0  0  0
    1.0491   -6.8434    2.9820 C   0  0  0  0  0  0  0  0  0  0  0  0
    0.0950   -8.8404    3.2292 C   0  0  0  0  0  0  0  0  0  0  0  0
   -0.9173   -8.4596    2.5152 C   0  0  0  0  0  0  0  0  0  0  0  0
   -1.0331   -7.2162    2.0653 C   0  0  0  0  0  0  0  0  0  0  0  0
   -0.0105   -6.3168    2.3081 C   0  0  0  0  0  0  0  0  0  0  0  0
    0.1150   -4.9910    1.8495 C   0  0  0  0  0  0  0  0  0  0  0  0
   -0.5774   -4.1593    2.0596 O   0  0  0  0  0  0  0  0  0  0  0  0
    1.1226   -4.6805    0.9513 O   0  0  0  0  0  0  0  0  0  0  0  0
    0.1816  -10.2865    3.6380 C   0  0  0  0  0  0  0  0  0  0  0  0
   -1.0297  -10.9845    3.7634 C   0  0  0  0  0  0  0  0  0  0  0  0
    1.3569  -10.7940    4.2948 C   0  0  0  0  0  0  0  0  0  0  0  0
    1.4972  -12.1316    4.4482 C   0  0  0  0  0  0  0  0  0  0  0  0
   -2.2479  -10.3890    3.6126 C   0  0  0  0  0  0  0  0  0  0  0  0
   -3.1384  -10.7860    2.8270 C   0  0  0  0  0  0  0  0  0  0  0  0
   -4.4215  -10.1015    2.8230 N   0  0  0  0  0  0  0  0  0  0  0  0
   -2.8515  -11.7376    1.8442 C   0  0  0  0  0  0  0  0  0  0  0  0
   -5.1561  -10.2289    1.8348 C   0  0  0  0  0  0  0  0  0  0  0  0
  6  7  1  0
  7  8  2  0
  7  9  1  0
  3 10  1  0
 10 11  2  3
 10 12  1  0
 12 13  2  0
 11 14  1  0
 14 15  2  3
 15 16  1  0
 15 17  1  0
 16 18  1  0
  1  2  2  0
  2  6  1  0
  5  6  2  0
  4  5  1  0
  3  4  2  0
  1  3  1  0
M  END

$$$$
No_2286-/export/home/yangzhenyu/potential_scad_32_flow//YTHDC2/2024-12-06-03-22-00/
     RDKit          3D

 19 21  0  0  0  0  0  0  0  0999 V2000
    1.1787   -8.0297    3.5154 C   0  0  0  0  0  0  0  0  0  0  0  0
    1.1048   -9.2215    3.2892 C   0  0  0  0  0  0  0  0  0  0  0  0
    1.3627  -10.1721    4.3044 C   0  0  0  0  0  0  0  0  0  0  0  0
    1.7354  -11.4730    3.9023 C   0  0  0  0  0  0  0  0  0  0  0  0
    1.8080  -11.8127    2.7216 C   0  0  0  0  0  0  0  0  0  0  0  0
    1.5854  -11.0021    1.7249 C   0  0  0  0  0  0  0  0  0  0  0  0
    1.3573   -9.7389    1.9287 C   0  0  0  0  0  0  0  0  0  0  0  0
    1.1102   -8.8712    0.9017 C   0  0  0  0  0  0  0  0  0  0  0  0
    1.5724   -9.1697   -0.3048 C   0  0  0  0  0  0  0  0  0  0  0  0
    1.2378   -8.2159   -1.4226 S   0  0  0  0  0  0  0  0  0  0  0  0
    2.0579  -13.2090    2.3323 O   0  0  0  0  0  0  0  0  0  0  0  0
    0.9090   -7.0579    2.5299 C   0  0  0  0  0  0  0  0  0  0  0  0
    1.0794   -7.4534    1.1461 C   0  0  0  0  0  0  0  0  0  0  0  0
    0.9441   -6.9129   -0.0009 C   0  0  0  0  0  0  0  0  0  0  0  0
    0.7973   -5.6802    2.7267 C   0  0  0  0  0  0  0  0  0  0  0  0
   -0.3453   -5.0024    2.3871 Cl  0  0  0  0  0  0  0  0  0  0  0  0
    1.8921  -13.6980    1.0572 C   0  0  0  0  0  0  0  0  0  0  0  0
    0.9541  -14.7101    1.1658 C   0  0  0  0  0  0  0  0  0  0  0  0
    1.3773  -15.6536    1.9828 C   0  0  0  0  0  0  0  0  0  0  0  0
  9 10  1  0
  5 11  1  0
 10 14  1  0
 13 14  1  0
 12 15  1  0
 15 16  1  0
 11 17  1  0
 17 18  1  0
 18 19  1  0
  8  9  1  0
  2  3  1  0
  3  4  2  0
  4  5  1  0
  5  6  2  0
  6  7  1  0
  1  2  2  0
  2  7  1  0
  7  8  2  0
  8 13  1  0
 12 13  2  0
  1 12  1  0
M  END

$$$$
No_2287-/export/home/yangzhenyu/potential_scad_32_flow//YTHDC2/2024-12-06-03-22-00/
     RDKit          3D

 19 20  0  0  0  0  0  0  0  0999 V2000
    1.1787   -8.0297    3.5154 C   0  0  0  0  0  0  0  0  0  0  0  0
    1.0491   -6.8434    2.9820 C   0  0  0  0  0  0  0  0  0  0  0  0
    0.0950   -8.8404    3.2292 C   0  0  0  0  0  0  0  0  0  0  0  0
   -0.9173   -8.4596    2.5152 C   0  0  0  0  0  0  0  0  0  0  0  0
   -1.0331   -7.2162    2.0653 C   0  0  0  0  0  0  0  0  0  0  0  0
   -0.0105   -6.3168    2.3081 C   0  0  0  0  0  0  0  0  0  0  0  0
    0.1465  -10.2446    3.6981 C   0  0  0  0  0  0  0  0  0  0  0  0
    1.2433  -10.8239    4.0166 C   0  0  0  0  0  0  0  0  0  0  0  0
    1.6493  -11.8557    3.2298 C   0  0  0  0  0  0  0  0  0  0  0  0
    1.4184  -11.6685    1.9478 C   0  0  0  0  0  0  0  0  0  0  0  0
    1.2586  -12.8890    1.1612 C   0  0  0  0  0  0  0  0  0  0  0  0
    1.1748  -14.0941    1.5864 C   0  0  0  0  0  0  0  0  0  0  0  0
    1.3149  -14.2438    2.9993 C   0  0  0  0  0  0  0  0  0  0  0  0
    1.4690  -13.1396    3.8218 C   0  0  0  0  0  0  0  0  0  0  0  0
   -0.0892   -5.0215    1.8507 C   0  0  0  0  0  0  0  0  0  0  0  0
    0.7534   -4.0607    2.3480 C   0  0  0  0  0  0  0  0  0  0  0  0
   -1.1135   -4.5310    1.1034 O   0  0  0  0  0  0  0  0  0  0  0  0
    0.7545   -2.7113    1.8768 C   0  0  0  0  0  0  0  0  0  0  0  0
   -1.0394   -3.3731    0.8960 C   0  0  0  0  0  0  0  0  0  0  0  0
  3  7  1  0
  7  8  1  0
  8  9  1  0
  6 15  1  0
 15 16  2  3
 15 17  1  0
 16 18  1  0
 17 19  1  0
  1  2  2  0
  2  6  1  0
  5  6  2  0
  4  5  1  0
  3  4  2  0
  1  3  1  0
  9 10  2  0
 10 11  1  0
 11 12  2  0
 12 13  1  0
 13 14  2  0
  9 14  1  0
M  END

$$$$
No_2288-/export/home/yangzhenyu/potential_scad_32_flow//YTHDC2/2024-12-06-03-22-00/
     RDKit          3D

 18 19  0  0  0  0  0  0  0  0999 V2000
    1.1787   -8.0297    3.5154 C   0  0  0  0  0  0  0  0  0  0  0  0
    1.0491   -6.8434    2.9820 C   0  0  0  0  0  0  0  0  0  0  0  0
    0.0950   -8.8404    3.2292 C   0  0  0  0  0  0  0  0  0  0  0  0
   -0.9173   -8.4596    2.5152 C   0  0  0  0  0  0  0  0  0  0  0  0
   -1.0331   -7.2162    2.0653 C   0  0  0  0  0  0  0  0  0  0  0  0
   -0.0105   -6.3168    2.3081 C   0  0  0  0  0  0  0  0  0  0  0  0
    0.1465  -10.2446    3.6981 C   0  0  0  0  0  0  0  0  0  0  0  0
    1.2433  -10.8239    4.0166 C   0  0  0  0  0  0  0  0  0  0  0  0
    1.1033  -12.2936    4.0346 C   0  0  0  0  0  0  0  0  0  0  0  0
    0.0220  -12.9035    3.7006 C   0  0  0  0  0  0  0  0  0  0  0  0
   -1.0373  -12.2681    3.2608 C   0  0  0  0  0  0  0  0  0  0  0  0
   -1.0058  -10.9076    3.2655 C   0  0  0  0  0  0  0  0  0  0  0  0
   -0.0949   -4.8269    1.7900 Cl  0  0  0  0  0  0  0  0  0  0  0  0
    0.0879  -14.3113    3.7295 O   0  0  0  0  0  0  0  0  0  0  0  0
    0.3938  -15.0451    2.6193 C   0  0  0  0  0  0  0  0  0  0  0  0
    0.8325  -14.4372    1.5710 C   0  0  0  0  0  0  0  0  0  0  0  0
    1.3749  -14.9951    0.7770 C   0  0  0  0  0  0  0  0  0  0  0  0
    1.3363  -16.3625    0.5788 C   0  0  0  0  0  0  0  0  0  0  0  0
  3  7  1  0
  6 13  1  0
 10 14  1  0
 14 15  1  0
 15 16  1  0
 16 17  2  3
 17 18  1  0
  1  2  2  0
  2  6  1  0
  5  6  2  0
  4  5  1  0
  3  4  2  0
  1  3  1  0
  7  8  2  0
  8  9  1  0
  9 10  2  0
 10 11  1  0
 11 12  2  0
  7 12  1  0
M  END

$$$$
No_2289-/export/home/yangzhenyu/potential_scad_32_flow//YTHDC2/2024-12-06-03-22-00/
     RDKit          3D

 20 22  0  0  0  0  0  0  0  0999 V2000
    1.1787   -8.0297    3.5154 C   0  0  0  0  0  0  0  0  0  0  0  0
    1.1048   -9.2215    3.2892 C   0  0  0  0  0  0  0  0  0  0  0  0
    1.3627  -10.1721    4.3044 C   0  0  0  0  0  0  0  0  0  0  0  0
    1.0682  -11.5187    4.0618 C   0  0  0  0  0  0  0  0  0  0  0  0
    0.6332  -11.9655    2.9682 C   0  0  0  0  0  0  0  0  0  0  0  0
    0.4776  -11.1308    1.9203 N   0  0  0  0  0  0  0  0  0  0  0  0
    0.7538   -9.8638    2.0376 C   0  0  0  0  0  0  0  0  0  0  0  0
    1.0189   -7.0491    2.4282 C   0  0  0  0  0  0  0  0  0  0  0  0
    0.8608   -7.5942    1.1378 C   0  0  0  0  0  0  0  0  0  0  0  0
    0.7325   -8.9278    0.9186 C   0  0  0  0  0  0  0  0  0  0  0  0
    0.3905  -13.3482    2.6826 C   0  0  0  0  0  0  0  0  0  0  0  0
   -0.6922  -13.7885    2.2829 C   0  0  0  0  0  0  0  0  0  0  0  0
    1.5434  -14.2269    2.7764 C   0  0  0  0  0  0  0  0  0  0  0  0
   -0.8873  -15.0997    1.9078 C   0  0  0  0  0  0  0  0  0  0  0  0
   -2.0620  -15.6969    1.4994 C   0  0  0  0  0  0  0  0  0  0  0  0
    0.5349   -9.3917   -0.2987 C   0  0  0  0  0  0  0  0  0  0  0  0
   -0.7141   -9.9504   -0.6068 O   0  0  0  0  0  0  0  0  0  0  0  0
    1.2297   -9.0754   -1.3069 O   0  0  0  0  0  0  0  0  0  0  0  0
    1.4541  -15.5726    2.5014 C   0  0  0  0  0  0  0  0  0  0  0  0
    0.2716  -16.0051    2.1212 C   0  0  0  0  0  0  0  0  0  0  0  0
  5 11  1  0
 14 15  1  0
 10 16  1  0
 16 17  2  0
 16 18  1  0
  2  3  1  0
  3  4  2  0
  4  5  1  0
  5  6  2  0
  6  7  1  0
  1  2  2  0
  2  7  1  0
  7 10  2  0
  9 10  1  0
  8  9  2  0
  1  8  1  0
 11 12  2  0
 12 14  1  0
 14 20  2  0
 19 20  1  0
 13 19  2  0
 11 13  1  0
M  END

$$$$
No_2290-/export/home/yangzhenyu/potential_scad_32_flow//YTHDC2/2024-12-06-03-22-00/
     RDKit          3D

 16 17  0  0  1  0  0  0  0  0999 V2000
    1.1787   -8.0297    3.5154 C   0  0  0  0  0  0  0  0  0  0  0  0
    1.1048   -9.2215    3.2892 C   0  0  0  0  0  0  0  0  0  0  0  0
    1.3627  -10.1721    4.3044 C   0  0  0  0  0  0  0  0  0  0  0  0
    1.7354  -11.4730    3.9023 C   0  0  0  0  0  0  0  0  0  0  0  0
    1.8080  -11.8127    2.7216 C   0  0  0  0  0  0  0  0  0  0  0  0
    1.5854  -11.0021    1.7249 C   0  0  0  0  0  0  0  0  0  0  0  0
    1.3573   -9.7389    1.9287 C   0  0  0  0  0  0  0  0  0  0  0  0
    1.1102   -8.8712    0.9017 C   0  0  0  0  0  0  0  0  0  0  0  0
    1.5724   -9.1697   -0.3048 O   0  0  0  0  0  0  0  0  0  0  0  0
    0.8071   -7.5472    0.9953 N   0  0  0  0  0  0  0  0  0  0  0  0
    0.8171   -7.0593    2.3461 C   0  0  2  0  0  0  0  0  0  0  0  0
    0.8477   -5.6536    2.4318 C   0  0  0  0  0  0  0  0  0  0  0  0
    2.0719  -13.2212    2.3669 N   0  0  0  0  0  0  0  0  0  0  0  0
    0.0669   -4.9318    1.7209 O   0  0  0  0  0  0  0  0  0  0  0  0
    1.6007   -5.0552    3.3475 N   0  0  0  0  0  0  0  0  0  0  0  0
    2.0893  -13.7571    1.1060 O   0  0  0  0  0  0  0  0  0  0  0  0
  1  2  1  0
  7  8  1  0
  8  9  2  0
  8 10  1  0
  1 11  1  0
 10 11  1  0
 11 12  1  6
  5 13  1  0
 12 14  2  0
 12 15  1  0
 13 16  2  0
  2  3  2  0
  3  4  1  0
  4  5  2  0
  5  6  1  0
  6  7  2  0
  2  7  1  0
M  END

$$$$
No_2291-/export/home/yangzhenyu/potential_scad_32_flow//YTHDC2/2024-12-06-03-22-00/
     RDKit          3D

 20 21  0  0  1  0  0  0  0  0999 V2000
    1.1787   -8.0297    3.5154 C   0  0  0  0  0  0  0  0  0  0  0  0
    1.0491   -6.8434    2.9820 C   0  0  0  0  0  0  0  0  0  0  0  0
    2.0004   -8.9805    3.0498 C   0  0  1  0  0  0  0  0  0  0  0  0
    1.9318  -10.3260    3.8082 C   0  0  0  0  0  0  0  0  0  0  0  0
    1.5629   -6.7698    1.6212 C   0  0  1  0  0  0  0  0  0  0  0  0
    2.0874   -7.7993    0.9845 C   0  0  0  0  0  0  0  0  0  0  0  0
    2.2492   -9.0232    1.6778 C   0  0  0  0  0  0  0  0  0  0  0  0
    1.6476  -10.4789    4.8684 O   0  0  0  0  0  0  0  0  0  0  0  0
    2.6867  -11.3299    3.2165 N   0  0  0  0  0  0  0  0  0  0  0  0
    2.4895  -12.6080    3.8308 C   0  0  0  0  0  0  0  0  0  0  0  0
    2.0025  -13.6775    2.6898 C   0  0  0  0  0  0  0  0  0  0  0  0
    1.8124  -14.9769    3.1281 C   0  0  0  0  0  0  0  0  0  0  0  0
    1.1681  -15.8440    2.3304 C   0  0  0  0  0  0  0  0  0  0  0  0
    0.7190  -15.4219    1.1762 C   0  0  0  0  0  0  0  0  0  0  0  0
    0.9220  -14.1272    0.7437 C   0  0  0  0  0  0  0  0  0  0  0  0
    1.5375  -13.1949    1.5291 C   0  0  0  0  0  0  0  0  0  0  0  0
    2.9372   -9.9277    0.9579 O   0  0  0  0  0  0  0  0  0  0  0  0
    1.2730   -5.4534    0.8609 Cl  0  0  0  0  0  0  0  0  0  0  0  0
    0.9482  -17.1892    2.7466 C   0  0  0  0  0  0  0  0  0  0  0  0
    1.9943  -17.9052    2.9631 N   0  0  0  0  0  0  0  0  0  0  0  0
  1  3  1  0
  3  4  1  6
  2  5  1  0
  3  7  1  0
  6  7  1  0
  4  8  2  0
  4  9  1  0
  9 10  1  0
 10 11  1  0
  7 17  2  0
  5 18  1  6
 13 19  1  0
 19 20  1  0
  1  2  1  0
  5  6  1  0
 11 12  2  0
 12 13  1  0
 13 14  2  0
 14 15  1  0
 15 16  2  0
 11 16  1  0
M  END

$$$$
No_2292-/export/home/yangzhenyu/potential_scad_32_flow//YTHDC2/2024-12-06-03-22-00/
     RDKit          3D

 17 18  0  0  1  0  0  0  0  0999 V2000
    1.1787   -8.0297    3.5154 C   0  0  0  0  0  0  0  0  0  0  0  0
    1.0491   -6.8434    2.9820 C   0  0  0  0  0  0  0  0  0  0  0  0
    0.9905   -9.0774    2.6527 C   0  0  0  0  0  0  0  0  0  0  0  0
    0.7897   -8.9519    1.3691 C   0  0  0  0  0  0  0  0  0  0  0  0
    0.7018   -7.7198    0.7892 C   0  0  0  0  0  0  0  0  0  0  0  0
    0.8918   -6.5957    1.6117 C   0  0  0  0  0  0  0  0  0  0  0  0
    1.0998  -10.4710    3.2437 C   0  0  0  0  0  0  0  0  0  0  0  0
    1.3102  -11.5554    2.5214 C   0  0  0  0  0  0  0  0  0  0  0  0
    1.5840  -11.4028    1.1226 C   0  0  0  0  0  0  0  0  0  0  0  0
    1.2367  -10.1673    0.5312 C   0  0  0  0  0  0  0  0  0  0  0  0
    1.6681  -12.8670    2.9548 N   0  0  0  0  0  0  0  0  0  0  0  0
    0.7292   -5.2814    1.1822 C   0  0  0  0  0  0  0  0  0  0  0  0
    1.0004  -13.7502    3.1468 C   0  0  1  0  0  0  0  0  0  0  0  0
   -0.2901  -13.7939    2.8999 C   0  0  0  0  0  0  0  0  0  0  0  0
    1.5431  -15.0913    3.4399 C   0  0  0  0  0  0  0  0  0  0  0  0
    0.7094  -16.2068    3.5871 C   0  0  0  0  0  0  0  0  0  0  0  0
   -0.5429  -16.1277    3.2894 C   0  0  0  0  0  0  0  0  0  0  0  0
  8 11  1  0
  6 12  1  0
 11 13  1  0
 13 14  1  6
 13 15  1  0
 15 16  2  3
 16 17  1  0
  4 10  2  0
  9 10  1  0
  8  9  2  0
  7  8  1  0
  3  7  2  0
  1  2  2  0
  2  6  1  0
  5  6  2  0
  4  5  1  0
  3  4  1  0
  1  3  1  0
M  END

$$$$
No_2293-/export/home/yangzhenyu/potential_scad_32_flow//YTHDC2/2024-12-06-03-22-00/
     RDKit          3D

 18 20  0  0  0  0  0  0  0  0999 V2000
    1.1787   -8.0297    3.5154 C   0  0  0  0  0  0  0  0  0  0  0  0
    1.0491   -6.8434    2.9820 C   0  0  0  0  0  0  0  0  0  0  0  0
    0.9905   -9.0774    2.6527 C   0  0  0  0  0  0  0  0  0  0  0  0
    1.1655  -10.4663    3.1286 C   0  0  0  0  0  0  0  0  0  0  0  0
    1.2197  -11.4898    2.5831 C   0  0  0  0  0  0  0  0  0  0  0  0
    1.0589  -11.4458    1.1293 C   0  0  0  0  0  0  0  0  0  0  0  0
    0.9638  -10.3069    0.4651 C   0  0  0  0  0  0  0  0  0  0  0  0
    0.9191   -9.0789    1.1942 C   0  0  0  0  0  0  0  0  0  0  0  0
    0.9198   -7.8339    0.6158 C   0  0  0  0  0  0  0  0  0  0  0  0
    1.0184   -6.6904    1.4953 C   0  0  0  0  0  0  0  0  0  0  0  0
    1.3445  -12.8197    3.0746 C   0  0  0  0  0  0  0  0  0  0  0  0
    0.2302  -13.7310    2.9230 O   0  0  0  0  0  0  0  0  0  0  0  0
    0.7481  -14.9382    2.4732 C   0  0  0  0  0  0  0  0  0  0  0  0
    0.0215  -15.9668    2.7941 C   0  0  0  0  0  0  0  0  0  0  0  0
    0.7117  -17.0496    3.4329 C   0  0  0  0  0  0  0  0  0  0  0  0
    2.2020  -17.1662    3.1466 C   0  0  0  0  0  0  0  0  0  0  0  0
    2.8675  -16.1377    2.5971 C   0  0  0  0  0  0  0  0  0  0  0  0
    2.1547  -14.9967    2.2650 C   0  0  0  0  0  0  0  0  0  0  0  0
  5 11  1  0
 11 12  1  0
 12 13  1  0
 13 14  2  0
 14 15  1  0
 15 16  2  0
 16 17  1  0
 17 18  2  0
 13 18  1  0
  1  2  2  0
  2 10  1  0
  9 10  2  0
  8  9  1  0
  1  3  1  0
  3  4  2  0
  4  5  1  0
  5  6  2  0
  6  7  1  0
  7  8  2  0
  3  8  1  0
M  END

$$$$
No_2294-/export/home/yangzhenyu/potential_scad_32_flow//YTHDC2/2024-12-06-03-22-00/
     RDKit          3D

 18 19  0  0  0  0  0  0  0  0999 V2000
    1.1787   -8.0297    3.5154 C   0  0  0  0  0  0  0  0  0  0  0  0
    1.1048   -9.2215    3.2892 C   0  0  0  0  0  0  0  0  0  0  0  0
    1.3627  -10.1721    4.3044 C   0  0  0  0  0  0  0  0  0  0  0  0
    2.3720  -10.8948    4.2468 C   0  0  0  0  0  0  0  0  0  0  0  0
    1.0579   -7.0441    2.4219 C   0  0  0  0  0  0  0  0  0  0  0  0
    0.8578   -7.4970    1.1686 C   0  0  0  0  0  0  0  0  0  0  0  0
    0.7382   -8.7683    0.8754 C   0  0  0  0  0  0  0  0  0  0  0  0
    0.8882   -9.7347    1.9238 C   0  0  0  0  0  0  0  0  0  0  0  0
    0.9437  -11.0299    1.7005 C   0  0  0  0  0  0  0  0  0  0  0  0
   -0.0869  -11.8512    1.8957 C   0  0  0  0  0  0  0  0  0  0  0  0
    0.1270  -13.3100    1.8641 Cl  0  0  0  0  0  0  0  0  0  0  0  0
   -1.3950  -11.3934    2.1161 C   0  0  0  0  0  0  0  0  0  0  0  0
   -2.0363  -10.5504    1.6915 C   0  0  0  0  0  0  0  0  0  0  0  0
   -3.3670  -10.2197    2.1499 C   0  0  0  0  0  0  0  0  0  0  0  0
   -4.0411  -11.0162    2.9442 C   0  0  0  0  0  0  0  0  0  0  0  0
   -3.3114  -12.0769    3.5122 C   0  0  0  0  0  0  0  0  0  0  0  0
   -2.0113  -12.3357    3.1196 C   0  0  0  0  0  0  0  0  0  0  0  0
    1.9660  -11.4554    0.9535 O   0  0  0  0  0  0  0  0  0  0  0  0
  2  3  1  0
  3  4  1  0
  8  9  1  0
  9 10  1  0
 10 11  1  0
 10 12  1  0
  9 18  2  0
 12 13  2  0
 13 14  1  0
 14 15  2  0
 15 16  1  0
 16 17  2  0
 12 17  1  0
  1  2  2  0
  2  8  1  0
  7  8  2  0
  6  7  1  0
  5  6  2  0
  1  5  1  0
M  END

$$$$
No_2295-/export/home/yangzhenyu/potential_scad_32_flow//YTHDC2/2024-12-06-03-22-00/
     RDKit          3D

 18 19  0  0  0  0  0  0  0  0999 V2000
    1.1787   -8.0297    3.5154 C   0  0  0  0  0  0  0  0  0  0  0  0
    1.0491   -6.8434    2.9820 C   0  0  0  0  0  0  0  0  0  0  0  0
    2.0004   -8.9805    3.0498 C   0  0  0  0  0  0  0  0  0  0  0  0
    2.3555   -9.0813    1.8033 C   0  0  0  0  0  0  0  0  0  0  0  0
    1.5516   -6.8448    1.5633 C   0  0  0  0  0  0  0  0  0  0  0  0
    2.2171   -7.9366    1.0002 C   0  0  0  0  0  0  0  0  0  0  0  0
    2.0997  -10.4536    3.8994 C   0  0  0  0  0  0  0  0  0  0  0  0
    1.1257  -11.1975    3.9383 N   0  0  0  0  0  0  0  0  0  0  0  0
   -0.0767  -10.9752    3.6732 C   0  0  0  0  0  0  0  0  0  0  0  0
   -0.7885  -11.6011    2.8171 C   0  0  0  0  0  0  0  0  0  0  0  0
   -0.2401  -12.6704    2.1826 C   0  0  0  0  0  0  0  0  0  0  0  0
   -0.9510  -13.3495    1.2736 C   0  0  0  0  0  0  0  0  0  0  0  0
   -2.2391  -12.9527    1.0315 C   0  0  0  0  0  0  0  0  0  0  0  0
   -2.8215  -11.9666    1.6598 C   0  0  0  0  0  0  0  0  0  0  0  0
   -2.0708  -11.2583    2.6537 C   0  0  0  0  0  0  0  0  0  0  0  0
   -0.7254  -10.2764    4.8543 O   0  0  0  0  0  0  0  0  0  0  0  0
    1.4280   -5.6862    0.8455 O   0  0  0  0  0  0  0  0  0  0  0  0
   -2.9718  -13.5898   -0.0846 O   0  0  0  0  0  0  0  0  0  0  0  0
  3  7  1  0
  7  8  1  0
  8  9  1  0
  9 10  1  0
  9 16  2  0
  5 17  1  0
 13 18  1  0
  1  2  2  0
  2  5  1  0
  5  6  2  0
  4  6  1  0
  3  4  2  0
  1  3  1  0
 10 11  2  0
 11 12  1  0
 12 13  2  0
 13 14  1  0
 14 15  2  0
 10 15  1  0
M  END

$$$$
No_2296-/export/home/yangzhenyu/potential_scad_32_flow//YTHDC2/2024-12-06-03-22-00/
     RDKit          3D

 17 17  0  0  1  0  0  0  0  0999 V2000
    1.1787   -8.0297    3.5154 C   0  0  0  0  0  0  0  0  0  0  0  0
    1.1048   -9.2215    3.2892 C   0  0  0  0  0  0  0  0  0  0  0  0
    1.3627  -10.1721    4.3044 C   0  0  0  0  0  0  0  0  0  0  0  0
    1.0682  -11.5187    4.0618 C   0  0  0  0  0  0  0  0  0  0  0  0
    0.6332  -11.9655    2.9682 C   0  0  0  0  0  0  0  0  0  0  0  0
    0.4776  -11.1308    1.9203 C   0  0  0  0  0  0  0  0  0  0  0  0
    0.7470   -9.8274    2.0368 C   0  0  0  0  0  0  0  0  0  0  0  0
    1.0387   -7.0301    2.5175 O   0  0  0  0  0  0  0  0  0  0  0  0
    0.4220  -13.4291    2.8032 C   0  0  1  0  0  0  0  0  0  0  0  0
   -0.7524  -13.9320    2.4107 N   0  0  0  0  0  0  0  0  0  0  0  0
    1.5361  -14.2874    2.4312 C   0  0  0  0  0  0  0  0  0  0  0  0
    1.4038  -15.6727    2.6438 C   0  0  0  0  0  0  0  0  0  0  0  0
    2.4776  -16.5972    2.5121 C   0  0  0  0  0  0  0  0  0  0  0  0
    2.4796  -17.9135    2.7828 O   0  0  0  0  0  0  0  0  0  0  0  0
    3.4965  -16.0924    1.7796 O   0  0  0  0  0  0  0  0  0  0  0  0
   -1.0159  -14.6613    1.4216 C   0  0  0  0  0  0  0  0  0  0  0  0
   -0.5492  -14.5062    0.1323 C   0  0  0  0  0  0  0  0  0  0  0  0
  1  2  1  0
  1  8  2  0
  5  9  1  0
  9 10  1  6
  9 11  1  0
 11 12  2  3
 12 13  1  0
 13 14  1  0
 13 15  2  0
 10 16  1  0
 16 17  1  0
  2  3  2  0
  3  4  1  0
  4  5  2  0
  5  6  1  0
  6  7  2  0
  2  7  1  0
M  END

$$$$
No_2297-/export/home/yangzhenyu/potential_scad_32_flow//YTHDC2/2024-12-06-03-22-00/
     RDKit          3D

 16 16  0  0  0  0  0  0  0  0999 V2000
    1.1787   -8.0297    3.5154 C   0  0  0  0  0  0  0  0  0  0  0  0
    1.0491   -6.8434    2.9820 C   0  0  0  0  0  0  0  0  0  0  0  0
    0.9905   -9.0774    2.6527 C   0  0  0  0  0  0  0  0  0  0  0  0
    0.7897   -8.9519    1.3691 C   0  0  0  0  0  0  0  0  0  0  0  0
    0.6550  -10.0985    0.4848 C   0  0  0  0  0  0  0  0  0  0  0  0
    0.7849   -6.5836    1.6043 C   0  0  0  0  0  0  0  0  0  0  0  0
    0.6652   -7.6671    0.8008 C   0  0  0  0  0  0  0  0  0  0  0  0
    1.2441  -11.1828    0.5777 O   0  0  0  0  0  0  0  0  0  0  0  0
   -0.1744   -9.9646   -0.6150 N   0  0  0  0  0  0  0  0  0  0  0  0
    1.2260  -10.4366    3.2043 C   0  0  0  0  0  0  0  0  0  0  0  0
    0.1958  -11.2141    3.6880 C   0  0  0  0  0  0  0  0  0  0  0  0
   -0.4310  -11.6803    3.0549 O   0  0  0  0  0  0  0  0  0  0  0  0
   -0.1352  -10.9092    4.8335 O   0  0  0  0  0  0  0  0  0  0  0  0
    0.6349   -5.2099    1.0314 O   0  0  0  0  0  0  0  0  0  0  0  0
   -0.9627   -8.8873   -0.8301 C   0  0  0  0  0  0  0  0  0  0  0  0
   -2.1978   -8.7742   -0.4943 C   0  0  0  0  0  0  0  0  0  0  0  0
  4  5  1  0
  5  8  2  0
  5  9  1  0
  3 10  1  0
 10 11  1  0
 11 12  2  0
 11 13  1  0
  6 14  1  0
  9 15  1  0
 15 16  1  0
  1  2  2  0
  2  6  1  0
  6  7  2  0
  4  7  1  0
  3  4  2  0
  1  3  1  0
M  END

$$$$
No_2298-/export/home/yangzhenyu/potential_scad_32_flow//YTHDC2/2024-12-06-03-22-00/
     RDKit          3D

 21 22  0  0  1  0  0  0  0  0999 V2000
    1.1787   -8.0297    3.5154 C   0  0  0  0  0  0  0  0  0  0  0  0
    1.0491   -6.8434    2.9820 C   0  0  0  0  0  0  0  0  0  0  0  0
    1.9985   -8.9840    2.8958 C   0  0  1  0  0  0  0  0  0  0  0  0
    1.9135  -10.3404    3.6266 C   0  0  0  0  0  0  0  0  0  0  0  0
    1.3291  -11.3908    3.0222 C   0  0  0  0  0  0  0  0  0  0  0  0
    1.0344  -11.3281    1.7959 C   0  0  0  0  0  0  0  0  0  0  0  0
    1.0857   -6.5153    1.8498 C   0  0  1  0  0  0  0  0  0  0  0  0
    1.3058   -7.4754    0.8958 C   0  0  0  0  0  0  0  0  0  0  0  0
    0.6158  -12.5138    1.1548 C   0  0  0  0  0  0  0  0  0  0  0  0
    0.5783  -13.7092    1.6687 C   0  0  0  0  0  0  0  0  0  0  0  0
    0.9574  -13.7419    3.0696 C   0  0  0  0  0  0  0  0  0  0  0  0
    1.3969  -12.6274    3.7043 C   0  0  0  0  0  0  0  0  0  0  0  0
    1.8224   -8.7973    1.3523 C   0  0  0  0  0  0  0  0  0  0  0  0
    0.5813   -5.3336    1.2459 C   0  0  0  0  0  0  0  0  0  0  0  0
   -0.0102   -4.5026    1.9040 C   0  0  0  0  0  0  0  0  0  0  0  0
    2.5231   -9.5919    0.5801 O   0  0  0  0  0  0  0  0  0  0  0  0
   -0.5621   -3.2167    1.5620 C   0  0  0  0  0  0  0  0  0  0  0  0
   -0.0093   -2.0563    1.9030 C   0  0  0  0  0  0  0  0  0  0  0  0
    0.8948  -14.9707    3.7777 O   0  0  0  0  0  0  0  0  0  0  0  0
    0.9692  -16.2247    3.0113 C   0  0  0  0  0  0  0  0  0  0  0  0
    1.1952   -2.0889    1.9706 C   0  0  0  0  0  0  0  0  0  0  0  0
  1  2  1  0
  1  3  1  0
  3  4  1  1
  4  5  1  0
  7  2  1  1
  7  8  1  0
  3 13  1  0
  8 13  1  0
  7 14  1  0
 14 15  2  3
 13 16  2  0
 15 17  1  0
 17 18  1  0
 11 19  1  0
 19 20  1  0
 18 21  1  0
  5  6  2  0
  6  9  1  0
  9 10  2  0
 10 11  1  0
 11 12  2  0
  5 12  1  0
M  END

$$$$
No_2299-/export/home/yangzhenyu/potential_scad_32_flow//YTHDC2/2024-12-06-03-22-00/
     RDKit          3D

 19 20  0  0  1  0  0  0  0  0999 V2000
    1.1787   -8.0297    3.5154 C   0  0  0  0  0  0  0  0  0  0  0  0
    1.1048   -9.2215    3.2892 C   0  0  0  0  0  0  0  0  0  0  0  0
    1.3627  -10.1721    4.3044 C   0  0  0  0  0  0  0  0  0  0  0  0
    2.3720  -10.8948    4.2468 C   0  0  0  0  0  0  0  0  0  0  0  0
    0.8234   -7.0464    2.5717 C   0  0  0  0  0  0  0  0  0  0  0  0
    0.4328   -7.4736    1.3042 C   0  0  0  0  0  0  0  0  0  0  0  0
    0.3532   -8.7488    0.9919 C   0  0  0  0  0  0  0  0  0  0  0  0
    0.7039   -9.7094    1.9672 C   0  0  0  0  0  0  0  0  0  0  0  0
    1.2460  -10.6441    1.6197 C   0  0  1  0  0  0  0  0  0  0  0  0
    2.2594  -11.6939    2.9714 C   0  0  0  0  0  0  0  0  0  0  0  0
    1.3424  -11.5149    0.6638 C   0  0  0  0  0  0  0  0  0  0  0  0
    0.8476   -5.5636    2.8339 C   0  0  0  0  0  0  0  0  0  0  0  0
    1.1771  -10.9955   -0.4303 O   0  0  0  0  0  0  0  0  0  0  0  0
    1.4705  -12.9014    0.6024 O   0  0  0  0  0  0  0  0  0  0  0  0
    1.2063   -4.7410    1.9942 C   0  0  0  0  0  0  0  0  0  0  0  0
    1.3728   -3.3354    2.2783 C   0  0  0  0  0  0  0  0  0  0  0  0
    1.5884   -2.4306    1.3032 C   0  0  0  0  0  0  0  0  0  0  0  0
    1.1918   -2.8296   -0.0055 C   0  0  0  0  0  0  0  0  0  0  0  0
    0.6232   -3.9551   -0.1981 C   0  0  0  0  0  0  0  0  0  0  0  0
  2  3  1  0
  3  4  1  0
  8  9  1  0
  4 10  1  0
  9 10  1  0
  9 11  1  1
  5 12  1  0
 11 13  2  0
 11 14  1  0
 12 15  1  0
 15 16  1  0
 16 17  1  0
 17 18  1  0
 18 19  2  0
  1  2  2  0
  2  8  1  0
  7  8  2  0
  6  7  1  0
  5  6  2  0
  1  5  1  0
M  END

$$$$
No_2300-/export/home/yangzhenyu/potential_scad_32_flow//YTHDC2/2024-12-06-03-22-00/
     RDKit          3D

  9  9  0  0  0  0  0  0  0  0999 V2000
    1.1787   -8.0297    3.5154 C   0  0  0  0  0  0  0  0  0  0  0  0
    1.0491   -6.8434    2.9820 C   0  0  0  0  0  0  0  0  0  0  0  0
    0.9905   -9.0774    2.6527 C   0  0  0  0  0  0  0  0  0  0  0  0
    0.7897   -8.9519    1.3691 C   0  0  0  0  0  0  0  0  0  0  0  0
    0.7018   -7.7198    0.7892 C   0  0  0  0  0  0  0  0  0  0  0  0
    0.8918   -6.5957    1.6117 C   0  0  0  0  0  0  0  0  0  0  0  0
    1.0711  -10.4814    3.2282 C   0  0  0  0  0  0  0  0  0  0  0  0
   -0.1055  -11.1328    3.5223 C   0  0  0  0  0  0  0  0  0  0  0  0
   -1.2061  -10.3495    3.8837 N   0  0  0  0  0  0  0  0  0  0  0  0
  3  7  1  0
  7  8  1  0
  8  9  1  0
  1  2  2  0
  2  6  1  0
  5  6  2  0
  4  5  1  0
  3  4  2  0
  1  3  1  0
M  END

$$$$
No_2301-/export/home/yangzhenyu/potential_scad_32_flow//YTHDC2/2024-12-06-03-22-00/
     RDKit          3D

 18 19  0  0  0  0  0  0  0  0999 V2000
    1.1787   -8.0297    3.5154 C   0  0  0  0  0  0  0  0  0  0  0  0
    1.0491   -6.8434    2.9820 C   0  0  0  0  0  0  0  0  0  0  0  0
    0.0950   -8.8404    3.2292 C   0  0  0  0  0  0  0  0  0  0  0  0
    0.0602  -10.1764    3.8231 C   0  0  0  0  0  0  0  0  0  0  0  0
    0.2248   -6.3830    2.0648 C   0  0  0  0  0  0  0  0  0  0  0  0
   -0.6745   -7.2322    1.6857 C   0  0  0  0  0  0  0  0  0  0  0  0
   -0.7374   -8.4992    2.1291 C   0  0  0  0  0  0  0  0  0  0  0  0
    1.0517  -10.8728    4.0967 C   0  0  0  0  0  0  0  0  0  0  0  0
    0.8765  -12.2762    4.4635 C   0  0  0  0  0  0  0  0  0  0  0  0
    0.6277  -12.9704    3.4124 C   0  0  0  0  0  0  0  0  0  0  0  0
    0.3171  -12.7410    2.3978 C   0  0  0  0  0  0  0  0  0  0  0  0
   -0.9786  -12.6706    1.9415 C   0  0  0  0  0  0  0  0  0  0  0  0
   -1.2415  -11.9459    0.6743 C   0  0  0  0  0  0  0  0  0  0  0  0
   -0.0046  -11.8555   -0.0832 C   0  0  0  0  0  0  0  0  0  0  0  0
    1.0137  -12.2153    1.0567 C   0  0  0  0  0  0  0  0  0  0  0  0
    1.2213  -14.4697    3.5520 O   0  0  0  0  0  0  0  0  0  0  0  0
    0.3707   -4.9316    1.4018 O   0  0  0  0  0  0  0  0  0  0  0  0
    0.1154   -3.9033    2.0719 C   0  0  0  0  0  0  0  0  0  0  0  0
  3  4  1  0
  4  8  2  3
  8  9  1  0
  9 10  2  3
 10 11  1  0
 11 12  1  0
 12 13  2  0
 13 14  1  0
 11 15  1  0
 14 15  2  0
 10 16  1  0
  5 17  1  0
 17 18  1  0
  1  2  2  0
  2  5  1  0
  5  6  2  0
  6  7  1  0
  3  7  2  0
  1  3  1  0
M  END

$$$$
No_2302-/export/home/yangzhenyu/potential_scad_32_flow//YTHDC2/2024-12-06-03-22-00/
     RDKit          3D

 19 19  0  0  1  0  0  0  0  0999 V2000
    1.1787   -8.0297    3.5154 C   0  0  0  0  0  0  0  0  0  0  0  0
    1.1048   -9.2215    3.2892 Cl  0  0  0  0  0  0  0  0  0  0  0  0
    1.1053   -7.0623    2.3233 C   0  0  0  0  0  0  0  0  0  0  0  0
    0.9916   -5.7309    2.4267 O   0  0  0  0  0  0  0  0  0  0  0  0
    1.8052   -7.6140    1.2859 O   0  0  0  0  0  0  0  0  0  0  0  0
    0.9628   -4.9405    1.3241 C   0  0  0  0  0  0  0  0  0  0  0  0
   -0.4942   -4.6627    1.1268 C   0  0  2  0  0  0  0  0  0  0  0  0
   -1.3226   -5.6102    1.3797 O   0  0  0  0  0  0  0  0  0  0  0  0
   -0.6600   -3.9237    0.0068 C   0  0  0  0  0  0  0  0  0  0  0  0
   -0.0012   -2.6742   -0.0378 C   0  0  0  0  0  0  0  0  0  0  0  0
   -0.6897   -1.5933    0.3370 C   0  0  0  0  0  0  0  0  0  0  0  0
   -0.3159   -0.8103    0.9006 C   0  0  0  0  0  0  0  0  0  0  0  0
    0.3803   -0.7778    2.0986 C   0  0  0  0  0  0  0  0  0  0  0  0
    1.5918   -0.1252    2.2737 C   0  0  0  0  0  0  0  0  0  0  0  0
    0.1033   -1.7006    3.1517 C   0  0  0  0  0  0  0  0  0  0  0  0
    1.0090   -2.0354    4.2135 C   0  0  0  0  0  0  0  0  0  0  0  0
    2.2339   -1.4294    4.0797 C   0  0  0  0  0  0  0  0  0  0  0  0
    2.6491   -0.9645    3.0386 C   0  0  0  0  0  0  0  0  0  0  0  0
   -1.6447   -4.1573   -0.7848 O   0  0  0  0  0  0  0  0  0  0  0  0
  1  2  1  0
  1  3  1  0
  3  4  1  0
  3  5  2  0
  4  6  1  0
  6  7  1  0
  7  8  1  6
  7  9  1  0
  9 10  1  0
 10 11  1  0
 11 12  1  0
 12 13  1  0
  9 19  2  0
 13 14  2  0
 14 18  1  0
 17 18  2  0
 16 17  1  0
 15 16  2  0
 13 15  1  0
M  END

$$$$
No_2303-/export/home/yangzhenyu/potential_scad_32_flow//YTHDC2/2024-12-06-03-22-00/
     RDKit          3D

 19 21  0  0  0  0  0  0  0  0999 V2000
    1.1787   -8.0297    3.5154 C   0  0  0  0  0  0  0  0  0  0  0  0
    1.0491   -6.8434    2.9820 C   0  0  0  0  0  0  0  0  0  0  0  0
    0.9905   -9.0774    2.6527 C   0  0  0  0  0  0  0  0  0  0  0  0
    0.7897   -8.9519    1.3691 C   0  0  0  0  0  0  0  0  0  0  0  0
    0.7018   -7.7198    0.7892 C   0  0  0  0  0  0  0  0  0  0  0  0
    0.8918   -6.5957    1.6117 C   0  0  0  0  0  0  0  0  0  0  0  0
    1.0711  -10.4814    3.2282 C   0  0  0  0  0  0  0  0  0  0  0  0
    1.1227  -11.5770    2.4616 C   0  0  0  0  0  0  0  0  0  0  0  0
    1.0412  -11.3415    1.0713 C   0  0  0  0  0  0  0  0  0  0  0  0
    1.0019  -10.1422    0.5249 C   0  0  0  0  0  0  0  0  0  0  0  0
    1.3496  -13.0638    3.1278 C   0  0  0  0  0  0  0  0  0  0  0  0
    0.1966  -13.9109    2.9372 O   0  0  0  0  0  0  0  0  0  0  0  0
    0.7348   -5.3087    1.0840 O   0  0  0  0  0  0  0  0  0  0  0  0
    0.6431  -15.2093    3.0614 C   0  0  0  0  0  0  0  0  0  0  0  0
    1.9195  -15.5519    2.5600 C   0  0  0  0  0  0  0  0  0  0  0  0
    2.3810  -16.9278    2.6849 C   0  0  0  0  0  0  0  0  0  0  0  0
    1.6439  -17.8393    3.1942 C   0  0  0  0  0  0  0  0  0  0  0  0
    0.4516  -17.5324    3.7304 C   0  0  0  0  0  0  0  0  0  0  0  0
   -0.0581  -16.1893    3.6800 C   0  0  0  0  0  0  0  0  0  0  0  0
  8 11  1  0
 11 12  1  0
  6 13  1  0
 12 14  1  0
  4 10  2  0
  9 10  1  0
  8  9  2  0
  7  8  1  0
  3  7  2  0
  1  2  2  0
  2  6  1  0
  5  6  2  0
  4  5  1  0
  3  4  1  0
  1  3  1  0
 14 15  2  0
 15 16  1  0
 16 17  2  0
 17 18  1  0
 18 19  2  0
 14 19  1  0
M  END

$$$$
No_2304-/export/home/yangzhenyu/potential_scad_32_flow//YTHDC2/2024-12-06-03-22-00/
     RDKit          3D

 17 18  0  0  1  0  0  0  0  0999 V2000
    1.1787   -8.0297    3.5154 C   0  0  0  0  0  0  0  0  0  0  0  0
    1.1048   -9.2215    3.2892 C   0  0  0  0  0  0  0  0  0  0  0  0
    1.2339   -9.7611    2.0189 C   0  0  0  0  0  0  0  0  0  0  0  0
    1.3583   -9.0036    0.9764 C   0  0  0  0  0  0  0  0  0  0  0  0
    1.5996   -7.6362    1.1311 C   0  0  0  0  0  0  0  0  0  0  0  0
    1.4830   -7.0928    2.3626 C   0  0  0  0  0  0  0  0  0  0  0  0
    1.1171  -11.3311    1.8661 C   0  0  2  0  0  0  0  0  0  0  0  0
    1.9975  -12.1095    2.2478 C   0  0  0  0  0  0  0  0  0  0  0  0
    1.7697  -13.4418    1.9079 C   0  0  1  0  0  0  0  0  0  0  0  0
    0.8824  -13.8563    1.1154 C   0  0  0  0  0  0  0  0  0  0  0  0
   -0.0664  -12.9335    0.5986 C   0  0  0  0  0  0  0  0  0  0  0  0
    0.1158  -11.5559    0.9634 C   0  0  0  0  0  0  0  0  0  0  0  0
    1.5514   -5.6395    2.6394 Cl  0  0  0  0  0  0  0  0  0  0  0  0
   -0.8042  -10.6759    0.4501 O   0  0  0  0  0  0  0  0  0  0  0  0
    2.9391  -14.5621    2.5239 Cl  0  0  0  0  0  0  0  0  0  0  0  0
    1.5861   -9.4261   -0.3589 C   0  0  0  0  0  0  0  0  0  0  0  0
    2.4592  -10.2222   -0.7506 O   0  0  0  0  0  0  0  0  0  0  0  0
  7  3  1  6
  7  8  1  0
  9 10  1  0
  7 12  1  0
 11 12  1  0
  6 13  1  0
 12 14  2  0
  9 15  1  6
  4 16  1  0
 16 17  2  0
  8  9  1  0
 10 11  1  0
  1  2  2  0
  2  3  1  0
  3  4  2  0
  4  5  1  0
  5  6  2  0
  1  6  1  0
M  END

$$$$
No_2305-/export/home/yangzhenyu/potential_scad_32_flow//YTHDC2/2024-12-06-03-22-00/
     RDKit          3D

 18 19  0  0  1  0  0  0  0  0999 V2000
    1.1787   -8.0297    3.5154 C   0  0  0  0  0  0  0  0  0  0  0  0
    1.0491   -6.8434    2.9820 C   0  0  0  0  0  0  0  0  0  0  0  0
    1.9985   -8.9840    2.8958 C   0  0  2  0  0  0  0  0  0  0  0  0
    1.7297   -9.2108    1.6335 C   0  0  0  0  0  0  0  0  0  0  0  0
    1.7343   -8.0566    0.8408 C   0  0  0  0  0  0  0  0  0  0  0  0
    1.0269   -6.8892    1.4456 C   0  0  0  0  0  0  0  0  0  0  0  0
    2.0740   -7.9416   -0.3682 O   0  0  0  0  0  0  0  0  0  0  0  0
    2.2757  -10.2253    3.6437 C   0  0  0  0  0  0  0  0  0  0  0  0
    1.5555  -11.3890    3.5635 C   0  0  0  0  0  0  0  0  0  0  0  0
    2.0226  -12.5794    3.4125 C   0  0  0  0  0  0  0  0  0  0  0  0
    1.1469  -13.7051    3.1596 C   0  0  0  0  0  0  0  0  0  0  0  0
    1.2409  -14.0595    1.6410 C   0  0  0  0  0  0  0  0  0  0  0  0
    0.8437  -15.1312    1.2874 C   0  0  0  0  0  0  0  0  0  0  0  0
    1.4229  -16.3158    1.7778 C   0  0  0  0  0  0  0  0  0  0  0  0
    0.9279  -17.5026    1.7642 C   0  0  0  0  0  0  0  0  0  0  0  0
   -0.1974  -17.7236    1.0533 C   0  0  0  0  0  0  0  0  0  0  0  0
   -0.7831  -16.6811    0.3741 C   0  0  0  0  0  0  0  0  0  0  0  0
   -0.2518  -15.3714    0.5160 C   0  0  0  0  0  0  0  0  0  0  0  0
  1  2  1  0
  1  3  1  0
  3  4  1  0
  4  5  1  0
  2  6  1  0
  5  6  1  0
  5  7  2  0
  3  8  1  1
  8  9  1  0
  9 10  1  0
 10 11  1  0
 11 12  1  0
 12 13  1  0
 13 14  2  0
 14 15  1  0
 15 16  2  0
 16 17  1  0
 17 18  2  0
 13 18  1  0
M  END

$$$$
No_2306-/export/home/yangzhenyu/potential_scad_32_flow//YTHDC2/2024-12-06-03-22-00/
     RDKit          3D

 20 21  0  0  0  0  0  0  0  0999 V2000
    1.1787   -8.0297    3.5154 N   0  0  0  0  0  0  0  0  0  0  0  0
    1.0818   -9.0751    3.2053 C   0  0  0  0  0  0  0  0  0  0  0  0
    1.5216  -10.1164    3.9747 C   0  0  0  0  0  0  0  0  0  0  0  0
    1.7650  -11.2320    3.5712 C   0  0  0  0  0  0  0  0  0  0  0  0
    1.4277  -11.6899    2.3702 C   0  0  0  0  0  0  0  0  0  0  0  0
    1.0443  -10.7313    1.4783 C   0  0  0  0  0  0  0  0  0  0  0  0
    0.9294   -9.4471    1.8469 C   0  0  0  0  0  0  0  0  0  0  0  0
    0.5107   -8.4473    0.9766 C   0  0  0  0  0  0  0  0  0  0  0  0
    0.1543   -7.3638    1.2242 C   0  0  0  0  0  0  0  0  0  0  0  0
    0.6075   -6.8962    2.6757 C   0  0  0  0  0  0  0  0  0  0  0  0
    1.6301  -13.1149    1.9844 C   0  0  0  0  0  0  0  0  0  0  0  0
    1.7920  -13.5338    0.8415 O   0  0  0  0  0  0  0  0  0  0  0  0
    1.7543  -14.0924    2.9880 N   0  0  0  0  0  0  0  0  0  0  0  0
    0.7219   -5.6113    3.0935 C   0  0  0  0  0  0  0  0  0  0  0  0
    1.8555  -15.4527    2.7691 N   0  0  0  0  0  0  0  0  0  0  0  0
    1.9155   -5.0535    3.4142 C   0  0  0  0  0  0  0  0  0  0  0  0
    0.8288  -16.1703    3.0588 C   0  0  0  0  0  0  0  0  0  0  0  0
    0.4753  -17.0175    2.5592 C   0  0  0  0  0  0  0  0  0  0  0  0
   -0.6389  -17.8593    2.9526 C   0  0  0  0  0  0  0  0  0  0  0  0
   -1.0178  -17.5905    4.3020 C   0  0  0  0  0  0  0  0  0  0  0  0
  5 11  1  0
 11 12  2  0
 11 13  1  0
 10 14  1  0
 13 15  1  0
 14 16  1  0
 15 17  1  0
 17 18  2  3
 18 19  1  0
 19 20  2  0
  1  2  2  0
  7  8  2  0
  8  9  1  0
  9 10  2  0
  1 10  1  0
  2  3  1  0
  3  4  2  0
  4  5  1  0
  5  6  2  0
  6  7  1  0
  2  7  1  0
M  END

$$$$
No_2307-/export/home/yangzhenyu/potential_scad_32_flow//YTHDC2/2024-12-06-03-22-00/
     RDKit          3D

 16 17  0  0  0  0  0  0  0  0999 V2000
    1.1787   -8.0297    3.5154 C   0  0  0  0  0  0  0  0  0  0  0  0
    1.1048   -9.2215    3.2892 C   0  0  0  0  0  0  0  0  0  0  0  0
    1.2339   -9.7611    2.0189 C   0  0  0  0  0  0  0  0  0  0  0  0
    1.3583   -9.0036    0.9764 C   0  0  0  0  0  0  0  0  0  0  0  0
    1.5996   -7.6362    1.1311 C   0  0  0  0  0  0  0  0  0  0  0  0
    1.4830   -7.0928    2.3626 C   0  0  0  0  0  0  0  0  0  0  0  0
    1.1008  -11.2372    1.8542 C   0  0  0  0  0  0  0  0  0  0  0  0
    1.9749  -12.0938    2.2342 C   0  0  0  0  0  0  0  0  0  0  0  0
    1.7533  -13.4231    1.8956 C   0  0  0  0  0  0  0  0  0  0  0  0
    0.8624  -13.8318    1.1071 C   0  0  0  0  0  0  0  0  0  0  0  0
   -0.0624  -12.9093    0.5581 C   0  0  0  0  0  0  0  0  0  0  0  0
    0.1157  -11.5285    0.9404 C   0  0  0  0  0  0  0  0  0  0  0  0
    1.5561   -5.6354    2.6426 Cl  0  0  0  0  0  0  0  0  0  0  0  0
   -0.8311  -10.6449    0.4827 C   0  0  0  0  0  0  0  0  0  0  0  0
   -1.9550  -10.8694    0.0026 C   0  0  0  0  0  0  0  0  0  0  0  0
   -2.7982   -9.9207   -0.7256 O   0  0  0  0  0  0  0  0  0  0  0  0
  3  7  1  0
  6 13  1  0
 12 14  1  0
 14 15  2  3
 15 16  1  0
  1  2  2  0
  2  3  1  0
  3  4  2  0
  4  5  1  0
  5  6  2  0
  1  6  1  0
  7  8  2  0
  8  9  1  0
  9 10  2  0
 10 11  1  0
 11 12  2  0
  7 12  1  0
M  END

$$$$
No_2308-/export/home/yangzhenyu/potential_scad_32_flow//YTHDC2/2024-12-06-03-22-00/
     RDKit          3D

 17 19  0  0  1  0  0  0  0  0999 V2000
    1.1787   -8.0297    3.5154 C   0  0  0  0  0  0  0  0  0  0  0  0
    1.1048   -9.2215    3.2892 O   0  0  0  0  0  0  0  0  0  0  0  0
    1.0717   -9.7272    2.0537 C   0  0  1  0  0  0  0  0  0  0  0  0
    1.4631  -11.0178    2.0045 C   0  0  0  0  0  0  0  0  0  0  0  0
    0.3662   -7.1976    2.5362 C   0  0  0  0  0  0  0  0  0  0  0  0
    0.3834   -7.7826    1.1938 C   0  0  0  0  0  0  0  0  0  0  0  0
    0.4075   -9.0806    1.1059 C   0  0  0  0  0  0  0  0  0  0  0  0
    1.7875  -11.8015    3.1421 C   0  0  0  0  0  0  0  0  0  0  0  0
    1.5651  -13.1961    2.8402 C   0  0  0  0  0  0  0  0  0  0  0  0
    1.3257  -13.8542    1.8019 C   0  0  0  0  0  0  0  0  0  0  0  0
    1.1768  -13.1617    0.7111 C   0  0  0  0  0  0  0  0  0  0  0  0
    1.1150  -11.7320    0.7887 C   0  0  0  0  0  0  0  0  0  0  0  0
   -0.0090   -6.9080    0.3218 C   0  0  0  0  0  0  0  0  0  0  0  0
   -0.4766   -7.5028   -0.8614 C   0  0  0  0  0  0  0  0  0  0  0  0
   -0.3762   -8.9283   -1.1272 C   0  0  0  0  0  0  0  0  0  0  0  0
    0.0692   -9.6525   -0.0647 C   0  0  0  0  0  0  0  0  0  0  0  0
    1.4489  -15.2640    1.7439 C   0  0  0  0  0  0  0  0  0  0  0  0
  1  2  1  0
  2  3  1  0
  3  4  1  1
  1  5  1  0
  5  6  1  0
  3  7  1  0
 10 17  1  0
  4  8  2  0
  8  9  1  0
  9 10  2  0
 10 11  1  0
 11 12  2  0
  4 12  1  0
  6  7  2  0
  7 16  1  0
 15 16  2  0
 14 15  1  0
 13 14  2  0
  6 13  1  0
M  END

$$$$
No_2309-/export/home/yangzhenyu/potential_scad_32_flow//YTHDC2/2024-12-06-03-22-00/
     RDKit          3D

 20 21  0  0  0  0  0  0  0  0999 V2000
    1.1787   -8.0297    3.5154 C   0  0  0  0  0  0  0  0  0  0  0  0
    1.1048   -9.2215    3.2892 C   0  0  0  0  0  0  0  0  0  0  0  0
    1.2339   -9.7611    2.0189 C   0  0  0  0  0  0  0  0  0  0  0  0
    1.3583   -9.0036    0.9764 C   0  0  0  0  0  0  0  0  0  0  0  0
    1.5996   -7.6362    1.1311 C   0  0  0  0  0  0  0  0  0  0  0  0
    1.4830   -7.0928    2.3626 C   0  0  0  0  0  0  0  0  0  0  0  0
    1.1171  -11.3311    1.8661 C   0  0  0  0  0  0  0  0  0  0  0  0
    0.5042  -11.9974    2.3631 N   0  0  0  0  0  0  0  0  0  0  0  0
    0.3684  -12.9981    2.3803 C   0  0  0  0  0  0  0  0  0  0  0  0
    1.3688  -13.8863    1.6080 C   0  0  0  0  0  0  0  0  0  0  0  0
    2.3720  -13.0573    0.8933 C   0  0  0  0  0  0  0  0  0  0  0  0
    2.2108  -11.7353    0.9589 C   0  0  0  0  0  0  0  0  0  0  0  0
    1.5322   -5.4457    2.6840 C   0  0  0  0  0  0  0  0  0  0  0  0
    1.5152  -15.3022    1.5792 C   0  0  0  0  0  0  0  0  0  0  0  0
    1.0463  -15.9425    2.6698 C   0  0  0  0  0  0  0  0  0  0  0  0
    1.1160  -16.8965    3.0557 C   0  0  0  0  0  0  0  0  0  0  0  0
    2.2761  -17.8938    2.6732 C   0  0  0  0  0  0  0  0  0  0  0  0
    2.4103  -19.1285    3.2919 C   0  0  0  0  0  0  0  0  0  0  0  0
    1.6566  -19.4089    4.3717 C   0  0  0  0  0  0  0  0  0  0  0  0
    0.7391  -18.6114    4.8992 C   0  0  0  0  0  0  0  0  0  0  0  0
  3  7  1  0
  6 13  1  0
 10 14  1  0
 14 15  2  3
 15 16  1  0
 16 17  2  3
 17 18  1  0
 18 19  2  3
 19 20  1  0
  1  2  2  0
  2  3  1  0
  3  4  2  0
  4  5  1  0
  5  6  2  0
  1  6  1  0
  7  8  2  0
  8  9  1  0
  9 10  2  0
 10 11  1  0
 11 12  2  0
  7 12  1  0
M  END

$$$$
No_2310-/export/home/yangzhenyu/potential_scad_32_flow//YTHDC2/2024-12-06-03-22-00/
     RDKit          3D

 19 20  0  0  1  0  0  0  0  0999 V2000
    1.1787   -8.0297    3.5154 C   0  0  0  0  0  0  0  0  0  0  0  0
    1.1048   -9.2215    3.2892 C   0  0  0  0  0  0  0  0  0  0  0  0
    1.2339   -9.7611    2.0189 C   0  0  0  0  0  0  0  0  0  0  0  0
    1.3583   -9.0036    0.9764 C   0  0  0  0  0  0  0  0  0  0  0  0
    1.5996   -7.6362    1.1311 C   0  0  0  0  0  0  0  0  0  0  0  0
    1.4830   -7.0928    2.3626 C   0  0  0  0  0  0  0  0  0  0  0  0
    1.5395   -5.7300    2.6182 C   0  0  0  0  0  0  0  0  0  0  0  0
    1.1775  -11.2233    1.8407 C   0  0  0  0  0  0  0  0  0  0  0  0
    0.5085  -11.9762    2.1989 N   0  0  0  0  0  0  0  0  0  0  0  0
   -0.7398  -11.6527    2.6516 C   0  0  0  0  0  0  0  0  0  0  0  0
    0.7360  -13.3386    2.3783 C   0  0  0  0  0  0  0  0  0  0  0  0
   -0.2767  -14.2338    2.4568 C   0  0  2  0  0  0  0  0  0  0  0  0
   -1.4705  -13.8256    2.8312 C   0  0  0  0  0  0  0  0  0  0  0  0
   -1.7294  -12.5282    2.9139 C   0  0  0  0  0  0  0  0  0  0  0  0
    2.4452  -11.6226    1.2300 O   0  0  0  0  0  0  0  0  0  0  0  0
    0.6009   -4.8762    2.7822 O   0  0  0  0  0  0  0  0  0  0  0  0
    0.0813  -15.6646    2.4219 C   0  0  0  0  0  0  0  0  0  0  0  0
    0.9288  -16.2186    3.3592 C   0  0  0  0  0  0  0  0  0  0  0  0
    1.3866  -17.5018    3.1372 C   0  0  0  0  0  0  0  0  0  0  0  0
  6  7  1  0
  3  8  1  0
  8  9  1  0
  9 10  1  0
  9 11  1  0
 12 13  1  0
 10 14  1  0
  8 15  2  0
  7 16  2  0
 12 17  1  1
 17 18  1  0
 18 19  2  0
 13 14  1  0
 11 12  1  0
  1  2  2  0
  2  3  1  0
  3  4  2  0
  4  5  1  0
  5  6  2  0
  1  6  1  0
M  END

$$$$
No_2311-/export/home/yangzhenyu/potential_scad_32_flow//YTHDC2/2024-12-06-03-22-00/
     RDKit          3D

 20 20  0  0  0  0  0  0  0  0999 V2000
    1.1787   -8.0297    3.5154 C   0  0  0  0  0  0  0  0  0  0  0  0
    1.1048   -9.2215    3.2892 C   0  0  0  0  0  0  0  0  0  0  0  0
    1.2339   -9.7611    2.0189 C   0  0  0  0  0  0  0  0  0  0  0  0
    1.1954  -11.2312    1.8661 C   0  0  0  0  0  0  0  0  0  0  0  0
    1.5546  -12.1691    2.7931 C   0  0  0  0  0  0  0  0  0  0  0  0
    0.5849   -7.0929    2.5729 C   0  0  0  0  0  0  0  0  0  0  0  0
    0.5567   -7.6699    1.1955 C   0  0  0  0  0  0  0  0  0  0  0  0
    0.7903   -8.9699    0.9209 C   0  0  0  0  0  0  0  0  0  0  0  0
    0.7585  -13.2773    2.9106 C   0  0  0  0  0  0  0  0  0  0  0  0
    1.3821  -14.5517    2.8039 C   0  0  0  0  0  0  0  0  0  0  0  0
    2.5493  -14.7598    2.2968 O   0  0  0  0  0  0  0  0  0  0  0  0
    0.4912  -15.6280    3.0983 O   0  0  0  0  0  0  0  0  0  0  0  0
    0.6438   -9.3897   -0.3026 C   0  0  0  0  0  0  0  0  0  0  0  0
    1.2336   -9.0094   -1.3660 O   0  0  0  0  0  0  0  0  0  0  0  0
   -0.5413  -10.0712   -0.6328 O   0  0  0  0  0  0  0  0  0  0  0  0
    0.6055   -5.6663    2.6921 Cl  0  0  0  0  0  0  0  0  0  0  0  0
    1.1120  -16.8676    3.4164 C   0  0  0  0  0  0  0  0  0  0  0  0
    0.5063  -17.4631    4.4187 C   0  0  0  0  0  0  0  0  0  0  0  0
    1.0555  -18.5531    4.9656 C   0  0  0  0  0  0  0  0  0  0  0  0
    2.2545  -19.1036    4.3015 C   0  0  0  0  0  0  0  0  0  0  0  0
  3  4  1  0
  4  5  1  0
  5  9  1  0
  9 10  1  0
 10 11  2  0
 10 12  1  0
  8 13  1  0
 13 14  2  0
 13 15  1  0
  6 16  1  0
 12 17  1  0
 17 18  1  0
 18 19  2  3
 19 20  1  0
  1  2  2  0
  2  3  1  0
  3  8  2  0
  7  8  1  0
  6  7  2  0
  1  6  1  0
M  END

$$$$
No_2312-/export/home/yangzhenyu/potential_scad_32_flow//YTHDC2/2024-12-06-03-22-00/
     RDKit          3D

 19 19  0  0  0  0  0  0  0  0999 V2000
    1.1787   -8.0297    3.5154 N   0  0  0  0  0  0  0  0  0  0  0  0
    0.8669   -7.0905    2.8589 C   0  0  0  0  0  0  0  0  0  0  0  0
    1.0447   -7.3244    1.4123 C   0  0  0  0  0  0  0  0  0  0  0  0
    1.3746   -8.4389    1.0864 C   0  0  0  0  0  0  0  0  0  0  0  0
    1.8493   -9.4093    1.8124 C   0  0  0  0  0  0  0  0  0  0  0  0
    1.7421   -9.2119    3.1541 C   0  0  0  0  0  0  0  0  0  0  0  0
    2.0083  -10.3048    4.0591 C   0  0  0  0  0  0  0  0  0  0  0  0
    3.0873  -10.6217    4.4304 O   0  0  0  0  0  0  0  0  0  0  0  0
    0.8895  -10.8481    4.7820 O   0  0  0  0  0  0  0  0  0  0  0  0
    1.7559   -8.6601   -0.6253 C   0  0  0  0  0  0  0  0  0  0  0  0
    0.9287   -8.7873   -1.2413 O   0  0  0  0  0  0  0  0  0  0  0  0
    3.0150   -8.7626   -0.9810 O   0  0  0  0  0  0  0  0  0  0  0  0
    0.4470   -5.8685    3.2665 C   0  0  0  0  0  0  0  0  0  0  0  0
    0.7029   -4.7464    2.6931 C   0  0  0  0  0  0  0  0  0  0  0  0
    0.2122   -3.4362    3.1900 C   0  0  0  0  0  0  0  0  0  0  0  0
    1.1892   -2.5574    3.6235 C   0  0  0  0  0  0  0  0  0  0  0  0
    0.5641   -1.5566    4.3801 C   0  0  0  0  0  0  0  0  0  0  0  0
    0.1835   -0.6134    3.5968 C   0  0  0  0  0  0  0  0  0  0  0  0
    0.1140   -0.9321    2.1769 C   0  0  0  0  0  0  0  0  0  0  0  0
  6  7  1  0
  7  8  2  0
  7  9  1  0
  4 10  1  0
 10 11  2  0
 10 12  1  0
  2 13  1  0
 13 14  2  3
 14 15  1  0
 15 16  1  0
 16 17  1  0
 17 18  1  0
 18 19  1  0
  1  2  2  0
  2  3  1  0
  3  4  2  0
  4  5  1  0
  5  6  2  0
  1  6  1  0
M  END

$$$$
No_2313-/export/home/yangzhenyu/potential_scad_32_flow//YTHDC2/2024-12-06-03-22-00/
     RDKit          3D

 18 18  0  0  1  0  0  0  0  0999 V2000
    1.1787   -8.0297    3.5154 C   0  0  0  0  0  0  0  0  0  0  0  0
    1.0491   -6.8434    2.9820 C   0  0  0  0  0  0  0  0  0  0  0  0
    1.9985   -8.9840    2.8958 C   0  0  1  0  0  0  0  0  0  0  0  0
    1.9135  -10.3404    3.6266 C   0  0  0  0  0  0  0  0  0  0  0  0
    1.3291  -11.3908    3.0222 C   0  0  1  0  0  0  0  0  0  0  0  0
    1.0344  -11.3281    1.7959 C   0  0  0  0  0  0  0  0  0  0  0  0
    0.5050   -6.6553    1.7492 C   0  0  0  0  0  0  0  0  0  0  0  0
    1.6364  -10.2523    0.9337 C   0  0  0  0  0  0  0  0  0  0  0  0
    1.7369   -9.0242    1.6103 C   0  0  0  0  0  0  0  0  0  0  0  0
    0.9461   -5.5965    0.9837 O   0  0  0  0  0  0  0  0  0  0  0  0
   -0.6421   -7.0321    1.3943 N   0  0  0  0  0  0  0  0  0  0  0  0
    1.2305  -12.5200    3.7018 C   0  0  0  0  0  0  0  0  0  0  0  0
    1.2262  -10.2705   -0.3376 O   0  0  0  0  0  0  0  0  0  0  0  0
    0.0529  -13.3484    3.2378 O   0  0  0  0  0  0  0  0  0  0  0  0
   -1.2989   -6.8051    0.1881 C   0  0  0  0  0  0  0  0  0  0  0  0
   -1.3829   -7.7746   -0.7230 C   0  0  0  0  0  0  0  0  0  0  0  0
   -2.1233   -7.6431   -1.6759 O   0  0  0  0  0  0  0  0  0  0  0  0
   -0.4452   -8.8028   -0.6626 O   0  0  0  0  0  0  0  0  0  0  0  0
  1  2  1  0
  3  1  1  1
  3  4  1  0
  4  5  1  0
  5  6  1  0
  2  7  1  0
  6  8  1  0
  3  9  1  0
  8  9  1  0
  7 10  2  0
  7 11  1  0
  5 12  1  6
  8 13  2  0
 12 14  2  0
 11 15  1  0
 15 16  1  0
 16 17  2  0
 16 18  1  0
M  END

$$$$
No_2314-/export/home/yangzhenyu/potential_scad_32_flow//YTHDC2/2024-12-06-03-22-00/
     RDKit          3D

 18 18  0  0  0  0  0  0  0  0999 V2000
    1.1787   -8.0297    3.5154 C   0  0  0  0  0  0  0  0  0  0  0  0
    1.0491   -6.8434    2.9820 C   0  0  0  0  0  0  0  0  0  0  0  0
    1.9985   -8.9840    2.8958 C   0  0  0  0  0  0  0  0  0  0  0  0
    1.9135  -10.3404    3.6266 C   0  0  0  0  0  0  0  0  0  0  0  0
    1.3291  -11.3908    3.0222 C   0  0  0  0  0  0  0  0  0  0  0  0
    1.2749  -12.5326    3.7562 C   0  0  0  0  0  0  0  0  0  0  0  0
    0.4248   -6.6481    1.7861 C   0  0  0  0  0  0  0  0  0  0  0  0
    0.3130   -5.3457    1.3131 O   0  0  0  0  0  0  0  0  0  0  0  0
    0.4009   -7.5406    0.8516 O   0  0  0  0  0  0  0  0  0  0  0  0
    1.0357  -13.6720    3.1385 C   0  0  0  0  0  0  0  0  0  0  0  0
    0.7899  -13.7795    1.8530 C   0  0  0  0  0  0  0  0  0  0  0  0
    0.8511  -12.6445    1.0436 C   0  0  0  0  0  0  0  0  0  0  0  0
    1.1449  -11.4552    1.6091 C   0  0  0  0  0  0  0  0  0  0  0  0
    1.1553  -10.3733    0.7706 C   0  0  0  0  0  0  0  0  0  0  0  0
    2.3371   -9.7154    0.3509 O   0  0  0  0  0  0  0  0  0  0  0  0
    0.1160  -10.0939   -0.0286 O   0  0  0  0  0  0  0  0  0  0  0  0
    0.9076  -15.0705    3.9335 O   0  0  0  0  0  0  0  0  0  0  0  0
    0.8307  -16.1734    3.2077 C   0  0  0  0  0  0  0  0  0  0  0  0
  1  2  1  0
  1  3  1  0
  3  4  1  0
  4  5  1  0
  2  7  1  0
  7  8  2  0
  7  9  1  0
 13 14  1  0
 14 15  2  0
 14 16  1  0
 10 17  1  0
 17 18  1  0
  5  6  2  0
  6 10  1  0
 10 11  2  0
 11 12  1  0
 12 13  2  0
  5 13  1  0
M  END

$$$$
No_2315-/export/home/yangzhenyu/potential_scad_32_flow//YTHDC2/2024-12-06-03-22-00/
     RDKit          3D

 19 20  0  0  1  0  0  0  0  0999 V2000
    1.1787   -8.0297    3.5154 C   0  0  0  0  0  0  0  0  0  0  0  0
    1.1048   -9.2215    3.2892 C   0  0  0  0  0  0  0  0  0  0  0  0
    1.2339   -9.7611    2.0189 S   0  0  0  0  0  0  0  0  0  0  0  0
    1.4505   -8.4501    1.2210 C   0  0  0  0  0  0  0  0  0  0  0  0
    1.4860   -7.3781    2.1698 C   0  0  0  0  0  0  0  0  0  0  0  0
    1.5518   -8.2461   -0.1069 C   0  0  0  0  0  0  0  0  0  0  0  0
    2.2518   -8.9536   -0.9065 C   0  0  0  0  0  0  0  0  0  0  0  0
    3.1082   -9.4966   -0.7746 O   0  0  0  0  0  0  0  0  0  0  0  0
    1.8449   -9.0179   -2.1173 O   0  0  0  0  0  0  0  0  0  0  0  0
   -0.0344  -10.5734    1.5943 C   0  0  0  0  0  0  0  0  0  0  0  0
   -0.5135  -11.3840    1.9858 C   0  0  1  0  0  0  0  0  0  0  0  0
   -1.6170  -12.0993    1.4942 C   0  0  0  0  0  0  0  0  0  0  0  0
   -2.1245  -13.2066    2.0162 C   0  0  0  0  0  0  0  0  0  0  0  0
   -1.2641  -14.1247    2.6459 C   0  0  1  0  0  0  0  0  0  0  0  0
    0.0475  -13.6384    3.0250 C   0  0  0  0  0  0  0  0  0  0  0  0
    0.5020  -12.4083    2.5988 C   0  0  0  0  0  0  0  0  0  0  0  0
    0.9074  -14.4975    3.6951 O   0  0  0  0  0  0  0  0  0  0  0  0
   -1.6491  -15.3749    3.1419 Cl  0  0  0  0  0  0  0  0  0  0  0  0
    2.5505  -10.5621    1.7388 O   0  0  0  0  0  0  0  0  0  0  0  0
  1  2  1  0
  2  3  1  0
  3  4  1  0
  1  5  1  0
  4  5  1  0
  4  6  1  0
  6  7  1  0
  7  8  1  0
  7  9  2  0
  3 10  1  0
 11 12  1  0
 12 13  1  0
 14 15  1  0
 11 16  1  0
 15 16  1  0
 15 17  2  0
 14 18  1  1
  3 19  2  0
 11 10  1  6
 13 14  1  0
M  END

$$$$
No_2316-/export/home/yangzhenyu/potential_scad_32_flow//YTHDC2/2024-12-06-03-22-00/
     RDKit          3D

 18 18  0  0  1  0  0  0  0  0999 V2000
    1.1787   -8.0297    3.5154 O   0  0  0  0  0  0  0  0  0  0  0  0
    0.6747   -7.4019    2.7838 C   0  0  0  0  0  0  0  0  0  0  0  0
    0.7594   -8.0032    1.4295 C   0  0  1  0  0  0  0  0  0  0  0  0
    0.3459   -9.1500    1.3581 C   0  0  0  0  0  0  0  0  0  0  0  0
    1.1876  -10.0065    2.0240 C   0  0  0  0  0  0  0  0  0  0  0  0
    1.0116  -11.4692    2.0236 C   0  0  0  0  0  0  0  0  0  0  0  0
    1.8830  -12.3152    2.6151 C   0  0  0  0  0  0  0  0  0  0  0  0
    1.7683  -13.6705    2.3016 C   0  0  2  0  0  0  0  0  0  0  0  0
    1.4855  -14.3817    2.9848 C   0  0  0  0  0  0  0  0  0  0  0  0
    0.4261   -6.1757    3.1068 O   0  0  0  0  0  0  0  0  0  0  0  0
    1.2240  -15.8497    2.7711 C   0  0  0  0  0  0  0  0  0  0  0  0
    1.7325  -16.2368    1.7183 C   0  0  0  0  0  0  0  0  0  0  0  0
    2.2072  -15.4736    0.7637 C   0  0  0  0  0  0  0  0  0  0  0  0
    2.2454  -14.1259    1.0617 C   0  0  0  0  0  0  0  0  0  0  0  0
   -0.0829  -11.8312    1.3336 O   0  0  0  0  0  0  0  0  0  0  0  0
    2.7494  -13.2684    0.1664 O   0  0  0  0  0  0  0  0  0  0  0  0
    0.0597   -6.9792    0.5801 C   0  0  0  0  0  0  0  0  0  0  0  0
   -0.7426   -7.5374   -0.3053 C   0  0  0  0  0  0  0  0  0  0  0  0
  1  2  1  0
  2  3  1  0
  3  4  1  1
  4  5  1  0
  5  6  1  0
  6  7  1  0
  8  7  1  1
  8  9  1  0
  2 10  2  0
 11 12  1  0
  8 14  1  0
 13 14  1  0
  6 15  2  0
 14 16  2  0
  3 17  1  0
 17 18  1  0
  9 11  1  0
 12 13  1  0
M  END

$$$$
No_2317-/export/home/yangzhenyu/potential_scad_32_flow//YTHDC2/2024-12-06-03-22-00/
     RDKit          3D

 17 17  0  0  1  0  0  0  0  0999 V2000
    1.1787   -8.0297    3.5154 O   0  0  0  0  0  0  0  0  0  0  0  0
    0.6747   -7.4019    2.7838 C   0  0  2  0  0  0  0  0  0  0  0  0
    0.5570   -6.0797    2.8560 F   0  0  0  0  0  0  0  0  0  0  0  0
   -0.5493   -8.1216    2.3153 C   0  0  0  0  0  0  0  0  0  0  0  0
   -1.4895   -7.5654    2.4787 C   0  0  0  0  0  0  0  0  0  0  0  0
   -2.5297   -8.1342    2.6300 C   0  0  0  0  0  0  0  0  0  0  0  0
   -2.6383   -9.4746    2.2176 C   0  0  0  0  0  0  0  0  0  0  0  0
   -1.4873  -10.1635    1.9932 C   0  0  0  0  0  0  0  0  0  0  0  0
   -0.2859   -9.4703    2.0453 C   0  0  0  0  0  0  0  0  0  0  0  0
    0.9227  -10.0462    1.7953 C   0  0  0  0  0  0  0  0  0  0  0  0
    1.7634   -9.5937    0.7741 C   0  0  0  0  0  0  0  0  0  0  0  0
    2.8764   -9.8200    0.6984 O   0  0  0  0  0  0  0  0  0  0  0  0
    1.4487   -8.7759   -0.3011 O   0  0  0  0  0  0  0  0  0  0  0  0
   -1.5373  -11.7618    1.5642 C   0  0  0  0  0  0  0  0  0  0  0  0
   -1.7208  -12.0762    0.4639 C   0  0  0  0  0  0  0  0  0  0  0  0
   -1.6465  -13.4556    0.2124 C   0  0  0  0  0  0  0  0  0  0  0  0
   -1.2728  -14.3222    1.1739 C   0  0  0  0  0  0  0  0  0  0  0  0
  2  1  1  1
  2  3  1  0
  2  4  1  0
  9 10  1  0
 10 11  1  0
 11 12  1  0
 11 13  2  0
  8 14  1  0
 14 15  2  3
 15 16  1  0
 16 17  2  0
  4  5  2  0
  5  6  1  0
  6  7  2  0
  7  8  1  0
  8  9  2  0
  4  9  1  0
M  END

$$$$
No_2318-/export/home/yangzhenyu/potential_scad_32_flow//YTHDC2/2024-12-06-03-22-00/
     RDKit          3D

 18 19  0  0  1  0  0  0  0  0999 V2000
    1.1787   -8.0297    3.5154 N   0  0  0  0  0  0  0  0  0  0  0  0
    1.0818   -9.0751    3.2053 C   0  0  0  0  0  0  0  0  0  0  0  0
    1.5216  -10.1164    3.9747 C   0  0  0  0  0  0  0  0  0  0  0  0
    1.4420  -11.4363    3.6461 C   0  0  0  0  0  0  0  0  0  0  0  0
    0.5969  -11.7648    2.6785 C   0  0  0  0  0  0  0  0  0  0  0  0
    0.0096  -10.8332    1.9506 C   0  0  0  0  0  0  0  0  0  0  0  0
    0.3359   -9.5186    2.1388 C   0  0  0  0  0  0  0  0  0  0  0  0
    1.1574   -6.9183    2.6875 C   0  0  1  0  0  0  0  0  0  0  0  0
    0.6585   -7.2272    1.4255 C   0  0  0  0  0  0  0  0  0  0  0  0
    0.2266   -8.4755    1.1116 C   0  0  2  0  0  0  0  0  0  0  0  0
   -0.4196   -8.6475   -0.0393 C   0  0  0  0  0  0  0  0  0  0  0  0
    0.2801   -9.0443   -1.2378 C   0  0  0  0  0  0  0  0  0  0  0  0
   -0.4723   -9.3171   -2.3859 O   0  0  0  0  0  0  0  0  0  0  0  0
    1.5255   -8.9654   -1.3910 O   0  0  0  0  0  0  0  0  0  0  0  0
    0.3593  -13.1804    2.3725 Cl  0  0  0  0  0  0  0  0  0  0  0  0
    1.5251   -5.5986    3.1798 C   0  0  0  0  0  0  0  0  0  0  0  0
    0.4663   -6.1978    0.6404 O   0  0  0  0  0  0  0  0  0  0  0  0
   -1.7971   -8.6077   -0.1223 O   0  0  0  0  0  0  0  0  0  0  0  0
  1  2  1  0
  8  9  1  0
  7 10  1  0
  9 10  1  0
 10 11  1  1
 11 12  1  0
 12 13  1  0
 12 14  2  0
  5 15  1  0
  8 16  1  1
  9 17  2  0
 11 18  2  0
  1  8  1  0
  2  3  2  0
  3  4  1  0
  4  5  2  0
  5  6  1  0
  6  7  2  0
  2  7  1  0
M  END

$$$$
No_2319-/export/home/yangzhenyu/potential_scad_32_flow//YTHDC2/2024-12-06-03-22-00/
     RDKit          3D

 18 19  0  0  1  0  0  0  0  0999 V2000
    1.1787   -8.0297    3.5154 C   0  0  0  0  0  0  0  0  0  0  0  0
    1.1048   -9.2215    3.2892 C   0  0  0  0  0  0  0  0  0  0  0  0
    1.2339   -9.7611    2.0189 C   0  0  1  0  0  0  0  0  0  0  0  0
    1.1954  -11.2312    1.8661 C   0  0  0  0  0  0  0  0  0  0  0  0
    1.5546  -12.1691    2.7931 C   0  0  0  0  0  0  0  0  0  0  0  0
    0.9527   -7.0669    2.3918 C   0  0  2  0  0  0  0  0  0  0  0  0
    1.0618   -7.6392    1.0692 C   0  0  0  0  0  0  0  0  0  0  0  0
    1.2060   -8.9530    0.8578 C   0  0  0  0  0  0  0  0  0  0  0  0
    1.5159  -13.5011    2.3738 C   0  0  0  0  0  0  0  0  0  0  0  0
    1.1409  -13.8990    1.1908 C   0  0  0  0  0  0  0  0  0  0  0  0
    0.9249  -13.0546    0.2183 C   0  0  0  0  0  0  0  0  0  0  0  0
    0.9227  -11.6707    0.5316 C   0  0  0  0  0  0  0  0  0  0  0  0
    1.0078   -5.6071    2.4628 C   0  0  0  0  0  0  0  0  0  0  0  0
    1.2033   -9.3963   -0.3819 O   0  0  0  0  0  0  0  0  0  0  0  0
    1.7687   -5.1228    3.4359 O   0  0  0  0  0  0  0  0  0  0  0  0
   -0.1935   -5.0768    2.2491 O   0  0  0  0  0  0  0  0  0  0  0  0
    1.8704  -14.3818    3.4804 F   0  0  0  0  0  0  0  0  0  0  0  0
    1.2372   -6.8714    0.0939 O   0  0  0  0  0  0  0  0  0  0  0  0
  1  2  1  0
  3  4  1  6
  6  7  1  0
  3  8  1  0
  7  8  1  0
  6 13  1  6
  8 14  2  0
 13 15  1  0
 13 16  2  0
  9 17  1  0
  7 18  2  0
  1  6  1  0
  2  3  1  0
  4  5  2  0
  5  9  1  0
  9 10  2  0
 10 11  1  0
 11 12  2  0
  4 12  1  0
M  END

$$$$
No_2320-/export/home/yangzhenyu/potential_scad_32_flow//YTHDC2/2024-12-06-03-22-00/
     RDKit          3D

 20 21  0  0  1  0  0  0  0  0999 V2000
    1.1787   -8.0297    3.5154 C   0  0  0  0  0  0  0  0  0  0  0  0
    1.1048   -9.2215    3.2892 C   0  0  0  0  0  0  0  0  0  0  0  0
    1.2339   -9.7611    2.0189 C   0  0  0  0  0  0  0  0  0  0  0  0
    1.3583   -9.0036    0.9764 C   0  0  0  0  0  0  0  0  0  0  0  0
    1.5996   -7.6362    1.1311 C   0  0  0  0  0  0  0  0  0  0  0  0
    1.4830   -7.0928    2.3626 C   0  0  0  0  0  0  0  0  0  0  0  0
    1.5395   -5.7300    2.6182 C   0  0  0  0  0  0  0  0  0  0  0  0
    1.1775  -11.2233    1.8407 C   0  0  0  0  0  0  0  0  0  0  0  0
    0.5085  -11.9762    2.1989 C   0  0  0  0  0  0  0  0  0  0  0  0
   -0.6094  -11.4837    3.2079 N   0  0  0  0  0  0  0  0  0  0  0  0
    0.4350  -13.3570    2.0075 C   0  0  1  0  0  0  0  0  0  0  0  0
    1.6071  -14.0056    1.8005 N   0  0  0  0  0  0  0  0  0  0  0  0
   -0.5675  -14.1421    2.2235 C   0  0  0  0  0  0  0  0  0  0  0  0
   -1.7607  -13.7638    2.4051 O   0  0  0  0  0  0  0  0  0  0  0  0
   -0.3910  -15.5190    2.2556 C   0  0  0  0  0  0  0  0  0  0  0  0
    1.9413  -15.2121    1.6957 C   0  0  0  0  0  0  0  0  0  0  0  0
    0.9589  -16.1049    1.9122 N   0  0  0  0  0  0  0  0  0  0  0  0
    0.6231   -4.8974    2.7522 C   0  0  0  0  0  0  0  0  0  0  0  0
   -0.7456   -5.3761    2.4866 N   0  0  0  0  0  0  0  0  0  0  0  0
    0.6853   -3.4510    2.9688 C   0  0  0  0  0  0  0  0  0  0  0  0
  6  7  1  0
  3  8  1  0
  8  9  2  3
  9 10  1  0
  9 11  1  0
 11 12  1  1
 11 13  1  0
 13 14  2  0
 13 15  1  0
 15 17  1  0
 16 17  1  0
  7 18  2  3
 18 19  1  0
 18 20  1  0
 12 16  1  0
  1  2  2  0
  2  3  1  0
  3  4  2  0
  4  5  1  0
  5  6  2  0
  1  6  1  0
M  END

$$$$
No_2321-/export/home/yangzhenyu/potential_scad_32_flow//YTHDC2/2024-12-06-03-22-00/
     RDKit          3D

 17 18  0  0  0  0  0  0  0  0999 V2000
    1.1787   -8.0297    3.5154 O   0  0  0  0  0  0  0  0  0  0  0  0
    0.9969   -8.9689    3.0048 C   0  0  0  0  0  0  0  0  0  0  0  0
    0.9976   -8.9567    1.6341 C   0  0  0  0  0  0  0  0  0  0  0  0
    1.6062   -9.9071    0.9292 C   0  0  0  0  0  0  0  0  0  0  0  0
    2.1191  -10.9757    1.6503 C   0  0  0  0  0  0  0  0  0  0  0  0
    2.1177  -10.9891    3.0403 C   0  0  0  0  0  0  0  0  0  0  0  0
    1.5441   -9.8905    3.6897 C   0  0  0  0  0  0  0  0  0  0  0  0
    0.4333   -7.7031    1.0153 N   0  0  0  0  0  0  0  0  0  0  0  0
   -0.6488   -7.9931    0.3503 C   0  0  0  0  0  0  0  0  0  0  0  0
   -1.1066   -9.2725    0.2273 C   0  0  0  0  0  0  0  0  0  0  0  0
   -1.9789   -9.8787    0.9738 C   0  0  0  0  0  0  0  0  0  0  0  0
   -2.6896   -9.2642    1.9762 C   0  0  0  0  0  0  0  0  0  0  0  0
   -3.4639   -9.9035    2.8527 C   0  0  0  0  0  0  0  0  0  0  0  0
   -3.9458   -9.4424    3.9819 C   0  0  0  0  0  0  0  0  0  0  0  0
   -3.6026   -8.0715    4.2149 C   0  0  0  0  0  0  0  0  0  0  0  0
   -2.7201   -7.3181    3.5074 C   0  0  0  0  0  0  0  0  0  0  0  0
   -2.1517   -7.9473    2.3549 C   0  0  0  0  0  0  0  0  0  0  0  0
  1  2  1  0
  3  8  1  0
  8  9  2  3
  9 10  1  0
 10 11  1  0
 11 12  1  0
 12 13  2  0
 13 14  1  0
 14 15  2  0
 15 16  1  0
 16 17  2  0
 12 17  1  0
  2  3  2  0
  3  4  1  0
  4  5  2  0
  5  6  1  0
  6  7  2  0
  2  7  1  0
M  END

$$$$
No_2322-/export/home/yangzhenyu/potential_scad_32_flow//YTHDC2/2024-12-06-03-22-00/
     RDKit          3D

 18 18  0  0  1  0  0  0  0  0999 V2000
    1.1787   -8.0297    3.5154 Cl  0  0  0  0  0  0  0  0  0  0  0  0
    0.6986   -7.2038    2.6409 C   0  0  2  0  0  0  0  0  0  0  0  0
    0.9133   -7.4941    1.2402 C   0  0  0  0  0  0  0  0  0  0  0  0
    0.6150   -8.7672    0.9128 C   0  0  0  0  0  0  0  0  0  0  0  0
    1.6827   -9.4743    0.3176 C   0  0  0  0  0  0  0  0  0  0  0  0
    2.7256   -9.0115   -0.3885 O   0  0  0  0  0  0  0  0  0  0  0  0
    1.7176  -10.7508    0.4306 O   0  0  0  0  0  0  0  0  0  0  0  0
    1.2716   -5.6828    2.9867 C   0  0  0  0  0  0  0  0  0  0  0  0
    1.0248   -4.7211    2.0320 C   0  0  0  0  0  0  0  0  0  0  0  0
    1.7929   -3.6894    1.9202 C   0  0  0  0  0  0  0  0  0  0  0  0
   -0.1486   -4.5982    1.2272 C   0  0  0  0  0  0  0  0  0  0  0  0
   -0.2528   -3.5273    0.2885 C   0  0  0  0  0  0  0  0  0  0  0  0
    0.7178   -2.6431    0.0961 C   0  0  0  0  0  0  0  0  0  0  0  0
    1.8500   -2.6917    0.8905 C   0  0  0  0  0  0  0  0  0  0  0  0
    0.5861   -1.6185   -0.8829 C   0  0  0  0  0  0  0  0  0  0  0  0
    0.1708   -1.9965   -2.1207 C   0  0  0  0  0  0  0  0  0  0  0  0
   -1.1339   -1.8012   -2.4488 C   0  0  0  0  0  0  0  0  0  0  0  0
   -1.8473   -2.6283   -3.1801 O   0  0  0  0  0  0  0  0  0  0  0  0
  2  1  1  1
  2  3  1  0
  3  4  1  0
  4  5  1  0
  5  6  2  0
  5  7  1  0
  2  8  1  0
  8  9  1  0
 13 15  1  0
 15 16  1  0
 16 17  1  0
 17 18  2  0
  9 10  2  0
 10 14  1  0
 13 14  2  0
 12 13  1  0
 11 12  2  0
  9 11  1  0
M  END

$$$$
No_2323-/export/home/yangzhenyu/potential_scad_32_flow//YTHDC2/2024-12-06-03-22-00/
     RDKit          3D

 19 21  0  0  1  0  0  0  0  0999 V2000
    1.1787   -8.0297    3.5154 N   0  0  0  0  0  0  0  0  0  0  0  0
    1.0818   -9.0751    3.2053 C   0  0  0  0  0  0  0  0  0  0  0  0
    1.5216  -10.1164    3.9747 C   0  0  0  0  0  0  0  0  0  0  0  0
    1.4420  -11.4363    3.6461 C   0  0  0  0  0  0  0  0  0  0  0  0
    0.5969  -11.7648    2.6785 C   0  0  0  0  0  0  0  0  0  0  0  0
    0.0096  -10.8332    1.9506 C   0  0  0  0  0  0  0  0  0  0  0  0
    0.3359   -9.5186    2.1388 C   0  0  0  0  0  0  0  0  0  0  0  0
    0.8819   -6.9011    2.6487 C   0  0  2  0  0  0  0  0  0  0  0  0
    0.4076   -7.2265    1.4607 C   0  0  0  0  0  0  0  0  0  0  0  0
    0.0604   -8.4780    1.1746 C   0  0  0  0  0  0  0  0  0  0  0  0
   -0.5471   -8.7214    0.0063 O   0  0  0  0  0  0  0  0  0  0  0  0
    1.3200   -5.5677    3.1055 C   0  0  0  0  0  0  0  0  0  0  0  0
    0.0301   -6.2207    0.7116 O   0  0  0  0  0  0  0  0  0  0  0  0
    0.3215  -13.4154    2.3352 C   0  0  0  0  0  0  0  0  0  0  0  0
    1.2987  -14.1986    2.8446 C   0  0  0  0  0  0  0  0  0  0  0  0
    0.9518  -15.5931    2.7965 C   0  0  0  0  0  0  0  0  0  0  0  0
   -0.0850  -16.0089    2.2772 C   0  0  0  0  0  0  0  0  0  0  0  0
   -1.0216  -15.1156    1.8057 C   0  0  0  0  0  0  0  0  0  0  0  0
   -0.7507  -13.7447    1.8572 C   0  0  0  0  0  0  0  0  0  0  0  0
  1  2  1  0
  8  9  1  0
  7 10  1  0
  9 10  1  0
 10 11  2  0
  8 12  1  6
  9 13  2  0
  5 14  1  0
  1  8  1  0
  2  3  2  0
  3  4  1  0
  4  5  2  0
  5  6  1  0
  6  7  2  0
  2  7  1  0
 14 15  2  0
 15 16  1  0
 16 17  2  0
 17 18  1  0
 18 19  2  0
 14 19  1  0
M  END

$$$$
No_2324-/export/home/yangzhenyu/potential_scad_32_flow//YTHDC2/2024-12-06-03-22-00/
     RDKit          3D

 13 13  0  0  0  0  0  0  0  0999 V2000
    1.1787   -8.0297    3.5154 C   0  0  0  0  0  0  0  0  0  0  0  0
    1.0491   -6.8434    2.9820 C   0  0  0  0  0  0  0  0  0  0  0  0
    1.9985   -8.9840    2.8958 C   0  0  0  0  0  0  0  0  0  0  0  0
    1.9135  -10.3404    3.6266 C   0  0  0  0  0  0  0  0  0  0  0  0
    1.3291  -11.3908    3.0222 P   0  0  0  0  0  0  0  0  0  0  0  0
    0.9864  -11.1960    1.8114 O   0  0  0  0  0  0  0  0  0  0  0  0
    2.3258  -12.6104    3.0361 O   0  0  0  0  0  0  0  0  0  0  0  0
    0.4463   -6.6356    1.7545 C   0  0  0  0  0  0  0  0  0  0  0  0
    0.0614   -5.4496    1.3827 C   0  0  0  0  0  0  0  0  0  0  0  0
    0.5712   -4.2930    2.0803 C   0  0  0  0  0  0  0  0  0  0  0  0
    1.2439   -4.4777    3.3208 C   0  0  0  0  0  0  0  0  0  0  0  0
    1.5542   -5.7371    3.7165 C   0  0  0  0  0  0  0  0  0  0  0  0
    0.2631   -2.9599    1.5996 F   0  0  0  0  0  0  0  0  0  0  0  0
  1  2  1  0
  1  3  1  0
  3  4  1  0
  4  5  1  0
  5  6  2  0
  5  7  2  0
 10 13  1  0
  2  8  2  0
  8  9  1  0
  9 10  2  0
 10 11  1  0
 11 12  2  0
  2 12  1  0
M  END

$$$$
No_2325-/export/home/yangzhenyu/potential_scad_32_flow//YTHDC2/2024-12-06-03-22-00/
     RDKit          3D

 18 20  0  0  0  0  0  0  0  0999 V2000
    1.1787   -8.0297    3.5154 C   0  0  0  0  0  0  0  0  0  0  0  0
    1.1048   -9.2215    3.2892 C   0  0  0  0  0  0  0  0  0  0  0  0
    1.2339   -9.7611    2.0189 C   0  0  0  0  0  0  0  0  0  0  0  0
    1.1954  -11.2312    1.8661 C   0  0  0  0  0  0  0  0  0  0  0  0
    1.2996  -11.5815    0.5387 C   0  0  0  0  0  0  0  0  0  0  0  0
    1.3263   -7.1208    2.3229 C   0  0  0  0  0  0  0  0  0  0  0  0
    1.3693   -7.6408    1.0625 C   0  0  0  0  0  0  0  0  0  0  0  0
    1.4358   -8.9950    0.8622 C   0  0  0  0  0  0  0  0  0  0  0  0
    0.9078  -11.9576    2.8785 C   0  0  0  0  0  0  0  0  0  0  0  0
    0.1713  -12.8619    2.7667 C   0  0  0  0  0  0  0  0  0  0  0  0
   -0.0467  -13.4985    1.4957 C   0  0  0  0  0  0  0  0  0  0  0  0
    0.2338  -12.8510    0.5019 C   0  0  0  0  0  0  0  0  0  0  0  0
    1.3453   -5.6393    2.5491 Cl  0  0  0  0  0  0  0  0  0  0  0  0
   -0.6792  -14.6896    1.3232 C   0  0  0  0  0  0  0  0  0  0  0  0
   -1.6258  -14.9391    0.4423 C   0  0  0  0  0  0  0  0  0  0  0  0
   -2.1732  -13.9405   -0.2590 N   0  0  0  0  0  0  0  0  0  0  0  0
   -2.1050  -12.8936   -0.2305 C   0  0  0  0  0  0  0  0  0  0  0  0
   -0.7526  -12.1460   -0.1869 N   0  0  0  0  0  0  0  0  0  0  0  0
  3  4  1  0
  6 13  1  0
 11 14  1  0
 14 15  2  0
 15 16  1  0
 16 17  2  0
 12 18  1  0
 17 18  1  0
  4  5  2  0
  5 12  1  0
 11 12  2  0
 10 11  1  0
  9 10  2  0
  4  9  1  0
  1  2  2  0
  2  3  1  0
  3  8  2  0
  7  8  1  0
  6  7  2  0
  1  6  1  0
M  END

$$$$
No_2326-/export/home/yangzhenyu/potential_scad_32_flow//YTHDC2/2024-12-06-03-22-00/
     RDKit          3D

 18 19  0  0  0  0  0  0  0  0999 V2000
    1.1787   -8.0297    3.5154 C   0  0  0  0  0  0  0  0  0  0  0  0
    1.0491   -6.8434    2.9820 C   0  0  0  0  0  0  0  0  0  0  0  0
    0.0950   -8.8404    3.2292 C   0  0  0  0  0  0  0  0  0  0  0  0
   -0.9173   -8.4596    2.5152 C   0  0  0  0  0  0  0  0  0  0  0  0
   -1.0331   -7.2162    2.0653 C   0  0  0  0  0  0  0  0  0  0  0  0
   -0.0105   -6.3168    2.3081 C   0  0  0  0  0  0  0  0  0  0  0  0
    0.1465  -10.2446    3.6981 C   0  0  0  0  0  0  0  0  0  0  0  0
    0.1907  -11.3369    2.8651 C   0  0  0  0  0  0  0  0  0  0  0  0
   -0.2018  -11.4456    1.8156 C   0  0  0  0  0  0  0  0  0  0  0  0
   -0.1002  -12.4840    0.9716 C   0  0  0  0  0  0  0  0  0  0  0  0
    0.6847  -13.6389    1.4371 C   0  0  0  0  0  0  0  0  0  0  0  0
    1.2708  -13.5730    2.6365 C   0  0  0  0  0  0  0  0  0  0  0  0
    1.0830  -12.4946    3.4740 C   0  0  0  0  0  0  0  0  0  0  0  0
    0.0394   -4.9483    1.8516 C   0  0  0  0  0  0  0  0  0  0  0  0
   -0.3921   -4.6909    0.6744 C   0  0  0  0  0  0  0  0  0  0  0  0
   -0.4362   -3.3189    0.2836 C   0  0  0  0  0  0  0  0  0  0  0  0
    0.4153   -2.3890    0.9115 C   0  0  0  0  0  0  0  0  0  0  0  0
    1.0571   -2.7203    2.0613 C   0  0  0  0  0  0  0  0  0  0  0  0
  3  7  1  0
  7  8  1  0
  6 14  1  0
 14 15  1  0
 15 16  2  3
 16 17  1  0
 17 18  2  0
  1  2  2  0
  2  6  1  0
  5  6  2  0
  4  5  1  0
  3  4  2  0
  1  3  1  0
  8  9  2  0
  9 10  1  0
 10 11  2  0
 11 12  1  0
 12 13  2  0
  8 13  1  0
M  END

$$$$
No_2327-/export/home/yangzhenyu/potential_scad_32_flow//YTHDC2/2024-12-06-03-22-00/
     RDKit          3D

 18 18  0  0  1  0  0  0  0  0999 V2000
    1.1787   -8.0297    3.5154 N   0  0  0  0  0  0  0  0  0  0  0  0
    0.8669   -7.0905    2.8589 C   0  0  1  0  0  0  0  0  0  0  0  0
    0.8842   -5.8387    3.2677 C   0  0  0  0  0  0  0  0  0  0  0  0
    1.2042   -9.3413    3.1417 C   0  0  1  0  0  0  0  0  0  0  0  0
    1.6209  -10.3792    4.1701 C   0  0  0  0  0  0  0  0  0  0  0  0
    0.7979   -9.8390    1.9462 C   0  0  1  0  0  0  0  0  0  0  0  0
    0.5093   -8.8751    1.0109 C   0  0  0  0  0  0  0  0  0  0  0  0
    0.5789   -7.4536    1.3990 C   0  0  0  0  0  0  0  0  0  0  0  0
    0.9650  -11.0969    1.5561 C   0  0  1  0  0  0  0  0  0  0  0  0
   -0.0934  -11.7653    1.4480 N   0  0  0  0  0  0  0  0  0  0  0  0
    0.3515   -6.5725    0.5805 O   0  0  0  0  0  0  0  0  0  0  0  0
   -1.2358  -11.2649    1.5295 C   0  0  0  0  0  0  0  0  0  0  0  0
   -1.9000  -11.3267    2.7579 C   0  0  0  0  0  0  0  0  0  0  0  0
   -2.9851  -10.5766    3.1910 O   0  0  0  0  0  0  0  0  0  0  0  0
   -1.4152  -11.9350    3.7443 O   0  0  0  0  0  0  0  0  0  0  0  0
    2.0954  -11.5122    0.8749 C   0  0  0  0  0  0  0  0  0  0  0  0
   -0.1987   -5.0481    3.2028 C   0  0  0  0  0  0  0  0  0  0  0  0
    2.1123   -5.2093    3.8411 C   0  0  0  0  0  0  0  0  0  0  0  0
  1  2  1  0
  2  3  1  6
  4  5  1  1
  4  6  1  0
  6  7  1  6
  2  8  1  0
  7  8  1  0
  6  9  1  0
  9 10  1  0
  8 11  2  0
 10 12  1  0
 12 13  1  0
 13 14  2  0
 13 15  1  0
  9 16  1  6
  3 17  2  0
  3 18  1  0
  1  4  1  0
M  END

$$$$
No_2328-/export/home/yangzhenyu/potential_scad_32_flow//YTHDC2/2024-12-06-03-22-00/
     RDKit          3D

 20 21  0  0  0  0  0  0  0  0999 V2000
    1.1787   -8.0297    3.5154 C   0  0  0  0  0  0  0  0  0  0  0  0
    1.1048   -9.2215    3.2892 C   0  0  0  0  0  0  0  0  0  0  0  0
    1.2339   -9.7611    2.0189 N   0  0  0  0  0  0  0  0  0  0  0  0
    1.3602   -8.9505    1.0839 C   0  0  0  0  0  0  0  0  0  0  0  0
    1.5995   -7.6222    1.1357 C   0  0  0  0  0  0  0  0  0  0  0  0
    1.4763   -7.0844    2.3918 C   0  0  0  0  0  0  0  0  0  0  0  0
    0.9762  -10.2510    4.3541 C   0  0  0  0  0  0  0  0  0  0  0  0
    0.6791  -11.5994    3.9588 C   0  0  0  0  0  0  0  0  0  0  0  0
    1.8010  -12.5402    4.1074 C   0  0  0  0  0  0  0  0  0  0  0  0
    1.8927  -13.3081    2.8588 C   0  0  0  0  0  0  0  0  0  0  0  0
    1.8635  -14.7835    2.9887 C   0  0  0  0  0  0  0  0  0  0  0  0
    2.3029  -15.4221    1.7638 C   0  0  0  0  0  0  0  0  0  0  0  0
    2.4048  -16.8599    2.0381 C   0  0  0  0  0  0  0  0  0  0  0  0
    1.9254  -17.4498    3.1487 C   0  0  0  0  0  0  0  0  0  0  0  0
    1.3035  -16.7798    4.1227 C   0  0  0  0  0  0  0  0  0  0  0  0
    1.1864  -15.3766    3.9982 C   0  0  0  0  0  0  0  0  0  0  0  0
    1.5381   -9.4684   -0.3118 C   0  0  0  0  0  0  0  0  0  0  0  0
    0.7760   -9.1111   -1.0505 O   0  0  0  0  0  0  0  0  0  0  0  0
    2.4283  -10.2336   -0.5362 O   0  0  0  0  0  0  0  0  0  0  0  0
    1.4823   -5.6374    2.7424 O   0  0  0  0  0  0  0  0  0  0  0  0
  2  7  1  0
  7  8  1  0
  8  9  1  0
  9 10  1  0
 10 11  1  0
  4 17  1  0
 17 18  1  0
 17 19  2  0
  6 20  1  0
 11 12  2  0
 12 13  1  0
 13 14  2  0
 14 15  1  0
 15 16  2  0
 11 16  1  0
  1  2  2  0
  2  3  1  0
  3  4  2  0
  4  5  1  0
  5  6  2  0
  1  6  1  0
M  END

$$$$
No_2329-/export/home/yangzhenyu/potential_scad_32_flow//YTHDC2/2024-12-06-03-22-00/
     RDKit          3D

 12 12  0  0  1  0  0  0  0  0999 V2000
    1.1787   -8.0297    3.5154 O   0  0  0  0  0  0  0  0  0  0  0  0
    0.6747   -7.4019    2.7838 C   0  0  1  0  0  0  0  0  0  0  0  0
    0.5570   -6.0797    2.8560 C   0  0  0  0  0  0  0  0  0  0  0  0
    1.6734   -5.4651    3.4094 C   0  0  0  0  0  0  0  0  0  0  0  0
    1.3890   -9.4346    3.3337 C   0  0  0  0  0  0  0  0  0  0  0  0
    1.2051  -10.0658    2.2186 C   0  0  0  0  0  0  0  0  0  0  0  0
    0.6500   -9.2608    1.2027 C   0  0  0  0  0  0  0  0  0  0  0  0
    0.4651   -7.8699    1.4345 C   0  0  0  0  0  0  0  0  0  0  0  0
    1.4923  -11.3720    2.0658 C   0  0  0  0  0  0  0  0  0  0  0  0
    1.6595  -12.2432    2.9582 C   0  0  0  0  0  0  0  0  0  0  0  0
    1.8631  -13.6196    2.7162 N   0  0  0  0  0  0  0  0  0  0  0  0
    2.0486  -13.9451    1.4987 O   0  0  0  0  0  0  0  0  0  0  0  0
  1  2  1  0
  2  3  1  6
  3  4  1  0
  1  5  1  0
  5  6  2  0
  6  7  1  0
  2  8  1  0
  7  8  2  0
  6  9  1  0
  9 10  2  3
 10 11  1  0
 11 12  2  0
M  END

$$$$
No_2330-/export/home/yangzhenyu/potential_scad_32_flow//YTHDC2/2024-12-06-03-22-00/
     RDKit          3D

 18 18  0  0  1  0  0  0  0  0999 V2000
    1.1787   -8.0297    3.5154 O   0  0  0  0  0  0  0  0  0  0  0  0
    0.6747   -7.4019    2.7838 C   0  0  2  0  0  0  0  0  0  0  0  0
    0.5570   -6.0797    2.8560 C   0  0  0  0  0  0  0  0  0  0  0  0
    1.1189   -5.2588    2.0517 C   0  0  0  0  0  0  0  0  0  0  0  0
    1.6070   -5.7863    0.8484 C   0  0  0  0  0  0  0  0  0  0  0  0
   -0.2852   -8.0620    2.1324 C   0  0  0  0  0  0  0  0  0  0  0  0
   -1.1287   -7.5688    1.6443 O   0  0  0  0  0  0  0  0  0  0  0  0
    0.0027   -9.3747    1.7578 N   0  0  0  0  0  0  0  0  0  0  0  0
    1.0972   -3.7458    1.9953 C   0  0  0  0  0  0  0  0  0  0  0  0
   -0.7489  -10.1972    1.0723 C   0  0  0  0  0  0  0  0  0  0  0  0
   -0.7068   -9.9381   -0.3322 C   0  0  0  0  0  0  0  0  0  0  0  0
    0.2636   -9.1311   -0.8827 C   0  0  0  0  0  0  0  0  0  0  0  0
    0.0118   -8.3562   -1.9651 C   0  0  0  0  0  0  0  0  0  0  0  0
   -1.1643   -8.5037   -2.5910 C   0  0  0  0  0  0  0  0  0  0  0  0
   -2.0691   -9.3955   -2.2597 C   0  0  0  0  0  0  0  0  0  0  0  0
   -1.8755  -10.1147   -1.0572 C   0  0  0  0  0  0  0  0  0  0  0  0
   -1.5526   -7.4277   -3.7711 O   0  0  0  0  0  0  0  0  0  0  0  0
    0.9630   -3.0609    0.9541 C   0  0  0  0  0  0  0  0  0  0  0  0
  2  1  1  1
  2  3  1  0
  3  4  2  3
  4  5  1  0
  2  6  1  0
  6  7  2  0
  6  8  1  0
  4  9  1  0
  8 10  1  0
 10 11  1  0
 14 17  1  0
  9 18  2  0
 11 12  2  0
 12 13  1  0
 13 14  2  0
 14 15  1  0
 15 16  2  0
 11 16  1  0
M  END

$$$$
No_2331-/export/home/yangzhenyu/potential_scad_32_flow//YTHDC2/2024-12-06-03-22-00/
     RDKit          3D

 18 19  0  0  1  0  0  0  0  0999 V2000
    1.1787   -8.0297    3.5154 C   0  0  0  0  0  0  0  0  0  0  0  0
    1.1048   -9.2215    3.2892 C   0  0  0  0  0  0  0  0  0  0  0  0
    1.2339   -9.7611    2.0189 C   0  0  1  0  0  0  0  0  0  0  0  0
    1.1954  -11.2312    1.8661 C   0  0  0  0  0  0  0  0  0  0  0  0
    1.5546  -12.1691    2.7931 C   0  0  0  0  0  0  0  0  0  0  0  0
    0.5849   -7.0929    2.5729 C   0  0  2  0  0  0  0  0  0  0  0  0
    0.5567   -7.6699    1.1955 C   0  0  0  0  0  0  0  0  0  0  0  0
    0.7903   -8.9699    0.9209 C   0  0  0  0  0  0  0  0  0  0  0  0
    1.5521  -13.4960    2.3485 C   0  0  0  0  0  0  0  0  0  0  0  0
    1.2403  -13.8919    1.1557 C   0  0  0  0  0  0  0  0  0  0  0  0
    1.0311  -12.9707    0.1488 C   0  0  0  0  0  0  0  0  0  0  0  0
    0.9678  -11.6394    0.4949 C   0  0  0  0  0  0  0  0  0  0  0  0
    0.6235   -5.6335    2.6368 C   0  0  0  0  0  0  0  0  0  0  0  0
    0.2278   -6.8546    0.2236 O   0  0  0  0  0  0  0  0  0  0  0  0
   -0.5856   -5.0099    2.5660 C   0  0  0  0  0  0  0  0  0  0  0  0
    1.7909   -4.8814    2.9971 C   0  0  0  0  0  0  0  0  0  0  0  0
   -0.6230   -3.6184    2.5629 C   0  0  0  0  0  0  0  0  0  0  0  0
    0.4936   -2.8850    2.6835 C   0  0  0  0  0  0  0  0  0  0  0  0
  1  2  1  0
  3  4  1  1
  6  7  1  0
  3  8  1  0
  7  8  1  0
  6 13  1  0
  7 14  2  0
 13 15  2  3
 13 16  1  0
 15 17  1  0
 17 18  2  0
  6  1  1  6
  2  3  1  0
  4  5  2  0
  5  9  1  0
  9 10  2  0
 10 11  1  0
 11 12  2  0
  4 12  1  0
M  END

$$$$
No_2332-/export/home/yangzhenyu/potential_scad_32_flow//YTHDC2/2024-12-06-03-22-00/
     RDKit          3D

 19 20  0  0  1  0  0  0  0  0999 V2000
    1.1787   -8.0297    3.5154 C   0  0  0  0  0  0  0  0  0  0  0  0
    1.1048   -9.2215    3.2892 C   0  0  0  0  0  0  0  0  0  0  0  0
    1.3627  -10.1721    4.3044 C   0  0  0  0  0  0  0  0  0  0  0  0
    1.0682  -11.5187    4.0618 C   0  0  0  0  0  0  0  0  0  0  0  0
    0.7653  -11.7320    2.7387 C   0  0  2  0  0  0  0  0  0  0  0  0
    0.7465  -10.3365    2.0821 C   0  0  0  0  0  0  0  0  0  0  0  0
    1.0657   -7.1804    2.2093 C   0  0  0  0  0  0  0  0  0  0  0  0
    1.2911   -7.7456    1.0323 C   0  0  0  0  0  0  0  0  0  0  0  0
    1.0710   -9.2074    0.9637 C   0  0  0  0  0  0  0  0  0  0  0  0
    0.8868   -9.7792   -0.2373 C   0  0  0  0  0  0  0  0  0  0  0  0
    0.7262  -11.1307   -0.2962 O   0  0  0  0  0  0  0  0  0  0  0  0
    0.8542   -9.1194   -1.3547 O   0  0  0  0  0  0  0  0  0  0  0  0
   -0.6454  -12.0993    2.5829 C   0  0  0  0  0  0  0  0  0  0  0  0
   -0.7608  -13.5025    2.5032 O   0  0  0  0  0  0  0  0  0  0  0  0
   -1.4912  -11.4771    1.9059 N   0  0  0  0  0  0  0  0  0  0  0  0
    1.3414   -5.7078    2.3368 C   0  0  2  0  0  0  0  0  0  0  0  0
    1.5288   -5.1081    3.4220 C   0  0  0  0  0  0  0  0  0  0  0  0
    1.2383   -5.0311    1.1812 C   0  0  0  0  0  0  0  0  0  0  0  0
    1.3335   -3.7024    3.4195 O   0  0  0  0  0  0  0  0  0  0  0  0
  2  3  1  0
  3  4  2  0
  4  5  1  0
  5  6  1  0
  9 10  1  0
 10 11  2  0
 10 12  1  0
  5 13  1  1
 13 14  2  0
 13 15  1  0
  7 16  1  0
 16 17  1  0
 16 18  1  1
 17 19  2  0
  1  2  2  0
  2  6  1  0
  6  9  2  0
  8  9  1  0
  7  8  2  0
  1  7  1  0
M  END

$$$$
No_2333-/export/home/yangzhenyu/potential_scad_32_flow//YTHDC2/2024-12-06-03-22-00/
     RDKit          3D

 19 20  0  0  0  0  0  0  0  0999 V2000
    1.1787   -8.0297    3.5154 C   0  0  0  0  0  0  0  0  0  0  0  0
    1.1048   -9.2215    3.2892 C   0  0  0  0  0  0  0  0  0  0  0  0
    1.3627  -10.1721    4.3044 C   0  0  0  0  0  0  0  0  0  0  0  0
    1.7354  -11.4730    3.9023 C   0  0  0  0  0  0  0  0  0  0  0  0
    1.8080  -11.8127    2.7216 C   0  0  0  0  0  0  0  0  0  0  0  0
    1.5854  -11.0021    1.7249 C   0  0  0  0  0  0  0  0  0  0  0  0
    1.3573   -9.7389    1.9287 C   0  0  0  0  0  0  0  0  0  0  0  0
    1.2865   -8.8078    0.9161 C   0  0  0  0  0  0  0  0  0  0  0  0
    0.9210   -7.5140    1.1674 C   0  0  0  0  0  0  0  0  0  0  0  0
    1.0097   -7.0192    2.4369 C   0  0  0  0  0  0  0  0  0  0  0  0
    0.9449   -5.6296    2.7100 C   0  0  0  0  0  0  0  0  0  0  0  0
    2.0493  -13.2614    2.4251 C   0  0  0  0  0  0  0  0  0  0  0  0
    1.8230  -14.1933    3.3159 O   0  0  0  0  0  0  0  0  0  0  0  0
    2.2367  -13.6405    1.1250 O   0  0  0  0  0  0  0  0  0  0  0  0
    1.3750   -9.2171   -0.4077 C   0  0  0  0  0  0  0  0  0  0  0  0
    2.5072   -9.7039   -0.7970 O   0  0  0  0  0  0  0  0  0  0  0  0
    0.4685   -9.0735   -1.3083 O   0  0  0  0  0  0  0  0  0  0  0  0
    1.7772   -5.1853    3.6965 O   0  0  0  0  0  0  0  0  0  0  0  0
    0.2451   -4.8315    2.1208 O   0  0  0  0  0  0  0  0  0  0  0  0
 10 11  1  0
  5 12  1  0
 12 13  2  0
 12 14  1  0
  8 15  1  0
 15 16  2  0
 15 17  1  0
 11 18  1  0
 11 19  2  0
  1  2  2  0
  7  8  2  0
  8  9  1  0
  9 10  2  0
  1 10  1  0
  2  3  1  0
  3  4  2  0
  4  5  1  0
  5  6  2  0
  6  7  1  0
  2  7  1  0
M  END

$$$$
No_2334-/export/home/yangzhenyu/potential_scad_32_flow//YTHDC2/2024-12-06-03-22-00/
     RDKit          3D

 17 19  0  0  1  0  0  0  0  0999 V2000
    1.1787   -8.0297    3.5154 C   0  0  0  0  0  0  0  0  0  0  0  0
    1.0491   -6.8434    2.9820 C   0  0  0  0  0  0  0  0  0  0  0  0
    0.0950   -8.8404    3.2292 C   0  0  0  0  0  0  0  0  0  0  0  0
   -0.9173   -8.4596    2.5152 C   0  0  0  0  0  0  0  0  0  0  0  0
   -1.0331   -7.2162    2.0653 C   0  0  0  0  0  0  0  0  0  0  0  0
   -0.0105   -6.3168    2.3081 C   0  0  0  0  0  0  0  0  0  0  0  0
    0.1465  -10.2446    3.6981 C   0  0  0  0  0  0  0  0  0  0  0  0
   -1.0337  -10.8619    3.9439 C   0  0  0  0  0  0  0  0  0  0  0  0
   -2.1702  -10.4673    3.2991 C   0  0  0  0  0  0  0  0  0  0  0  0
   -2.1358   -9.2084    2.5791 C   0  0  0  0  0  0  0  0  0  0  0  0
   -0.0074   -4.7440    1.7754 C   0  0  1  0  0  0  0  0  0  0  0  0
    0.8532   -4.0235    2.1730 C   0  0  0  0  0  0  0  0  0  0  0  0
    0.8275   -2.6762    1.6448 C   0  0  0  0  0  0  0  0  0  0  0  0
   -0.2030   -2.4834    0.6637 C   0  0  0  0  0  0  0  0  0  0  0  0
   -1.0221   -3.4069    0.1958 C   0  0  0  0  0  0  0  0  0  0  0  0
   -0.9322   -4.6522    0.6982 C   0  0  0  0  0  0  0  0  0  0  0  0
   -1.8869   -3.1614   -0.8832 O   0  0  0  0  0  0  0  0  0  0  0  0
 11  6  1  6
 12 13  1  0
 14 15  1  0
 11 16  1  0
 15 16  1  0
 15 17  2  0
 13 14  1  0
 11 12  1  0
  4 10  2  0
  9 10  1  0
  8  9  2  0
  7  8  1  0
  3  7  2  0
  1  2  2  0
  2  6  1  0
  5  6  2  0
  4  5  1  0
  3  4  1  0
  1  3  1  0
M  END

$$$$
No_2335-/export/home/yangzhenyu/potential_scad_32_flow//YTHDC2/2024-12-06-03-22-00/
     RDKit          3D

 20 22  0  0  1  0  0  0  0  0999 V2000
    1.1787   -8.0297    3.5154 C   0  0  0  0  0  0  0  0  0  0  0  0
    1.1048   -9.2215    3.2892 C   0  0  0  0  0  0  0  0  0  0  0  0
    1.3627  -10.1721    4.3044 C   0  0  0  0  0  0  0  0  0  0  0  0
    1.7354  -11.4730    3.9023 C   0  0  0  0  0  0  0  0  0  0  0  0
    1.6166  -11.5515    2.5159 C   0  0  1  0  0  0  0  0  0  0  0  0
    1.4080  -10.1475    2.0704 C   0  0  0  0  0  0  0  0  0  0  0  0
    1.0667   -7.1428    2.2573 C   0  0  0  0  0  0  0  0  0  0  0  0
    1.3066   -7.8385    1.0188 C   0  0  0  0  0  0  0  0  0  0  0  0
    1.4907   -9.1859    0.9176 C   0  0  0  0  0  0  0  0  0  0  0  0
    0.9748   -5.7011    2.2483 C   0  0  0  0  0  0  0  0  0  0  0  0
    1.8301  -12.4393    1.6198 C   0  0  0  0  0  0  0  0  0  0  0  0
    2.1293  -13.6817    2.0106 C   0  0  0  0  0  0  0  0  0  0  0  0
    2.2468  -14.7758    1.0082 N   0  0  0  0  0  0  0  0  0  0  0  0
    2.3037  -15.9815    1.6478 C   0  0  0  0  0  0  0  0  0  0  0  0
    2.1578  -15.8204    3.1692 N   0  0  0  0  0  0  0  0  0  0  0  0
    2.0082  -14.3812    3.1895 C   0  0  0  0  0  0  0  0  0  0  0  0
    0.2596   -4.9958    2.1944 O   0  0  0  0  0  0  0  0  0  0  0  0
    2.2914   -5.0926    2.3370 O   0  0  0  0  0  0  0  0  0  0  0  0
    1.7620   -9.8775   -0.2182 C   0  0  0  0  0  0  0  0  0  0  0  0
    2.4214   -9.1767   -1.1694 O   0  0  0  0  0  0  0  0  0  0  0  0
  2  3  1  0
  3  4  2  0
  4  5  1  0
  7 10  1  0
  5 11  1  6
 11 12  2  3
 12 13  1  0
 13 14  2  0
 14 15  1  0
 12 16  1  0
 15 16  1  0
 10 17  2  0
 10 18  1  0
  9 19  1  0
 19 20  1  0
  5  6  1  0
  1  2  2  0
  2  6  1  0
  6  9  2  0
  8  9  1  0
  7  8  2  0
  1  7  1  0
M  END

$$$$
No_2336-/export/home/yangzhenyu/potential_scad_32_flow//YTHDC2/2024-12-06-03-22-00/
     RDKit          3D

 19 21  0  0  1  0  0  0  0  0999 V2000
    1.1787   -8.0297    3.5154 C   0  0  0  0  0  0  0  0  0  0  0  0
    1.0491   -6.8434    2.9820 C   0  0  0  0  0  0  0  0  0  0  0  0
    0.9905   -9.0774    2.6527 C   0  0  1  0  0  0  0  0  0  0  0  0
    0.7897   -8.9519    1.3691 C   0  0  0  0  0  0  0  0  0  0  0  0
    0.7018   -7.7198    0.7892 C   0  0  0  0  0  0  0  0  0  0  0  0
    0.8918   -6.5957    1.6117 C   0  0  0  0  0  0  0  0  0  0  0  0
    1.0998  -10.4710    3.2437 C   0  0  1  0  0  0  0  0  0  0  0  0
    2.1917  -10.8879    3.7399 C   0  0  0  0  0  0  0  0  0  0  0  0
    0.8983   -5.2566    1.2088 O   0  0  0  0  0  0  0  0  0  0  0  0
   -0.0200  -11.2248    3.3627 C   0  0  0  0  0  0  0  0  0  0  0  0
   -0.0780  -12.5021    3.1735 C   0  0  0  0  0  0  0  0  0  0  0  0
    1.0756  -13.2651    3.4066 C   0  0  0  0  0  0  0  0  0  0  0  0
    2.4385  -11.5823    4.6312 C   0  0  0  0  0  0  0  0  0  0  0  0
    2.1733  -13.0003    4.2920 C   0  0  0  0  0  0  0  0  0  0  0  0
   -1.0981  -13.1385    2.6166 C   0  0  0  0  0  0  0  0  0  0  0  0
    1.1630  -14.5925    2.9532 C   0  0  0  0  0  0  0  0  0  0  0  0
   -0.0144  -15.2301    2.4567 C   0  0  0  0  0  0  0  0  0  0  0  0
   -1.1158  -14.5082    2.2785 C   0  0  0  0  0  0  0  0  0  0  0  0
    0.6327   -9.9814    0.3801 O   0  0  0  0  0  0  0  0  0  0  0  0
  1  2  1  0
  3  4  1  0
  2  6  1  0
  5  6  1  0
  3  7  1  0
  7  8  1  1
  6  9  2  0
  7 10  1  0
 10 11  1  0
  8 13  1  0
 12 14  1  0
 13 14  1  0
  4 19  1  0
  3  1  1  6
  4  5  1  0
 11 12  2  0
 12 16  1  0
 16 17  2  0
 17 18  1  0
 15 18  2  0
 11 15  1  0
M  END

$$$$
No_2337-/export/home/yangzhenyu/potential_scad_32_flow//YTHDC2/2024-12-06-03-22-00/
     RDKit          3D

 16 17  0  0  0  0  0  0  0  0999 V2000
    1.1787   -8.0297    3.5154 C   0  0  0  0  0  0  0  0  0  0  0  0
    1.1048   -9.2215    3.2892 C   0  0  0  0  0  0  0  0  0  0  0  0
    1.2339   -9.7611    2.0189 C   0  0  0  0  0  0  0  0  0  0  0  0
    1.3583   -9.0036    0.9764 C   0  0  0  0  0  0  0  0  0  0  0  0
    1.5996   -7.6362    1.1311 C   0  0  0  0  0  0  0  0  0  0  0  0
    1.4830   -7.0928    2.3626 C   0  0  0  0  0  0  0  0  0  0  0  0
    1.5395   -5.7300    2.6182 N   0  0  0  0  0  0  0  0  0  0  0  0
    1.1756  -11.2259    1.8616 C   0  0  0  0  0  0  0  0  0  0  0  0
    1.9309  -12.0522    2.4890 N   0  0  0  0  0  0  0  0  0  0  0  0
    1.7329  -13.4108    2.2223 C   0  0  0  0  0  0  0  0  0  0  0  0
    1.8618  -14.3440    3.1795 C   0  0  0  0  0  0  0  0  0  0  0  0
    1.3059  -15.6757    3.0089 C   0  0  0  0  0  0  0  0  0  0  0  0
    0.8170  -15.7470    1.6594 C   0  0  0  0  0  0  0  0  0  0  0  0
    0.6896  -14.9738    0.8005 C   0  0  0  0  0  0  0  0  0  0  0  0
    1.2157  -13.7045    0.9934 C   0  0  0  0  0  0  0  0  0  0  0  0
    1.2491   -4.8138    1.7640 O   0  0  0  0  0  0  0  0  0  0  0  0
  6  7  1  0
  3  8  1  0
  8  9  1  0
  9 10  1  0
  7 16  2  0
  1  2  2  0
  2  3  1  0
  3  4  2  0
  4  5  1  0
  5  6  2  0
  1  6  1  0
 10 11  2  0
 11 12  1  0
 12 13  2  0
 13 14  1  0
 14 15  2  0
 10 15  1  0
M  END

$$$$
No_2338-/export/home/yangzhenyu/potential_scad_32_flow//YTHDC2/2024-12-06-03-22-00/
     RDKit          3D

 19 20  0  0  1  0  0  0  0  0999 V2000
    1.1787   -8.0297    3.5154 C   0  0  0  0  0  0  0  0  0  0  0  0
    1.1048   -9.2215    3.2892 C   0  0  0  0  0  0  0  0  0  0  0  0
    1.3627  -10.1721    4.3044 C   0  0  0  0  0  0  0  0  0  0  0  0
    1.7354  -11.4730    3.9023 C   0  0  0  0  0  0  0  0  0  0  0  0
    1.8080  -11.8127    2.7216 C   0  0  0  0  0  0  0  0  0  0  0  0
    1.5854  -11.0021    1.7249 C   0  0  0  0  0  0  0  0  0  0  0  0
    1.3573   -9.7389    1.9287 C   0  0  0  0  0  0  0  0  0  0  0  0
    1.2865   -8.8078    0.9161 C   0  0  0  0  0  0  0  0  0  0  0  0
    1.6845   -9.1638   -0.2896 O   0  0  0  0  0  0  0  0  0  0  0  0
    0.6173   -7.6210    0.9782 N   0  0  0  0  0  0  0  0  0  0  0  0
    0.6678   -7.1338    2.2964 C   0  0  2  0  0  0  0  0  0  0  0  0
    0.3815   -5.5957    2.3659 C   0  0  0  0  0  0  0  0  0  0  0  0
    1.3532   -4.7655    2.7087 C   0  0  0  0  0  0  0  0  0  0  0  0
    2.1276  -13.4439    2.3242 N   0  0  0  0  0  0  0  0  0  0  0  0
    1.9010  -14.3495    3.0180 C   0  0  0  0  0  0  0  0  0  0  0  0
    2.1666  -15.6123    2.4255 C   0  0  0  0  0  0  0  0  0  0  0  0
    1.5878  -16.4194    2.0337 O   0  0  0  0  0  0  0  0  0  0  0  0
    3.6042  -15.8873    2.3173 O   0  0  0  0  0  0  0  0  0  0  0  0
   -0.9196   -5.2319    2.2946 C   0  0  0  0  0  0  0  0  0  0  0  0
  1  2  1  0
  7  8  1  0
  8  9  2  0
  8 10  1  0
 10 11  1  0
 11 12  1  6
 12 13  1  0
  5 14  1  0
 14 15  1  0
 15 16  1  0
 16 17  2  0
 16 18  1  0
 12 19  1  0
  1 11  1  0
  2  3  2  0
  3  4  1  0
  4  5  2  0
  5  6  1  0
  6  7  2  0
  2  7  1  0
M  END

$$$$
No_2339-/export/home/yangzhenyu/potential_scad_32_flow//YTHDC2/2024-12-06-03-22-00/
     RDKit          3D

 18 18  0  0  0  0  0  0  0  0999 V2000
    1.1787   -8.0297    3.5154 C   0  0  0  0  0  0  0  0  0  0  0  0
    1.0491   -6.8434    2.9820 C   0  0  0  0  0  0  0  0  0  0  0  0
    0.9905   -9.0774    2.6527 C   0  0  0  0  0  0  0  0  0  0  0  0
    0.7897   -8.9519    1.3691 C   0  0  0  0  0  0  0  0  0  0  0  0
    0.6550  -10.0985    0.4848 C   0  0  0  0  0  0  0  0  0  0  0  0
    0.7849   -6.5836    1.6043 C   0  0  0  0  0  0  0  0  0  0  0  0
    0.6652   -7.6671    0.8008 C   0  0  0  0  0  0  0  0  0  0  0  0
    1.2441  -11.1828    0.5777 O   0  0  0  0  0  0  0  0  0  0  0  0
   -0.1744   -9.9646   -0.6150 N   0  0  0  0  0  0  0  0  0  0  0  0
    1.2260  -10.4366    3.2043 C   0  0  0  0  0  0  0  0  0  0  0  0
    2.5648  -10.8944    3.5606 C   0  0  0  0  0  0  0  0  0  0  0  0
    2.5182  -11.4566    4.9922 O   0  0  0  0  0  0  0  0  0  0  0  0
    0.6137   -5.2863    1.0581 N   0  0  0  0  0  0  0  0  0  0  0  0
   -0.5531   -4.7210    0.8539 C   0  0  0  0  0  0  0  0  0  0  0  0
   -0.6394   -3.4336    0.4241 C   0  0  0  0  0  0  0  0  0  0  0  0
   -1.2900   -2.6709    1.0503 C   0  0  0  0  0  0  0  0  0  0  0  0
   -1.8896   -3.2449    2.1742 C   0  0  0  0  0  0  0  0  0  0  0  0
   -1.8183   -4.4463    2.5397 C   0  0  0  0  0  0  0  0  0  0  0  0
  4  5  1  0
  5  8  2  0
  5  9  1  0
  3 10  1  0
 10 11  1  0
 11 12  1  0
  6 13  1  0
 13 14  1  0
 14 15  1  0
 15 16  2  3
 16 17  1  0
 17 18  2  0
  1  2  2  0
  2  6  1  0
  6  7  2  0
  4  7  1  0
  3  4  2  0
  1  3  1  0
M  END

$$$$
No_2340-/export/home/yangzhenyu/potential_scad_32_flow//YTHDC2/2024-12-06-03-22-00/
     RDKit          3D

 19 20  0  0  1  0  0  0  0  0999 V2000
    1.1787   -8.0297    3.5154 C   0  0  0  0  0  0  0  0  0  0  0  0
    1.0491   -6.8434    2.9820 C   0  0  0  0  0  0  0  0  0  0  0  0
    1.9985   -8.9840    2.8958 C   0  0  0  0  0  0  0  0  0  0  0  0
    1.9135  -10.3404    3.6266 C   0  0  0  0  0  0  0  0  0  0  0  0
    1.3291  -11.3908    3.0222 C   0  0  2  0  0  0  0  0  0  0  0  0
    1.2749  -12.5326    3.7562 O   0  0  0  0  0  0  0  0  0  0  0  0
    1.2553   -6.5167    1.7882 C   0  0  0  0  0  0  0  0  0  0  0  0
    0.2977   -6.6730    1.0095 C   0  0  1  0  0  0  0  0  0  0  0  0
    0.0206   -7.8782    0.3677 C   0  0  2  0  0  0  0  0  0  0  0  0
   -1.1571   -8.3721    0.1191 C   0  0  0  0  0  0  0  0  0  0  0  0
   -2.1759   -7.5177   -0.0161 C   0  0  0  0  0  0  0  0  0  0  0  0
   -2.0243   -6.2152    0.3961 C   0  0  0  0  0  0  0  0  0  0  0  0
   -0.8592   -5.7707    0.9079 C   0  0  0  0  0  0  0  0  0  0  0  0
    1.0483  -11.4660    1.7716 C   0  0  1  0  0  0  0  0  0  0  0  0
    1.8495  -10.9247    0.8358 C   0  0  0  0  0  0  0  0  0  0  0  0
    1.3432  -10.2233   -0.1939 C   0  0  0  0  0  0  0  0  0  0  0  0
    0.9036   -8.7740   -0.0420 C   0  0  0  0  0  0  0  0  0  0  0  0
   -0.6435   -4.4749    1.5107 O   0  0  0  0  0  0  0  0  0  0  0  0
    0.2896  -12.4402    1.3146 C   0  0  0  0  0  0  0  0  0  0  0  0
  1  2  1  0
  1  3  1  0
  3  4  1  0
  4  5  1  0
  5  6  1  6
  2  7  1  0
  8  7  1  1
  8  9  1  0
 10 11  1  0
  8 13  1  0
 12 13  1  0
  5 14  1  0
 14 15  1  0
 15 16  2  3
  9 17  1  1
 16 17  1  0
 13 18  2  0
 14 19  1  6
  9 10  1  0
 11 12  1  0
M  END

$$$$
No_2341-/export/home/yangzhenyu/potential_scad_32_flow//YTHDC2/2024-12-06-03-22-00/
     RDKit          3D

 18 19  0  0  1  0  0  0  0  0999 V2000
    1.1787   -8.0297    3.5154 C   0  0  0  0  0  0  0  0  0  0  0  0
    1.1048   -9.2215    3.2892 C   0  0  0  0  0  0  0  0  0  0  0  0
    1.2339   -9.7611    2.0189 C   0  0  0  0  0  0  0  0  0  0  0  0
    1.3583   -9.0036    0.9764 C   0  0  0  0  0  0  0  0  0  0  0  0
    1.5996   -7.6362    1.1311 C   0  0  0  0  0  0  0  0  0  0  0  0
    1.4830   -7.0928    2.3626 C   0  0  0  0  0  0  0  0  0  0  0  0
    1.4898   -5.7274    2.6199 C   0  0  0  0  0  0  0  0  0  0  0  0
    1.1681  -11.2222    1.8390 C   0  0  2  0  0  0  0  0  0  0  0  0
    1.9047  -12.1147    2.3357 C   0  0  0  0  0  0  0  0  0  0  0  0
    1.6844  -13.4555    2.0602 C   0  0  2  0  0  0  0  0  0  0  0  0
    0.6977  -13.8514    1.3046 C   0  0  0  0  0  0  0  0  0  0  0  0
   -0.1168  -12.9151    0.6554 C   0  0  0  0  0  0  0  0  0  0  0  0
    0.1481  -11.5441    0.9254 C   0  0  0  0  0  0  0  0  0  0  0  0
    1.2485   -4.8600    1.6197 O   0  0  0  0  0  0  0  0  0  0  0  0
    1.7677   -5.1383    3.7959 O   0  0  0  0  0  0  0  0  0  0  0  0
    2.5136  -14.4244    2.7624 I   0  0  0  0  0  0  0  0  0  0  0  0
   -0.7748  -10.6924    0.4343 O   0  0  0  0  0  0  0  0  0  0  0  0
    1.6063   -9.4007   -0.3649 C   0  0  0  0  0  0  0  0  0  0  0  0
  6  7  1  0
  8  3  1  6
  8  9  1  0
 10 11  1  0
  8 13  1  0
 12 13  1  0
  7 14  2  0
  7 15  1  0
 10 16  1  1
 13 17  2  0
  4 18  1  0
  9 10  1  0
 11 12  1  0
  1  2  2  0
  2  3  1  0
  3  4  2  0
  4  5  1  0
  5  6  2  0
  1  6  1  0
M  END

$$$$
No_2342-/export/home/yangzhenyu/potential_scad_32_flow//YTHDC2/2024-12-06-03-22-00/
     RDKit          3D

 19 19  0  0  1  0  0  0  0  0999 V2000
    1.1787   -8.0297    3.5154 C   0  0  0  0  0  0  0  0  0  0  0  0
    1.0491   -6.8434    2.9820 C   0  0  0  0  0  0  0  0  0  0  0  0
    1.9985   -8.9840    2.8958 C   0  0  2  0  0  0  0  0  0  0  0  0
    1.7297   -9.2108    1.6335 C   0  0  0  0  0  0  0  0  0  0  0  0
    1.7343   -8.0566    0.8408 C   0  0  2  0  0  0  0  0  0  0  0  0
    1.0269   -6.8892    1.4456 C   0  0  0  0  0  0  0  0  0  0  0  0
    1.7596   -8.0979   -0.4723 C   0  0  0  0  0  0  0  0  0  0  0  0
    1.8128   -9.1679   -1.0978 O   0  0  0  0  0  0  0  0  0  0  0  0
    1.9341  -10.3806    3.5659 C   0  0  0  0  0  0  0  0  0  0  0  0
    1.1031  -11.1970    3.4629 N   0  0  0  0  0  0  0  0  0  0  0  0
   -0.2105  -10.9326    3.7899 C   0  0  0  0  0  0  0  0  0  0  0  0
   -1.2479  -11.5551    3.3859 O   0  0  0  0  0  0  0  0  0  0  0  0
   -0.3112  -10.2821    5.2528 C   0  0  0  0  0  0  0  0  0  0  0  0
    2.1764   -7.2271   -1.1980 O   0  0  0  0  0  0  0  0  0  0  0  0
   -1.7135   -9.7520    5.2248 C   0  0  0  0  0  0  0  0  0  0  0  0
   -1.9831   -8.3814    5.2485 C   0  0  0  0  0  0  0  0  0  0  0  0
   -2.9513   -7.8186    5.8821 O   0  0  0  0  0  0  0  0  0  0  0  0
   -1.3783   -7.4681    4.4484 O   0  0  0  0  0  0  0  0  0  0  0  0
    1.3003  -12.4157    2.6198 C   0  0  0  0  0  0  0  0  0  0  0  0
  1  2  1  0
  1  3  1  0
  3  4  1  0
  4  5  1  0
  2  6  1  0
  5  6  1  0
  5  7  1  6
  7  8  1  0
  3  9  1  1
  9 10  1  0
 10 11  1  0
 11 12  2  0
 11 13  1  0
  7 14  2  0
 13 15  1  0
 15 16  1  0
 16 17  1  0
 16 18  2  0
 10 19  1  0
M  END

$$$$
No_2343-/export/home/yangzhenyu/potential_scad_32_flow//YTHDC2/2024-12-06-03-22-00/
     RDKit          3D

 20 21  0  0  0  0  0  0  0  0999 V2000
    1.1787   -8.0297    3.5154 C   0  0  0  0  0  0  0  0  0  0  0  0
    1.0491   -6.8434    2.9820 C   0  0  0  0  0  0  0  0  0  0  0  0
    0.0950   -8.8404    3.2292 C   0  0  0  0  0  0  0  0  0  0  0  0
   -0.9173   -8.4596    2.5152 C   0  0  0  0  0  0  0  0  0  0  0  0
   -1.0331   -7.2162    2.0653 C   0  0  0  0  0  0  0  0  0  0  0  0
   -0.0105   -6.3168    2.3081 C   0  0  0  0  0  0  0  0  0  0  0  0
    0.1465  -10.2446    3.6981 C   0  0  0  0  0  0  0  0  0  0  0  0
    1.2433  -10.8239    4.0166 C   0  0  0  0  0  0  0  0  0  0  0  0
    1.4837  -12.0780    3.6201 C   0  0  0  0  0  0  0  0  0  0  0  0
    0.6797  -12.4620    2.4263 C   0  0  0  0  0  0  0  0  0  0  0  0
   -0.4881  -11.9161    2.2619 C   0  0  0  0  0  0  0  0  0  0  0  0
   -0.7834  -10.7350    2.7758 C   0  0  0  0  0  0  0  0  0  0  0  0
   -0.0751   -4.9471    1.9151 O   0  0  0  0  0  0  0  0  0  0  0  0
    0.9738  -13.9138    2.1246 O   0  0  0  0  0  0  0  0  0  0  0  0
    2.2211  -14.4314    2.2128 C   0  0  0  0  0  0  0  0  0  0  0  0
    0.8965   -4.0899    2.3421 C   0  0  0  0  0  0  0  0  0  0  0  0
    2.8909  -14.2876    1.2643 C   0  0  0  0  0  0  0  0  0  0  0  0
    4.0454  -14.8654    1.0606 N   0  0  0  0  0  0  0  0  0  0  0  0
    2.6463  -13.1092    0.3876 N   0  0  0  0  0  0  0  0  0  0  0  0
    4.3583  -15.6005    1.6786 H   0  0  0  0  0  0  0  0  0  0  0  0
  3  7  1  0
  6 13  1  0
 10 14  1  0
 14 15  1  0
 13 16  1  0
 15 17  1  0
 17 18  2  0
 17 19  1  0
  1  2  2  0
  2  6  1  0
  5  6  2  0
  4  5  1  0
  3  4  2  0
  1  3  1  0
  7  8  2  0
  8  9  1  0
  9 10  2  0
 10 11  1  0
 11 12  2  0
  7 12  1  0
 18 20  1  0
M  END

$$$$
No_2344-/export/home/yangzhenyu/potential_scad_32_flow//YTHDC2/2024-12-06-03-22-00/
     RDKit          3D

 18 18  0  0  0  0  0  0  0  0999 V2000
    1.1787   -8.0297    3.5154 C   0  0  0  0  0  0  0  0  0  0  0  0
    1.1048   -9.2215    3.2892 C   0  0  0  0  0  0  0  0  0  0  0  0
    1.0239   -9.7790    2.0239 C   0  0  0  0  0  0  0  0  0  0  0  0
    1.1393   -9.0211    0.9686 C   0  0  0  0  0  0  0  0  0  0  0  0
    1.3160   -9.6264   -0.3268 C   0  0  0  0  0  0  0  0  0  0  0  0
    1.3620   -7.1064    2.3319 C   0  0  0  0  0  0  0  0  0  0  0  0
    1.2578   -7.6370    1.0089 C   0  0  0  0  0  0  0  0  0  0  0  0
    0.7179   -9.3485   -1.1691 O   0  0  0  0  0  0  0  0  0  0  0  0
    1.8633  -10.8198   -0.2220 O   0  0  0  0  0  0  0  0  0  0  0  0
    1.4369   -5.6546    2.5020 C   0  0  0  0  0  0  0  0  0  0  0  0
    1.5575   -5.1871    3.7286 O   0  0  0  0  0  0  0  0  0  0  0  0
    1.4223   -4.9082    1.5577 O   0  0  0  0  0  0  0  0  0  0  0  0
    1.0929  -10.1196    4.4328 I   0  0  0  0  0  0  0  0  0  0  0  0
    0.9516  -11.3175    1.9536 C   0  0  0  0  0  0  0  0  0  0  0  0
    2.0618  -12.0946    2.1178 C   0  0  0  0  0  0  0  0  0  0  0  0
    1.9328  -13.5229    1.8479 C   0  0  0  0  0  0  0  0  0  0  0  0
    0.5868  -13.8306    1.6874 C   0  0  0  0  0  0  0  0  0  0  0  0
   -0.0832  -14.9723    1.4965 F   0  0  0  0  0  0  0  0  0  0  0  0
  4  5  1  0
  5  8  1  0
  5  9  2  0
  6 10  1  0
 10 11  1  0
 10 12  2  0
  2 13  1  0
  3 14  1  0
 14 15  1  0
 15 16  2  3
 16 17  1  0
 17 18  1  0
  1  2  2  0
  2  3  1  0
  3  4  2  0
  4  7  1  0
  6  7  2  0
  1  6  1  0
M  END

$$$$
No_2345-/export/home/yangzhenyu/potential_scad_32_flow//YTHDC2/2024-12-06-03-22-00/
     RDKit          3D

 18 18  0  0  1  0  0  0  0  0999 V2000
    1.1787   -8.0297    3.5154 C   0  0  0  0  0  0  0  0  0  0  0  0
    1.0491   -6.8434    2.9820 C   0  0  0  0  0  0  0  0  0  0  0  0
    0.9905   -9.0774    2.6527 C   0  0  0  0  0  0  0  0  0  0  0  0
    0.7897   -8.9519    1.3691 C   0  0  0  0  0  0  0  0  0  0  0  0
    0.7018   -7.7198    0.7892 C   0  0  0  0  0  0  0  0  0  0  0  0
    0.8918   -6.5957    1.6117 C   0  0  0  0  0  0  0  0  0  0  0  0
    1.0774  -10.6059    3.3145 C   0  0  2  0  0  0  0  0  0  0  0  0
   -0.1032  -11.1934    3.4585 C   0  0  0  0  0  0  0  0  0  0  0  0
   -1.2292  -10.4461    3.8202 P   0  0  0  0  0  0  0  0  0  0  0  0
   -1.7959   -9.9511    3.0707 O   0  0  0  0  0  0  0  0  0  0  0  0
   -1.4711  -10.3310    5.2030 O   0  0  0  0  0  0  0  0  0  0  0  0
    2.0509  -10.4175    4.5263 C   0  0  0  0  0  0  0  0  0  0  0  0
    0.8706   -5.2825    1.0941 O   0  0  0  0  0  0  0  0  0  0  0  0
    0.4566   -4.1978    1.8047 C   0  0  1  0  0  0  0  0  0  0  0  0
    0.6587  -10.0259    0.3827 Cl  0  0  0  0  0  0  0  0  0  0  0  0
    1.5817   -3.4334    2.1767 C   0  0  0  0  0  0  0  0  0  0  0  0
   -0.5296   -3.4983    0.9440 C   0  0  0  0  0  0  0  0  0  0  0  0
   -1.4915   -3.1519    1.6146 C   0  0  0  0  0  0  0  0  0  0  0  0
  3  7  1  0
  7  8  1  0
  8  9  1  0
  9 10  2  0
  9 11  2  0
  7 12  1  1
  6 13  1  0
 13 14  1  0
  4 15  1  0
 14 16  1  6
 14 17  1  0
 17 18  1  0
  1  2  2  0
  2  6  1  0
  5  6  2  0
  4  5  1  0
  3  4  2  0
  1  3  1  0
M  END

$$$$
No_2346-/export/home/yangzhenyu/potential_scad_32_flow//YTHDC2/2024-12-06-03-22-00/
     RDKit          3D

 18 19  0  0  0  0  0  0  0  0999 V2000
    1.1787   -8.0297    3.5154 C   0  0  0  0  0  0  0  0  0  0  0  0
    1.1048   -9.2215    3.2892 C   0  0  0  0  0  0  0  0  0  0  0  0
    1.2339   -9.7611    2.0189 C   0  0  0  0  0  0  0  0  0  0  0  0
    1.3583   -9.0036    0.9764 C   0  0  0  0  0  0  0  0  0  0  0  0
    1.5996   -7.6362    1.1311 C   0  0  0  0  0  0  0  0  0  0  0  0
    1.4830   -7.0928    2.3626 C   0  0  0  0  0  0  0  0  0  0  0  0
    1.1171  -11.3311    1.8661 C   0  0  0  0  0  0  0  0  0  0  0  0
    0.5042  -11.9974    2.3631 C   0  0  0  0  0  0  0  0  0  0  0  0
    0.4547  -13.3874    2.1599 C   0  0  0  0  0  0  0  0  0  0  0  0
    1.6053  -14.2337    2.6336 C   0  0  0  0  0  0  0  0  0  0  0  0
    1.6405  -15.5635    2.4227 C   0  0  0  0  0  0  0  0  0  0  0  0
    0.5329  -16.1828    1.9320 C   0  0  0  0  0  0  0  0  0  0  0  0
   -0.4545  -15.5158    1.3547 C   0  0  0  0  0  0  0  0  0  0  0  0
   -0.5125  -14.1019    1.5567 C   0  0  0  0  0  0  0  0  0  0  0  0
    1.5687   -5.6632    2.6483 C   0  0  0  0  0  0  0  0  0  0  0  0
    1.2547   -4.7859    1.6494 C   0  0  0  0  0  0  0  0  0  0  0  0
    0.3592   -3.7344    1.9463 C   0  0  0  0  0  0  0  0  0  0  0  0
   -0.7629   -3.9362    2.2896 C   0  0  0  0  0  0  0  0  0  0  0  0
  3  7  1  0
  7  8  2  3
  8  9  1  0
  6 15  1  0
 15 16  1  0
 16 17  1  0
 17 18  1  0
  1  2  2  0
  2  3  1  0
  3  4  2  0
  4  5  1  0
  5  6  2  0
  1  6  1  0
  9 10  2  0
 10 11  1  0
 11 12  2  0
 12 13  1  0
 13 14  2  0
  9 14  1  0
M  END

$$$$
No_2347-/export/home/yangzhenyu/potential_scad_32_flow//YTHDC2/2024-12-06-03-22-00/
     RDKit          3D

 18 19  0  0  0  0  0  0  0  0999 V2000
    1.1787   -8.0297    3.5154 C   0  0  0  0  0  0  0  0  0  0  0  0
    1.0491   -6.8434    2.9820 C   0  0  0  0  0  0  0  0  0  0  0  0
    0.0950   -8.8404    3.2292 C   0  0  0  0  0  0  0  0  0  0  0  0
   -0.9173   -8.4596    2.5152 C   0  0  0  0  0  0  0  0  0  0  0  0
   -1.0331   -7.2162    2.0653 C   0  0  0  0  0  0  0  0  0  0  0  0
   -0.0105   -6.3168    2.3081 C   0  0  0  0  0  0  0  0  0  0  0  0
    0.1150   -4.9910    1.8495 C   0  0  0  0  0  0  0  0  0  0  0  0
    0.9121   -4.1017    2.4010 N   0  0  0  0  0  0  0  0  0  0  0  0
   -0.4360   -4.5348    0.7258 N   0  0  0  0  0  0  0  0  0  0  0  0
    0.1744  -10.2755    3.6686 C   0  0  0  0  0  0  0  0  0  0  0  0
    0.2323  -11.3366    2.8914 C   0  0  0  0  0  0  0  0  0  0  0  0
    0.9577  -12.5322    3.3798 C   0  0  0  0  0  0  0  0  0  0  0  0
    1.0589  -13.5996    2.5274 C   0  0  0  0  0  0  0  0  0  0  0  0
    0.5682  -13.6985    1.4028 C   0  0  0  0  0  0  0  0  0  0  0  0
   -0.0110  -12.5789    0.7800 C   0  0  0  0  0  0  0  0  0  0  0  0
   -0.1323  -11.4079    1.5467 C   0  0  0  0  0  0  0  0  0  0  0  0
    1.7125  -14.8381    3.0837 Cl  0  0  0  0  0  0  0  0  0  0  0  0
    1.4317   -4.3373    3.2344 H   0  0  0  0  0  0  0  0  0  0  0  0
  6  7  1  0
  7  8  2  0
  7  9  1  0
  3 10  1  0
 10 11  1  0
 13 17  1  0
 11 12  2  0
 12 13  1  0
 13 14  2  0
 14 15  1  0
 15 16  2  0
 11 16  1  0
  1  2  2  0
  2  6  1  0
  5  6  2  0
  4  5  1  0
  3  4  2  0
  1  3  1  0
  8 18  1  0
M  END

$$$$
No_2348-/export/home/yangzhenyu/potential_scad_32_flow//YTHDC2/2024-12-06-03-22-00/
     RDKit          3D

 20 21  0  0  1  0  0  0  0  0999 V2000
    1.1787   -8.0297    3.5154 C   0  0  0  0  0  0  0  0  0  0  0  0
    1.0491   -6.8434    2.9820 C   0  0  0  0  0  0  0  0  0  0  0  0
    0.9905   -9.0774    2.6527 C   0  0  0  0  0  0  0  0  0  0  0  0
    0.7897   -8.9519    1.3691 C   0  0  0  0  0  0  0  0  0  0  0  0
    0.7018   -7.7198    0.7892 C   0  0  0  0  0  0  0  0  0  0  0  0
    0.8918   -6.5957    1.6117 C   0  0  0  0  0  0  0  0  0  0  0  0
    1.0711  -10.4814    3.2282 C   0  0  2  0  0  0  0  0  0  0  0  0
    2.1432  -11.0138    3.5962 C   0  0  0  0  0  0  0  0  0  0  0  0
   -0.0553  -11.2345    3.2840 C   0  0  0  0  0  0  0  0  0  0  0  0
   -1.2156  -10.5474    3.8659 C   0  0  0  0  0  0  0  0  0  0  0  0
   -1.0149   -9.8213    5.1369 C   0  0  0  0  0  0  0  0  0  0  0  0
   -2.1481   -9.0254    5.4829 C   0  0  0  0  0  0  0  0  0  0  0  0
   -3.2514   -8.9634    4.8313 C   0  0  0  0  0  0  0  0  0  0  0  0
   -3.4583   -9.7261    3.7766 C   0  0  0  0  0  0  0  0  0  0  0  0
   -2.4773  -10.5629    3.3359 C   0  0  0  0  0  0  0  0  0  0  0  0
    2.4109  -12.2758    3.5960 N   0  0  0  0  0  0  0  0  0  0  0  0
    0.9000   -5.3055    1.0766 C   0  0  0  0  0  0  0  0  0  0  0  0
   -0.2840   -4.7438    0.7112 C   0  0  0  0  0  0  0  0  0  0  0  0
   -0.4249   -3.4627    0.2118 C   0  0  0  0  0  0  0  0  0  0  0  0
    1.7192  -12.9387    3.2765 H   0  0  0  0  0  0  0  0  0  0  0  0
  3  7  1  0
  7  8  1  0
  7  9  1  6
  9 10  1  0
  8 16  2  0
  6 17  1  0
 17 18  1  0
 18 19  2  0
  1  2  2  0
  2  6  1  0
  5  6  2  0
  4  5  1  0
  3  4  2  0
  1  3  1  0
 10 11  2  0
 11 12  1  0
 12 13  2  0
 13 14  1  0
 14 15  2  0
 10 15  1  0
 16 20  1  0
M  END

$$$$
No_2349-/export/home/yangzhenyu/potential_scad_32_flow//YTHDC2/2024-12-06-03-22-00/
     RDKit          3D

 18 20  0  0  0  0  0  0  0  0999 V2000
    1.1787   -8.0297    3.5154 C   0  0  0  0  0  0  0  0  0  0  0  0
    1.0491   -6.8434    2.9820 C   0  0  0  0  0  0  0  0  0  0  0  0
    0.0950   -8.8404    3.2292 C   0  0  0  0  0  0  0  0  0  0  0  0
   -0.9173   -8.4596    2.5152 C   0  0  0  0  0  0  0  0  0  0  0  0
   -1.0331   -7.2162    2.0653 C   0  0  0  0  0  0  0  0  0  0  0  0
   -0.0105   -6.3168    2.3081 C   0  0  0  0  0  0  0  0  0  0  0  0
    0.1465  -10.2446    3.6981 C   0  0  0  0  0  0  0  0  0  0  0  0
   -1.0337  -10.8619    3.9439 C   0  0  0  0  0  0  0  0  0  0  0  0
   -2.1702  -10.4673    3.2991 C   0  0  0  0  0  0  0  0  0  0  0  0
   -2.1358   -9.2084    2.5791 C   0  0  0  0  0  0  0  0  0  0  0  0
   -3.3468  -11.1306    3.2649 C   0  0  0  0  0  0  0  0  0  0  0  0
   -0.0443   -4.9791    1.8066 O   0  0  0  0  0  0  0  0  0  0  0  0
   -4.3697  -10.7767    4.0550 C   0  0  0  0  0  0  0  0  0  0  0  0
   -5.4852  -11.7022    4.3067 C   0  0  0  0  0  0  0  0  0  0  0  0
   -5.5059  -12.6764    4.5379 C   0  0  0  0  0  0  0  0  0  0  0  0
   -4.3409  -13.5683    3.9767 C   0  0  0  0  0  0  0  0  0  0  0  0
   -3.2918  -12.8050    3.3609 C   0  0  0  0  0  0  0  0  0  0  0  0
    0.8659   -4.1048    2.2125 C   0  0  0  0  0  0  0  0  0  0  0  0
  9 11  1  0
  6 12  1  0
 12 18  1  0
  4 10  2  0
  9 10  1  0
  8  9  2  0
  7  8  1  0
  3  7  2  0
  1  2  2  0
  2  6  1  0
  5  6  2  0
  4  5  1  0
  3  4  1  0
  1  3  1  0
 11 13  2  0
 13 14  1  0
 14 15  2  0
 15 16  1  0
 16 17  2  0
 11 17  1  0
M  END

$$$$
No_2350-/export/home/yangzhenyu/potential_scad_32_flow//YTHDC2/2024-12-06-03-22-00/
     RDKit          3D

 18 19  0  0  1  0  0  0  0  0999 V2000
    1.1787   -8.0297    3.5154 N   0  0  0  0  0  0  0  0  0  0  0  0
    0.8669   -7.0905    2.8589 C   0  0  0  0  0  0  0  0  0  0  0  0
    0.8842   -5.8387    3.2677 N   0  0  0  0  0  0  0  0  0  0  0  0
    0.7046   -7.3396    1.4853 C   0  0  0  0  0  0  0  0  0  0  0  0
    1.1339   -9.2740    3.0829 C   0  0  0  0  0  0  0  0  0  0  0  0
    0.8384   -9.5970    1.8450 N   0  0  0  0  0  0  0  0  0  0  0  0
    0.5580   -8.5910    0.9796 C   0  0  0  0  0  0  0  0  0  0  0  0
    1.4913  -10.4925    3.9228 N   0  0  0  0  0  0  0  0  0  0  0  0
    0.3886   -8.7881   -0.3139 C   0  0  0  0  0  0  0  0  0  0  0  0
   -0.6633   -8.0946   -0.8415 O   0  0  0  0  0  0  0  0  0  0  0  0
    0.9522   -9.5734   -1.0735 O   0  0  0  0  0  0  0  0  0  0  0  0
    0.9680  -11.7381    3.7364 C   0  0  0  0  0  0  0  0  0  0  0  0
    1.1706  -12.3044    2.5832 C   0  0  0  0  0  0  0  0  0  0  0  0
    1.2561  -13.5844    2.3297 C   0  0  1  0  0  0  0  0  0  0  0  0
    1.6293  -14.1211    1.0578 C   0  0  0  0  0  0  0  0  0  0  0  0
    1.9482  -15.3321    0.8958 C   0  0  0  0  0  0  0  0  0  0  0  0
    1.4388  -16.1351    1.9858 C   0  0  0  0  0  0  0  0  0  0  0  0
    1.1568  -15.2009    3.1229 C   0  0  0  0  0  0  0  0  0  0  0  0
  2  3  1  0
  5  8  1  0
  7  9  1  0
  9 10  2  0
  9 11  1  0
  8 12  1  0
 12 13  1  0
 14 13  1  1
 14 15  1  0
 15 16  2  0
 16 17  1  0
 14 18  1  0
 17 18  1  0
  1  2  2  0
  2  4  1  0
  4  7  2  0
  6  7  1  0
  5  6  2  0
  1  5  1  0
M  END

$$$$
No_2351-/export/home/yangzhenyu/potential_scad_32_flow//YTHDC2/2024-12-06-03-22-00/
     RDKit          3D

 18 19  0  0  1  0  0  0  0  0999 V2000
    1.1787   -8.0297    3.5154 C   0  0  0  0  0  0  0  0  0  0  0  0
    1.1048   -9.2215    3.2892 C   0  0  0  0  0  0  0  0  0  0  0  0
    1.2339   -9.7611    2.0189 C   0  0  1  0  0  0  0  0  0  0  0  0
    1.1954  -11.2312    1.8661 C   0  0  0  0  0  0  0  0  0  0  0  0
    1.5546  -12.1691    2.7931 C   0  0  0  0  0  0  0  0  0  0  0  0
    0.5849   -7.0929    2.5729 C   0  0  0  0  0  0  0  0  0  0  0  0
    0.5567   -7.6699    1.1955 C   0  0  0  0  0  0  0  0  0  0  0  0
    0.7903   -8.9699    0.9209 C   0  0  0  0  0  0  0  0  0  0  0  0
    0.7585  -13.2773    2.9106 C   0  0  0  0  0  0  0  0  0  0  0  0
   -0.4911  -13.0456    2.6377 C   0  0  0  0  0  0  0  0  0  0  0  0
   -0.9547  -11.7774    2.5689 C   0  0  0  0  0  0  0  0  0  0  0  0
    0.6100   -5.5781    2.6635 C   0  0  0  0  0  0  0  0  0  0  0  0
    0.3341   -6.8591    0.1949 C   0  0  0  0  0  0  0  0  0  0  0  0
   -0.1763   -5.6217    0.5219 C   0  0  0  0  0  0  0  0  0  0  0  0
    0.0355   -5.0016    1.6637 C   0  0  0  0  0  0  0  0  0  0  0  0
    1.4089  -14.4742    3.1587 C   0  0  0  0  0  0  0  0  0  0  0  0
    0.7919   -9.5243   -0.2245 O   0  0  0  0  0  0  0  0  0  0  0  0
    0.4095  -15.5721    3.4276 C   0  0  0  0  0  0  0  0  0  0  0  0
  1  2  1  0
  3  4  1  1
  4  5  1  0
  3  8  1  0
  7  8  1  0
  5  9  1  0
  9 10  1  0
 10 11  1  0
  9 16  1  0
  8 17  2  0
 16 18  1  0
  2  3  1  0
  1  6  1  0
  6  7  2  0
  7 13  1  0
 13 14  2  0
 14 15  1  0
 12 15  2  0
  6 12  1  0
M  END

$$$$
No_2352-/export/home/yangzhenyu/potential_scad_32_flow//YTHDC2/2024-12-06-03-22-00/
     RDKit          3D

 19 20  0  0  0  0  0  0  0  0999 V2000
    1.1787   -8.0297    3.5154 C   0  0  0  0  0  0  0  0  0  0  0  0
    1.0491   -6.8434    2.9820 C   0  0  0  0  0  0  0  0  0  0  0  0
    0.9905   -9.0774    2.6527 C   0  0  0  0  0  0  0  0  0  0  0  0
    0.7897   -8.9519    1.3691 C   0  0  0  0  0  0  0  0  0  0  0  0
    0.7018   -7.7198    0.7892 C   0  0  0  0  0  0  0  0  0  0  0  0
    0.8918   -6.5957    1.6117 C   0  0  0  0  0  0  0  0  0  0  0  0
    1.0711  -10.4814    3.2282 C   0  0  0  0  0  0  0  0  0  0  0  0
   -0.1055  -11.1328    3.5223 C   0  0  0  0  0  0  0  0  0  0  0  0
   -0.1824  -12.4513    3.3816 C   0  0  0  0  0  0  0  0  0  0  0  0
    0.9472  -13.2655    3.1726 C   0  0  0  0  0  0  0  0  0  0  0  0
    2.1715  -12.6012    2.9116 C   0  0  0  0  0  0  0  0  0  0  0  0
    2.2064  -11.2741    2.8264 C   0  0  0  0  0  0  0  0  0  0  0  0
    0.8996  -14.6381    3.2447 C   0  0  0  0  0  0  0  0  0  0  0  0
    0.6196  -15.4231    2.2851 C   0  0  0  0  0  0  0  0  0  0  0  0
    0.6029  -16.8815    2.5378 C   0  0  0  0  0  0  0  0  0  0  0  0
    0.8442   -5.2759    1.1117 Cl  0  0  0  0  0  0  0  0  0  0  0  0
    1.7970  -17.4745    3.2007 C   0  0  0  0  0  0  0  0  0  0  0  0
    3.0677  -16.8483    2.9545 C   0  0  0  0  0  0  0  0  0  0  0  0
    3.0840  -15.7948    2.0627 N   0  0  0  0  0  0  0  0  0  0  0  0
  3  7  1  0
 10 13  1  0
 13 14  2  3
 14 15  1  0
  6 16  1  0
 15 17  1  0
 17 18  1  0
 18 19  1  0
  1  2  2  0
  2  6  1  0
  5  6  2  0
  4  5  1  0
  3  4  2  0
  1  3  1  0
  7  8  2  0
  8  9  1  0
  9 10  2  0
 10 11  1  0
 11 12  2  0
  7 12  1  0
M  END

$$$$
No_2353-/export/home/yangzhenyu/potential_scad_32_flow//YTHDC2/2024-12-06-03-22-00/
     RDKit          3D

 17 17  0  0  0  0  0  0  0  0999 V2000
    1.1787   -8.0297    3.5154 N   0  0  0  0  0  0  0  0  0  0  0  0
    0.8669   -7.0905    2.8589 C   0  0  0  0  0  0  0  0  0  0  0  0
    0.8842   -5.8387    3.2677 N   0  0  0  0  0  0  0  0  0  0  0  0
    0.7046   -7.3396    1.4853 C   0  0  0  0  0  0  0  0  0  0  0  0
    1.3141   -9.3038    3.0097 C   0  0  0  0  0  0  0  0  0  0  0  0
    1.1146   -9.5822    1.7111 N   0  0  0  0  0  0  0  0  0  0  0  0
    0.7838   -8.6314    0.9303 C   0  0  0  0  0  0  0  0  0  0  0  0
    1.7422  -10.5015    3.9535 C   0  0  0  0  0  0  0  0  0  0  0  0
    0.7784   -8.8174   -0.4454 C   0  0  0  0  0  0  0  0  0  0  0  0
   -0.5286   -8.9650   -0.9046 O   0  0  0  0  0  0  0  0  0  0  0  0
    1.6276   -8.5904   -1.2378 O   0  0  0  0  0  0  0  0  0  0  0  0
    0.9878  -11.7139    3.8733 C   0  0  0  0  0  0  0  0  0  0  0  0
    1.6311  -12.8872    3.6038 C   0  0  0  0  0  0  0  0  0  0  0  0
    1.0622  -13.5283    2.3859 C   0  0  0  0  0  0  0  0  0  0  0  0
    1.8276  -14.5340    1.8564 C   0  0  0  0  0  0  0  0  0  0  0  0
    1.4771  -15.6919    2.0586 N   0  0  0  0  0  0  0  0  0  0  0  0
    2.3577  -16.7489    1.8404 C   0  0  0  0  0  0  0  0  0  0  0  0
  2  3  1  0
  5  8  1  0
  7  9  1  0
  9 10  2  0
  9 11  1  0
  8 12  1  0
 12 13  1  0
 13 14  1  0
 14 15  1  0
 15 16  1  0
 16 17  1  0
  1  2  2  0
  2  4  1  0
  4  7  2  0
  6  7  1  0
  5  6  2  0
  1  5  1  0
M  END

$$$$
No_2354-/export/home/yangzhenyu/potential_scad_32_flow//YTHDC2/2024-12-06-03-22-00/
     RDKit          3D

 18 19  0  0  1  0  0  0  0  0999 V2000
    1.1787   -8.0297    3.5154 C   0  0  0  0  0  0  0  0  0  0  0  0
    1.0491   -6.8434    2.9820 C   0  0  0  0  0  0  0  0  0  0  0  0
    0.2462   -8.9560    3.0873 C   0  0  0  0  0  0  0  0  0  0  0  0
    0.3295   -6.5187    1.9069 C   0  0  0  0  0  0  0  0  0  0  0  0
    0.3283  -10.2725    3.7059 C   0  0  0  0  0  0  0  0  0  0  0  0
   -0.2128   -7.4890    1.3965 C   0  0  0  0  0  0  0  0  0  0  0  0
   -0.3625   -8.7284    1.8815 C   0  0  0  0  0  0  0  0  0  0  0  0
    1.2980  -10.9418    4.0494 N   0  0  0  0  0  0  0  0  0  0  0  0
   -1.0042  -10.6366    4.1335 C   0  0  2  0  0  0  0  0  0  0  0  0
    0.9407  -12.0973    4.5474 N   0  0  0  0  0  0  0  0  0  0  0  0
   -0.4690  -11.9925    4.4184 N   0  0  0  0  0  0  0  0  0  0  0  0
    0.5695   -5.2580    1.2279 O   0  0  0  0  0  0  0  0  0  0  0  0
    0.2327   -4.0934    1.9329 C   0  0  0  0  0  0  0  0  0  0  0  0
   -2.1578  -10.3965    3.9597 C   0  0  0  0  0  0  0  0  0  0  0  0
   -2.9973  -10.9848    3.1715 C   0  0  0  0  0  0  0  0  0  0  0  0
   -2.6572   -9.3321    4.8982 C   0  0  0  0  0  0  0  0  0  0  0  0
   -3.8851   -8.8870    4.7648 C   0  0  0  0  0  0  0  0  0  0  0  0
   -4.7030   -9.4165    3.8932 C   0  0  0  0  0  0  0  0  0  0  0  0
  3  5  1  0
  5  8  2  0
  5  9  1  0
  8 10  1  0
  9 11  1  0
 10 11  2  0
  4 12  1  0
 12 13  1  0
  9 14  1  6
 14 15  2  0
 14 16  1  0
 16 17  2  3
 17 18  1  0
  1  2  2  0
  2  4  1  0
  4  6  2  0
  6  7  1  0
  3  7  2  0
  1  3  1  0
M  END

$$$$
No_2355-/export/home/yangzhenyu/potential_scad_32_flow//YTHDC2/2024-12-06-03-22-00/
     RDKit          3D

 19 20  0  0  1  0  0  0  0  0999 V2000
    1.1787   -8.0297    3.5154 C   0  0  0  0  0  0  0  0  0  0  0  0
    1.1048   -9.2215    3.2892 C   0  0  0  0  0  0  0  0  0  0  0  0
    1.2339   -9.7611    2.0189 C   0  0  0  0  0  0  0  0  0  0  0  0
    1.1954  -11.2312    1.8661 C   0  0  0  0  0  0  0  0  0  0  0  0
    1.2996  -11.5815    0.5387 C   0  0  0  0  0  0  0  0  0  0  0  0
    0.9270   -7.0442    2.4967 C   0  0  0  0  0  0  0  0  0  0  0  0
    0.9803   -7.6034    1.0978 C   0  0  0  0  0  0  0  0  0  0  0  0
    1.1096   -8.9244    0.8670 C   0  0  0  0  0  0  0  0  0  0  0  0
    1.0761  -11.9547    2.9012 C   0  0  1  0  0  0  0  0  0  0  0  0
    1.0992  -13.3196    2.5936 Cl  0  0  0  0  0  0  0  0  0  0  0  0
    1.0179   -5.5965    2.6982 C   0  0  0  0  0  0  0  0  0  0  0  0
    1.1341  -11.5663    4.1524 C   0  0  0  0  0  0  0  0  0  0  0  0
    0.1451  -11.4225   -0.1358 N   0  0  0  0  0  0  0  0  0  0  0  0
    0.6515   -4.9091    1.6956 C   0  0  0  0  0  0  0  0  0  0  0  0
   -0.6159   -4.8666    1.3562 C   0  0  0  0  0  0  0  0  0  0  0  0
   -0.9605   -4.4412    0.0378 C   0  0  0  0  0  0  0  0  0  0  0  0
   -0.8714   -3.1597   -0.3097 C   0  0  0  0  0  0  0  0  0  0  0  0
   -0.1126   -2.4034    0.6003 C   0  0  0  0  0  0  0  0  0  0  0  0
    0.9479   -3.2513    1.4183 C   0  0  0  0  0  0  0  0  0  0  0  0
  3  4  1  0
  4  5  1  0
  4  9  1  0
  9 10  1  0
  6 11  1  0
  9 12  1  1
  5 13  1  0
 11 14  1  0
 14 15  1  0
 15 16  1  0
 16 17  1  0
 17 18  1  0
 14 19  1  0
 18 19  1  0
  1  2  2  0
  2  3  1  0
  3  8  2  0
  7  8  1  0
  6  7  2  0
  1  6  1  0
M  END

$$$$
No_2356-/export/home/yangzhenyu/potential_scad_32_flow//YTHDC2/2024-12-06-03-22-00/
     RDKit          3D

 17 17  0  0  1  0  0  0  0  0999 V2000
    1.1787   -8.0297    3.5154 C   0  0  0  0  0  0  0  0  0  0  0  0
    1.0491   -6.8434    2.9820 C   0  0  0  0  0  0  0  0  0  0  0  0
    0.9905   -9.0774    2.6527 C   0  0  1  0  0  0  0  0  0  0  0  0
    0.7897   -8.9519    1.3691 C   0  0  0  0  0  0  0  0  0  0  0  0
    0.7018   -7.7198    0.7892 C   0  0  0  0  0  0  0  0  0  0  0  0
    0.8918   -6.5957    1.6117 C   0  0  0  0  0  0  0  0  0  0  0  0
    1.0998  -10.4710    3.2437 C   0  0  0  0  0  0  0  0  0  0  0  0
    2.1917  -10.8879    3.7399 N   0  0  0  0  0  0  0  0  0  0  0  0
    0.8894   -5.2522    1.2117 O   0  0  0  0  0  0  0  0  0  0  0  0
    0.0698  -11.2440    3.3054 O   0  0  0  0  0  0  0  0  0  0  0  0
    0.6789  -10.0227    0.4126 C   0  0  0  0  0  0  0  0  0  0  0  0
    1.8050  -10.7287    0.1060 O   0  0  0  0  0  0  0  0  0  0  0  0
   -0.4442  -10.3735   -0.1214 O   0  0  0  0  0  0  0  0  0  0  0  0
    2.4201  -11.9943    4.5056 C   0  0  0  0  0  0  0  0  0  0  0  0
    2.8722  -12.9223    3.5685 C   0  0  0  0  0  0  0  0  0  0  0  0
    1.8471  -13.7301    2.7647 O   0  0  0  0  0  0  0  0  0  0  0  0
    2.1114  -14.9187    2.3148 C   0  0  0  0  0  0  0  0  0  0  0  0
  1  2  1  0
  3  4  1  0
  2  6  1  0
  5  6  1  0
  3  7  1  6
  7  8  1  0
  6  9  2  0
  7 10  2  0
  4 11  1  0
 11 12  2  0
 11 13  1  0
  8 14  1  0
 14 15  1  0
 15 16  1  0
 16 17  1  0
  1  3  1  0
  4  5  1  0
M  END

$$$$
No_2357-/export/home/yangzhenyu/potential_scad_32_flow//YTHDC2/2024-12-06-03-22-00/
     RDKit          3D

 18 18  0  0  1  0  0  0  0  0999 V2000
    1.1787   -8.0297    3.5154 N   0  0  0  0  0  0  0  0  0  0  0  0
    1.0818   -9.0751    3.2053 C   0  0  0  0  0  0  0  0  0  0  0  0
    0.7576   -9.3725    1.9159 C   0  0  0  0  0  0  0  0  0  0  0  0
    0.8823   -8.4917    1.0547 C   0  0  0  0  0  0  0  0  0  0  0  0
    1.4631   -7.3107    1.2451 C   0  0  0  0  0  0  0  0  0  0  0  0
    1.6470   -6.9326    2.5669 C   0  0  0  0  0  0  0  0  0  0  0  0
    0.8161  -10.1250    4.2446 C   0  0  2  0  0  0  0  0  0  0  0  0
    1.7171  -11.0988    4.2929 C   0  0  0  0  0  0  0  0  0  0  0  0
    2.8540  -10.9455    4.3634 N   0  0  0  0  0  0  0  0  0  0  0  0
    1.2243  -12.3946    3.9140 O   0  0  0  0  0  0  0  0  0  0  0  0
    0.8052   -8.8784   -0.6296 C   0  0  0  0  0  0  0  0  0  0  0  0
   -0.5456   -8.9565   -0.7399 O   0  0  0  0  0  0  0  0  0  0  0  0
    1.6495   -8.7818   -1.3474 O   0  0  0  0  0  0  0  0  0  0  0  0
   -0.6600  -10.3877    4.3962 C   0  0  0  0  0  0  0  0  0  0  0  0
   -1.5056   -9.4388    4.9659 C   0  0  0  0  0  0  0  0  0  0  0  0
   -2.8212   -9.6260    5.0530 C   0  0  0  0  0  0  0  0  0  0  0  0
   -3.3092  -10.7591    4.4546 C   0  0  0  0  0  0  0  0  0  0  0  0
   -2.6050  -11.7589    3.9639 C   0  0  0  0  0  0  0  0  0  0  0  0
  2  7  1  0
  7  8  1  0
  8  9  1  0
  8 10  2  0
  4 11  1  0
 11 12  2  0
 11 13  1  0
  7 14  1  6
 14 15  1  0
 15 16  2  3
 16 17  1  0
 17 18  2  0
  1  2  2  0
  2  3  1  0
  3  4  2  0
  4  5  1  0
  5  6  2  0
  1  6  1  0
M  END

$$$$
No_2358-/export/home/yangzhenyu/potential_scad_32_flow//YTHDC2/2024-12-06-03-22-00/
     RDKit          3D

 16 18  0  0  0  0  0  0  0  0999 V2000
    1.1787   -8.0297    3.5154 C   0  0  0  0  0  0  0  0  0  0  0  0
    1.0491   -6.8434    2.9820 C   0  0  0  0  0  0  0  0  0  0  0  0
    1.9985   -8.9840    2.8958 C   0  0  0  0  0  0  0  0  0  0  0  0
    1.9135  -10.3404    3.6266 C   0  0  0  0  0  0  0  0  0  0  0  0
    1.3291  -11.3908    3.0222 C   0  0  0  0  0  0  0  0  0  0  0  0
    1.2749  -12.5326    3.7562 C   0  0  0  0  0  0  0  0  0  0  0  0
    1.2373   -6.5190    1.7857 N   0  0  0  0  0  0  0  0  0  0  0  0
    0.9591   -5.1450    1.4579 N   0  0  0  0  0  0  0  0  0  0  0  0
    1.0980   -4.4686    2.6018 C   0  0  0  0  0  0  0  0  0  0  0  0
    1.1931   -5.5353    3.6531 N   0  0  0  0  0  0  0  0  0  0  0  0
    0.7234  -13.6853    3.1631 C   0  0  0  0  0  0  0  0  0  0  0  0
    0.4547  -13.6583    1.8525 C   0  0  0  0  0  0  0  0  0  0  0  0
    0.6706  -12.6392    1.0775 C   0  0  0  0  0  0  0  0  0  0  0  0
    1.1529  -11.4677    1.6165 C   0  0  0  0  0  0  0  0  0  0  0  0
    1.3469  -10.4203    0.7524 N   0  0  0  0  0  0  0  0  0  0  0  0
    1.6694   -9.1461    1.4515 C   0  0  0  0  0  0  0  0  0  0  0  0
  1  2  1  0
  1  3  1  0
  2  7  2  0
  7  8  1  0
  8  9  2  0
  2 10  1  0
  9 10  1  0
  3  4  2  0
  4  5  1  0
 14 15  1  0
 15 16  2  0
  3 16  1  0
  5  6  2  0
  6 11  1  0
 11 12  2  0
 12 13  1  0
 13 14  2  0
  5 14  1  0
M  END

$$$$
No_2359-/export/home/yangzhenyu/potential_scad_32_flow//YTHDC2/2024-12-06-03-22-00/
     RDKit          3D

 19 20  0  0  1  0  0  0  0  0999 V2000
    1.1787   -8.0297    3.5154 C   0  0  0  0  0  0  0  0  0  0  0  0
    1.0491   -6.8434    2.9820 C   0  0  0  0  0  0  0  0  0  0  0  0
    1.0690   -9.1150    2.7206 C   0  0  0  0  0  0  0  0  0  0  0  0
    0.9689   -6.6391    1.6260 C   0  0  0  0  0  0  0  0  0  0  0  0
    0.9670   -9.0334    1.3824 C   0  0  0  0  0  0  0  0  0  0  0  0
    0.8189   -7.7113    0.8022 C   0  0  0  0  0  0  0  0  0  0  0  0
    1.2122  -10.5176    3.2445 C   0  0  0  0  0  0  0  0  0  0  0  0
    1.4410  -11.5402    2.6236 C   0  0  0  0  0  0  0  0  0  0  0  0
    1.5422  -12.8118    3.2220 C   0  0  0  0  0  0  0  0  0  0  0  0
    1.6417  -14.0657    2.4455 C   0  0  0  0  0  0  0  0  0  0  0  0
    0.8343   -5.3651    1.0699 O   0  0  0  0  0  0  0  0  0  0  0  0
    1.0676  -14.4348    1.6749 C   0  0  1  0  0  0  0  0  0  0  0  0
    1.3034  -15.7269    1.0555 N   0  0  0  0  0  0  0  0  0  0  0  0
   -0.1853  -13.8453    1.2957 C   0  0  0  0  0  0  0  0  0  0  0  0
   -0.5763  -13.8208   -0.0363 C   0  0  0  0  0  0  0  0  0  0  0  0
   -0.0289  -14.6863   -0.8052 C   0  0  0  0  0  0  0  0  0  0  0  0
    0.9407  -15.7429   -0.2423 C   0  0  0  0  0  0  0  0  0  0  0  0
    1.2551  -16.7733   -0.9025 O   0  0  0  0  0  0  0  0  0  0  0  0
   -1.4782  -12.8837   -0.5659 C   0  0  0  0  0  0  0  0  0  0  0  0
  1  3  1  0
  2  4  1  0
  4  6  1  0
  5  6  1  0
  3  7  1  0
  7  8  2  3
  8  9  1  0
  9 10  1  0
  4 11  2  0
 12 13  1  0
 12 14  1  0
 14 15  1  0
 13 17  1  0
 16 17  1  0
 17 18  2  0
 15 19  1  0
 12 10  1  1
 15 16  1  0
  1  2  1  0
  3  5  1  0
M  END

$$$$
No_2360-/export/home/yangzhenyu/potential_scad_32_flow//YTHDC2/2024-12-06-03-22-00/
     RDKit          3D

 18 20  0  0  0  0  0  0  0  0999 V2000
    1.1787   -8.0297    3.5154 C   0  0  0  0  0  0  0  0  0  0  0  0
    1.0491   -6.8434    2.9820 C   0  0  0  0  0  0  0  0  0  0  0  0
    0.0950   -8.8404    3.2292 C   0  0  0  0  0  0  0  0  0  0  0  0
   -0.9173   -8.4596    2.5152 C   0  0  0  0  0  0  0  0  0  0  0  0
   -1.0331   -7.2162    2.0653 C   0  0  0  0  0  0  0  0  0  0  0  0
   -0.0105   -6.3168    2.3081 C   0  0  0  0  0  0  0  0  0  0  0  0
    0.1465  -10.2446    3.6981 C   0  0  0  0  0  0  0  0  0  0  0  0
   -1.0337  -10.8619    3.9439 C   0  0  0  0  0  0  0  0  0  0  0  0
   -2.1702  -10.4673    3.2991 C   0  0  0  0  0  0  0  0  0  0  0  0
   -2.1358   -9.2084    2.5791 C   0  0  0  0  0  0  0  0  0  0  0  0
   -3.2932  -11.2079    3.0734 C   0  0  0  0  0  0  0  0  0  0  0  0
   -0.0129   -4.7694    1.7346 Cl  0  0  0  0  0  0  0  0  0  0  0  0
   -3.0616  -12.5395    2.7594 C   0  0  0  0  0  0  0  0  0  0  0  0
   -4.1616  -13.4839    2.9682 C   0  0  0  0  0  0  0  0  0  0  0  0
   -5.3786  -13.0105    3.5541 C   0  0  0  0  0  0  0  0  0  0  0  0
   -5.5253  -11.7342    3.9940 C   0  0  0  0  0  0  0  0  0  0  0  0
   -4.4550  -10.8737    3.8422 C   0  0  0  0  0  0  0  0  0  0  0  0
   -6.4334  -14.0670    3.8439 O   0  0  0  0  0  0  0  0  0  0  0  0
  9 11  1  0
  6 12  1  0
 15 18  1  0
  4 10  2  0
  9 10  1  0
  8  9  2  0
  7  8  1  0
  3  7  2  0
  1  2  2  0
  2  6  1  0
  5  6  2  0
  4  5  1  0
  3  4  1  0
  1  3  1  0
 11 13  2  0
 13 14  1  0
 14 15  2  0
 15 16  1  0
 16 17  2  0
 11 17  1  0
M  END

$$$$
No_2361-/export/home/yangzhenyu/potential_scad_32_flow//YTHDC2/2024-12-06-03-22-00/
     RDKit          3D

 18 19  0  0  1  0  0  0  0  0999 V2000
    1.1787   -8.0297    3.5154 C   0  0  0  0  0  0  0  0  0  0  0  0
    1.0491   -6.8434    2.9820 C   0  0  0  0  0  0  0  0  0  0  0  0
    1.9985   -8.9840    2.8958 C   0  0  2  0  0  0  0  0  0  0  0  0
    1.7297   -9.2108    1.6335 C   0  0  0  0  0  0  0  0  0  0  0  0
    1.7343   -8.0566    0.8408 C   0  0  2  0  0  0  0  0  0  0  0  0
    1.0269   -6.8892    1.4456 C   0  0  0  0  0  0  0  0  0  0  0  0
    2.0740   -7.9416   -0.3682 C   0  0  0  0  0  0  0  0  0  0  0  0
    1.3156   -7.8710   -1.3006 C   0  0  0  0  0  0  0  0  0  0  0  0
    3.5138   -8.2319   -0.7079 O   0  0  0  0  0  0  0  0  0  0  0  0
    2.3875  -10.1881    3.6331 C   0  0  0  0  0  0  0  0  0  0  0  0
    1.6768  -11.0022    4.2065 C   0  0  0  0  0  0  0  0  0  0  0  0
    0.3904  -11.0882    3.8651 C   0  0  0  0  0  0  0  0  0  0  0  0
   -0.1789  -11.8963    3.0938 C   0  0  0  0  0  0  0  0  0  0  0  0
   -1.4711  -11.9330    2.7294 C   0  0  0  0  0  0  0  0  0  0  0  0
   -1.9728  -12.8841    2.0197 C   0  0  0  0  0  0  0  0  0  0  0  0
   -1.1785  -13.8376    1.4655 C   0  0  0  0  0  0  0  0  0  0  0  0
    0.2102  -13.7746    1.6114 C   0  0  0  0  0  0  0  0  0  0  0  0
    0.7651  -12.8302    2.4880 C   0  0  0  0  0  0  0  0  0  0  0  0
  1  2  1  0
  3  1  1  1
  3  4  1  0
  4  5  1  0
  2  6  1  0
  5  6  1  0
  5  7  1  6
  7  8  2  0
  7  9  1  0
  3 10  1  0
 10 11  2  3
 11 12  1  0
 12 13  1  0
 13 14  2  0
 14 15  1  0
 15 16  2  0
 16 17  1  0
 17 18  2  0
 13 18  1  0
M  END

$$$$
No_2362-/export/home/yangzhenyu/potential_scad_32_flow//YTHDC2/2024-12-06-03-22-00/
     RDKit          3D

 17 18  0  0  0  0  0  0  0  0999 V2000
    1.1787   -8.0297    3.5154 C   0  0  0  0  0  0  0  0  0  0  0  0
    1.1048   -9.2215    3.2892 C   0  0  0  0  0  0  0  0  0  0  0  0
    1.2339   -9.7611    2.0189 C   0  0  0  0  0  0  0  0  0  0  0  0
    1.3583   -9.0036    0.9764 C   0  0  0  0  0  0  0  0  0  0  0  0
    1.5996   -7.6362    1.1311 C   0  0  0  0  0  0  0  0  0  0  0  0
    1.4830   -7.0928    2.3626 C   0  0  0  0  0  0  0  0  0  0  0  0
    1.1008  -11.2372    1.8542 C   0  0  0  0  0  0  0  0  0  0  0  0
    0.4812  -11.6084    0.6459 C   0  0  0  0  0  0  0  0  0  0  0  0
    0.5208  -13.0348    0.4686 C   0  0  0  0  0  0  0  0  0  0  0  0
    0.5947  -13.9263    1.4485 C   0  0  0  0  0  0  0  0  0  0  0  0
    1.1692  -13.4494    2.6703 C   0  0  0  0  0  0  0  0  0  0  0  0
    1.3275  -12.0748    2.9317 C   0  0  0  0  0  0  0  0  0  0  0  0
    1.5496   -5.4820    2.7349 Cl  0  0  0  0  0  0  0  0  0  0  0  0
    0.5327  -15.4834    1.3544 C   0  0  0  0  0  0  0  0  0  0  0  0
   -0.4218  -15.9196    0.6350 C   0  0  0  0  0  0  0  0  0  0  0  0
   -0.4679  -17.2429    0.6197 C   0  0  0  0  0  0  0  0  0  0  0  0
    0.3056  -18.0738    1.4218 C   0  0  0  0  0  0  0  0  0  0  0  0
  3  7  1  0
  6 13  1  0
 10 14  1  0
 14 15  1  0
 15 16  2  3
 16 17  1  0
  1  2  2  0
  2  3  1  0
  3  4  2  0
  4  5  1  0
  5  6  2  0
  1  6  1  0
  7  8  2  0
  8  9  1  0
  9 10  2  0
 10 11  1  0
 11 12  2  0
  7 12  1  0
M  END

$$$$
No_2363-/export/home/yangzhenyu/potential_scad_32_flow//YTHDC2/2024-12-06-03-22-00/
     RDKit          3D

 18 20  0  0  1  0  0  0  0  0999 V2000
    1.1787   -8.0297    3.5154 C   0  0  0  0  0  0  0  0  0  0  0  0
    1.1048   -9.2215    3.2892 C   0  0  0  0  0  0  0  0  0  0  0  0
    1.2339   -9.7611    2.0189 C   0  0  0  0  0  0  0  0  0  0  0  0
    1.3583   -9.0036    0.9764 C   0  0  0  0  0  0  0  0  0  0  0  0
    1.5996   -7.6362    1.1311 C   0  0  0  0  0  0  0  0  0  0  0  0
    1.4830   -7.0928    2.3626 C   0  0  0  0  0  0  0  0  0  0  0  0
    1.1171  -11.3311    1.8661 C   0  0  1  0  0  0  0  0  0  0  0  0
    0.5022  -11.6388    0.6531 C   0  0  0  0  0  0  0  0  0  0  0  0
   -0.5299  -12.4202    0.9357 C   0  0  0  0  0  0  0  0  0  0  0  0
   -1.7102  -12.0305    0.6125 C   0  0  0  0  0  0  0  0  0  0  0  0
   -2.7659  -12.2782    1.4559 C   0  0  0  0  0  0  0  0  0  0  0  0
   -2.6878  -13.2872    2.4000 C   0  0  0  0  0  0  0  0  0  0  0  0
   -1.4411  -13.8643    2.6757 C   0  0  0  0  0  0  0  0  0  0  0  0
   -0.3351  -13.4888    1.9476 C   0  0  0  0  0  0  0  0  0  0  0  0
    1.5501   -5.6611    2.6653 Cl  0  0  0  0  0  0  0  0  0  0  0  0
    0.9093  -14.0766    2.0882 C   0  0  0  0  0  0  0  0  0  0  0  0
    1.9948  -13.2622    2.7799 C   0  0  0  0  0  0  0  0  0  0  0  0
    2.2483  -11.9843    2.3505 C   0  0  0  0  0  0  0  0  0  0  0  0
  7  3  1  6
  7  8  1  0
  8  9  1  0
  6 15  1  0
 14 16  1  0
 16 17  1  0
  7 18  1  0
 17 18  1  0
  1  2  2  0
  2  3  1  0
  3  4  2  0
  4  5  1  0
  5  6  2  0
  1  6  1  0
  9 10  2  0
 10 11  1  0
 11 12  2  0
 12 13  1  0
 13 14  2  0
  9 14  1  0
M  END

$$$$
No_2364-/export/home/yangzhenyu/potential_scad_32_flow//YTHDC2/2024-12-06-03-22-00/
     RDKit          3D

 19 21  0  0  1  0  0  0  0  0999 V2000
    1.1787   -8.0297    3.5154 C   0  0  0  0  0  0  0  0  0  0  0  0
    1.1048   -9.2215    3.2892 C   0  0  0  0  0  0  0  0  0  0  0  0
    1.3627  -10.1721    4.3044 C   0  0  0  0  0  0  0  0  0  0  0  0
    1.7354  -11.4730    3.9023 C   0  0  0  0  0  0  0  0  0  0  0  0
    1.8080  -11.8127    2.7216 C   0  0  0  0  0  0  0  0  0  0  0  0
    1.5854  -11.0021    1.7249 C   0  0  0  0  0  0  0  0  0  0  0  0
    1.3573   -9.7389    1.9287 C   0  0  0  0  0  0  0  0  0  0  0  0
    1.2865   -8.8078    0.9161 C   0  0  0  0  0  0  0  0  0  0  0  0
    0.9210   -7.5140    1.1674 C   0  0  0  0  0  0  0  0  0  0  0  0
    1.0097   -7.0192    2.4369 C   0  0  0  0  0  0  0  0  0  0  0  0
    2.0228  -13.2586    2.4222 C   0  0  0  0  0  0  0  0  0  0  0  0
    1.1773  -14.0575    1.7714 C   0  0  0  0  0  0  0  0  0  0  0  0
   -0.0345  -13.7850    1.6540 C   0  0  2  0  0  0  0  0  0  0  0  0
   -0.5451  -13.3316    0.5845 C   0  0  0  0  0  0  0  0  0  0  0  0
   -1.6598  -13.0992    0.4692 N   0  0  0  0  0  0  0  0  0  0  0  0
   -2.2902  -13.2537    1.6501 C   0  0  0  0  0  0  0  0  0  0  0  0
   -1.1585  -13.6949    2.4559 C   0  0  0  0  0  0  0  0  0  0  0  0
    0.8538   -5.6078    2.6970 C   0  0  0  0  0  0  0  0  0  0  0  0
    1.7965   -4.9318    3.2502 C   0  0  0  0  0  0  0  0  0  0  0  0
  5 11  1  0
 11 12  1  0
 13 12  1  1
 13 14  1  0
 14 15  2  0
 15 16  1  0
 13 17  1  0
 16 17  1  0
 10 18  1  0
 18 19  1  0
  1  2  2  0
  7  8  2  0
  8  9  1  0
  9 10  2  0
  1 10  1  0
  2  3  1  0
  3  4  2  0
  4  5  1  0
  5  6  2  0
  6  7  1  0
  2  7  1  0
M  END

$$$$
No_2365-/export/home/yangzhenyu/potential_scad_32_flow//YTHDC2/2024-12-06-03-22-00/
     RDKit          3D

 19 20  0  0  0  0  0  0  0  0999 V2000
    1.1787   -8.0297    3.5154 C   0  0  0  0  0  0  0  0  0  0  0  0
    1.0491   -6.8434    2.9820 C   0  0  0  0  0  0  0  0  0  0  0  0
    0.9905   -9.0774    2.6527 C   0  0  0  0  0  0  0  0  0  0  0  0
    0.7897   -8.9519    1.3691 C   0  0  0  0  0  0  0  0  0  0  0  0
    0.7018   -7.7198    0.7892 C   0  0  0  0  0  0  0  0  0  0  0  0
    0.8918   -6.5957    1.6117 C   0  0  0  0  0  0  0  0  0  0  0  0
    1.0600  -10.5680    3.3321 C   0  0  0  0  0  0  0  0  0  0  0  0
   -0.1041  -11.1772    3.5150 C   0  0  0  0  0  0  0  0  0  0  0  0
   -0.1608  -12.4876    3.3268 C   0  0  0  0  0  0  0  0  0  0  0  0
    0.9865  -13.2841    3.1741 C   0  0  0  0  0  0  0  0  0  0  0  0
    2.2316  -12.5817    3.0045 C   0  0  0  0  0  0  0  0  0  0  0  0
    2.2290  -11.2587    2.9229 C   0  0  0  0  0  0  0  0  0  0  0  0
    0.9909  -14.8111    3.2120 O   0  0  0  0  0  0  0  0  0  0  0  0
    0.8568   -5.2744    1.1199 C   0  0  0  0  0  0  0  0  0  0  0  0
    1.9498  -15.3809    2.5925 C   0  0  0  0  0  0  0  0  0  0  0  0
   -0.2389   -4.7855    0.6937 F   0  0  0  0  0  0  0  0  0  0  0  0
    1.7121   -4.5156    1.3266 F   0  0  0  0  0  0  0  0  0  0  0  0
    1.8366  -16.8053    2.9054 C   0  0  0  0  0  0  0  0  0  0  0  0
    2.9303  -17.5946    2.4401 C   0  0  0  0  0  0  0  0  0  0  0  0
  3  7  1  0
 10 13  1  0
  6 14  1  0
 13 15  1  0
 14 16  1  0
 14 17  1  0
 15 18  1  0
 18 19  1  0
  1  2  2  0
  2  6  1  0
  5  6  2  0
  4  5  1  0
  3  4  2  0
  1  3  1  0
  7  8  2  0
  8  9  1  0
  9 10  2  0
 10 11  1  0
 11 12  2  0
  7 12  1  0
M  END

$$$$
No_2366-/export/home/yangzhenyu/potential_scad_32_flow//YTHDC2/2024-12-06-03-22-00/
     RDKit          3D

 20 20  0  0  1  0  0  0  0  0999 V2000
    1.1787   -8.0297    3.5154 C   0  0  0  0  0  0  0  0  0  0  0  0
    1.0491   -6.8434    2.9820 C   0  0  0  0  0  0  0  0  0  0  0  0
    0.0950   -8.8404    3.2292 C   0  0  0  0  0  0  0  0  0  0  0  0
   -0.9173   -8.4596    2.5152 C   0  0  0  0  0  0  0  0  0  0  0  0
   -1.0331   -7.2162    2.0653 C   0  0  0  0  0  0  0  0  0  0  0  0
   -0.0105   -6.3168    2.3081 C   0  0  0  0  0  0  0  0  0  0  0  0
    0.0485   -4.9783    1.8782 C   0  0  2  0  0  0  0  0  0  0  0  0
   -0.6974   -4.6139    0.8644 C   0  0  0  0  0  0  0  0  0  0  0  0
   -0.9552   -3.3006    0.6322 O   0  0  0  0  0  0  0  0  0  0  0  0
   -1.4027   -5.3442    0.1338 O   0  0  0  0  0  0  0  0  0  0  0  0
    0.2168  -10.2679    3.7044 C   0  0  0  0  0  0  0  0  0  0  0  0
    0.2529  -11.3270    2.9500 C   0  0  0  0  0  0  0  0  0  0  0  0
    1.2150  -11.8151    2.7075 C   0  0  0  0  0  0  0  0  0  0  0  0
    2.5933  -11.1607    3.1619 C   0  0  0  0  0  0  0  0  0  0  0  0
    1.4613  -13.1694    2.0202 N   0  0  0  0  0  0  0  0  0  0  0  0
    0.8847  -13.3864    0.9593 C   0  0  0  0  0  0  0  0  0  0  0  0
    1.0532   -4.1361    2.2283 C   0  0  0  0  0  0  0  0  0  0  0  0
    0.7412  -14.6118    0.5634 C   0  0  0  0  0  0  0  0  0  0  0  0
    0.0021  -15.2631    0.8448 C   0  0  0  0  0  0  0  0  0  0  0  0
   -1.2009  -14.9154    1.3651 N   0  0  0  0  0  0  0  0  0  0  0  0
  6  7  1  0
  7  8  1  0
  8  9  2  0
  8 10  1  0
  3 11  1  0
 11 12  1  0
 12 13  2  3
 13 14  1  0
 13 15  1  0
 15 16  1  0
  7 17  1  6
 16 18  1  0
 18 19  1  0
 19 20  1  0
  1  2  2  0
  2  6  1  0
  5  6  2  0
  4  5  1  0
  3  4  2  0
  1  3  1  0
M  END

$$$$
No_2367-/export/home/yangzhenyu/potential_scad_32_flow//YTHDC2/2024-12-06-03-22-00/
     RDKit          3D

 18 19  0  0  1  0  0  0  0  0999 V2000
    1.1787   -8.0297    3.5154 C   0  0  0  0  0  0  0  0  0  0  0  0
    1.0491   -6.8434    2.9820 C   0  0  0  0  0  0  0  0  0  0  0  0
    1.9985   -8.9840    2.8958 C   0  0  0  0  0  0  0  0  0  0  0  0
    1.1814  -10.1889    2.5497 C   0  0  0  0  0  0  0  0  0  0  0  0
    0.3496  -10.1352    1.6537 C   0  0  0  0  0  0  0  0  0  0  0  0
    0.2726  -10.8443    0.9221 C   0  0  0  0  0  0  0  0  0  0  0  0
    0.8884  -12.2473    1.0851 C   0  0  0  0  0  0  0  0  0  0  0  0
    1.9321  -12.4155    1.9755 C   0  0  0  0  0  0  0  0  0  0  0  0
    2.0858  -11.2296    2.8823 C   0  0  0  0  0  0  0  0  0  0  0  0
    0.2681   -6.5509    1.8745 N   0  0  0  0  0  0  0  0  0  0  0  0
   -0.9646   -6.3603    2.1912 C   0  0  2  0  0  0  0  0  0  0  0  0
   -1.6770   -7.1442    2.7772 C   0  0  0  0  0  0  0  0  0  0  0  0
   -2.5593   -6.9021    3.7205 C   0  0  0  0  0  0  0  0  0  0  0  0
   -3.1360   -8.0247    4.6261 C   0  0  0  0  0  0  0  0  0  0  0  0
   -2.9081   -9.2956    4.2751 C   0  0  0  0  0  0  0  0  0  0  0  0
   -2.0168   -9.6501    3.2755 C   0  0  0  0  0  0  0  0  0  0  0  0
   -1.4142   -8.7445    2.4712 C   0  0  0  0  0  0  0  0  0  0  0  0
   -1.5569   -5.2238    1.7234 C   0  0  0  0  0  0  0  0  0  0  0  0
  1  2  1  0
  1  3  1  0
  3  4  1  0
  2 10  1  0
 10 11  1  0
 11 12  1  0
 11 18  1  6
 12 13  2  0
 13 14  1  0
 14 15  2  0
 15 16  1  0
 16 17  2  0
 12 17  1  0
  4  5  2  0
  5  6  1  0
  6  7  2  0
  7  8  1  0
  8  9  2  0
  4  9  1  0
M  END

$$$$
No_2368-/export/home/yangzhenyu/potential_scad_32_flow//YTHDC2/2024-12-06-03-22-00/
     RDKit          3D

 19 19  0  0  1  0  0  0  0  0999 V2000
    1.1787   -8.0297    3.5154 C   0  0  0  0  0  0  0  0  0  0  0  0
    1.0491   -6.8434    2.9820 C   0  0  0  0  0  0  0  0  0  0  0  0
    1.9985   -8.9840    2.8958 C   0  0  0  0  0  0  0  0  0  0  0  0
    1.9135  -10.3404    3.6266 C   0  0  0  0  0  0  0  0  0  0  0  0
    0.7479  -10.9191    3.7202 C   0  0  0  0  0  0  0  0  0  0  0  0
    0.2782   -6.7158    1.8352 C   0  0  1  0  0  0  0  0  0  0  0  0
    0.1051   -7.5857    1.1024 C   0  0  0  0  0  0  0  0  0  0  0  0
    0.2716  -11.5576    2.5838 C   0  0  0  0  0  0  0  0  0  0  0  0
    1.1388  -12.1628    1.7297 C   0  0  0  0  0  0  0  0  0  0  0  0
    0.7796  -12.1614    0.5638 C   0  0  0  0  0  0  0  0  0  0  0  0
   -0.3885  -12.0539    0.0820 C   0  0  0  0  0  0  0  0  0  0  0  0
   -1.3395  -11.5440    0.9412 C   0  0  0  0  0  0  0  0  0  0  0  0
   -0.9709  -11.2387    2.2990 C   0  0  0  0  0  0  0  0  0  0  0  0
   -0.8954   -5.8500    2.2889 C   0  0  0  0  0  0  0  0  0  0  0  0
   -1.8729  -10.8295    3.2695 C   0  0  0  0  0  0  0  0  0  0  0  0
   -1.8272   -9.7526    4.0871 O   0  0  0  0  0  0  0  0  0  0  0  0
   -3.0652  -11.4033    3.4879 O   0  0  0  0  0  0  0  0  0  0  0  0
   -0.6995   -4.4760    2.3606 C   0  0  0  0  0  0  0  0  0  0  0  0
   -0.9107   -3.7672    3.4983 C   0  0  0  0  0  0  0  0  0  0  0  0
  1  2  1  0
  1  3  1  0
  3  4  1  0
  4  5  1  0
  2  6  1  0
  6  7  1  1
  5  8  1  0
  6 14  1  0
 13 15  1  0
 15 16  1  0
 15 17  2  0
 14 18  1  0
 18 19  1  0
  8  9  2  0
  9 10  1  0
 10 11  2  0
 11 12  1  0
 12 13  2  0
  8 13  1  0
M  END

$$$$
No_2369-/export/home/yangzhenyu/potential_scad_32_flow//YTHDC2/2024-12-06-03-22-00/
     RDKit          3D

 18 19  0  0  1  0  0  0  0  0999 V2000
    1.1787   -8.0297    3.5154 C   0  0  0  0  0  0  0  0  0  0  0  0
    1.1048   -9.2215    3.2892 C   0  0  0  0  0  0  0  0  0  0  0  0
    1.2339   -9.7611    2.0189 C   0  0  1  0  0  0  0  0  0  0  0  0
    1.1954  -11.2312    1.8661 C   0  0  0  0  0  0  0  0  0  0  0  0
    1.2996  -11.5815    0.5387 C   0  0  0  0  0  0  0  0  0  0  0  0
    0.9270   -7.0442    2.4967 C   0  0  2  0  0  0  0  0  0  0  0  0
    0.9803   -7.6034    1.0978 C   0  0  0  0  0  0  0  0  0  0  0  0
    1.1096   -8.9244    0.8670 N   0  0  0  0  0  0  0  0  0  0  0  0
    1.0711  -11.9729    2.8765 C   0  0  0  0  0  0  0  0  0  0  0  0
    1.1275  -13.3840    2.5279 C   0  0  0  0  0  0  0  0  0  0  0  0
    1.1818  -13.9053    1.3812 C   0  0  0  0  0  0  0  0  0  0  0  0
    1.3265  -12.9969    0.3203 C   0  0  0  0  0  0  0  0  0  0  0  0
    0.9971   -5.6093    2.5937 C   0  0  0  0  0  0  0  0  0  0  0  0
    1.3809  -15.1483    1.0667 C   0  0  0  0  0  0  0  0  0  0  0  0
    2.0909  -15.9781    1.9184 O   0  0  0  0  0  0  0  0  0  0  0  0
    0.8585  -15.8920    0.2938 O   0  0  0  0  0  0  0  0  0  0  0  0
    0.9370   -6.8720    0.1086 O   0  0  0  0  0  0  0  0  0  0  0  0
   -0.0221   -4.8939    1.9953 O   0  0  0  0  0  0  0  0  0  0  0  0
  1  2  1  0
  3  4  1  6
  6  7  1  0
  3  8  1  0
  7  8  1  0
  6 13  1  6
 11 14  1  0
 14 15  1  0
 14 16  2  0
  7 17  2  0
 13 18  2  0
  1  6  1  0
  2  3  1  0
  4  5  2  0
  5 12  1  0
 11 12  2  0
 10 11  1  0
  9 10  2  0
  4  9  1  0
M  END

$$$$
No_2370-/export/home/yangzhenyu/potential_scad_32_flow//YTHDC2/2024-12-06-03-22-00/
     RDKit          3D

 17 18  0  0  1  0  0  0  0  0999 V2000
    1.1787   -8.0297    3.5154 C   0  0  0  0  0  0  0  0  0  0  0  0
    1.0491   -6.8434    2.9820 C   0  0  0  0  0  0  0  0  0  0  0  0
    0.0950   -8.8404    3.2292 C   0  0  0  0  0  0  0  0  0  0  0  0
   -0.9173   -8.4596    2.5152 C   0  0  0  0  0  0  0  0  0  0  0  0
   -1.0331   -7.2162    2.0653 C   0  0  0  0  0  0  0  0  0  0  0  0
   -0.0105   -6.3168    2.3081 C   0  0  0  0  0  0  0  0  0  0  0  0
    0.1465  -10.2446    3.6981 C   0  0  0  0  0  0  0  0  0  0  0  0
    1.2433  -10.8239    4.0166 C   0  0  0  0  0  0  0  0  0  0  0  0
    1.0790  -12.2885    4.3779 N   0  0  0  0  0  0  0  0  0  0  0  0
    0.0124  -12.7573    3.8993 N   0  0  0  0  0  0  0  0  0  0  0  0
   -0.7249  -11.3850    3.5010 C   0  0  1  0  0  0  0  0  0  0  0  0
   -0.0720   -5.0181    1.8395 Cl  0  0  0  0  0  0  0  0  0  0  0  0
    2.7052  -10.4357    4.2786 N   0  0  0  0  0  0  0  0  0  0  0  0
   -1.9785  -11.3177    3.1939 C   0  0  0  0  0  0  0  0  0  0  0  0
   -3.0195  -11.0922    4.1934 O   0  0  0  0  0  0  0  0  0  0  0  0
   -2.4447  -11.6701    2.0752 O   0  0  0  0  0  0  0  0  0  0  0  0
   -2.1729   -6.8009    1.3491 O   0  0  0  0  0  0  0  0  0  0  0  0
  3  7  1  0
  7  8  2  0
  8  9  1  0
  9 10  2  0
  7 11  1  0
 10 11  1  0
  6 12  1  0
  8 13  1  0
 11 14  1  1
 14 15  1  0
 14 16  2  0
  5 17  1  0
  1  2  2  0
  2  6  1  0
  5  6  2  0
  4  5  1  0
  3  4  2  0
  1  3  1  0
M  END

$$$$
No_2371-/export/home/yangzhenyu/potential_scad_32_flow//YTHDC2/2024-12-06-03-22-00/
     RDKit          3D

 21 22  0  0  1  0  0  0  0  0999 V2000
    1.1787   -8.0297    3.5154 C   0  0  0  0  0  0  0  0  0  0  0  0
    1.0491   -6.8434    2.9820 C   0  0  0  0  0  0  0  0  0  0  0  0
    1.9985   -8.9840    2.8958 C   0  0  0  0  0  0  0  0  0  0  0  0
    1.9135  -10.3404    3.6266 C   0  0  0  0  0  0  0  0  0  0  0  0
    0.7479  -10.9191    3.7202 C   0  0  0  0  0  0  0  0  0  0  0  0
    0.2782   -6.7158    1.8352 O   0  0  0  0  0  0  0  0  0  0  0  0
    0.1775  -11.3923    2.5529 C   0  0  1  0  0  0  0  0  0  0  0  0
    1.0210  -12.1426    1.6966 C   0  0  2  0  0  0  0  0  0  0  0  0
    1.6978   -5.7383    3.2377 Cl  0  0  0  0  0  0  0  0  0  0  0  0
    1.8554  -12.9526    2.0631 C   0  0  0  0  0  0  0  0  0  0  0  0
    1.3852  -13.9415    2.9694 C   0  0  0  0  0  0  0  0  0  0  0  0
    0.1061  -14.2863    2.9105 C   0  0  0  0  0  0  0  0  0  0  0  0
   -0.0853  -15.7148    3.0578 C   0  0  0  0  0  0  0  0  0  0  0  0
   -1.3663  -16.1453    3.0318 C   0  0  0  0  0  0  0  0  0  0  0  0
   -2.2603  -15.0194    3.0136 C   0  0  0  0  0  0  0  0  0  0  0  0
   -2.1219  -13.8016    2.8938 C   0  0  0  0  0  0  0  0  0  0  0  0
   -0.8636  -13.3261    2.8709 C   0  0  0  0  0  0  0  0  0  0  0  0
   -0.7720  -12.0841    2.7665 N   0  0  0  0  0  0  0  0  0  0  0  0
    1.1575  -11.4245    0.4317 C   0  0  0  0  0  0  0  0  0  0  0  0
    0.0630  -11.3736   -0.3719 O   0  0  0  0  0  0  0  0  0  0  0  0
    2.1048  -10.6859   -0.0157 O   0  0  0  0  0  0  0  0  0  0  0  0
  1  2  1  0
  1  3  1  0
  3  4  1  0
  4  5  1  0
  2  6  2  0
  7  5  1  1
  7  8  1  0
  2  9  1  0
  8 10  1  0
 10 11  1  0
 11 12  1  0
  7 18  1  0
 17 18  1  0
  8 19  1  1
 19 20  2  0
 19 21  1  0
 12 13  2  0
 13 14  1  0
 14 15  2  0
 15 16  1  0
 16 17  2  0
 12 17  1  0
M  END

$$$$
No_2372-/export/home/yangzhenyu/potential_scad_32_flow//YTHDC2/2024-12-06-03-22-00/
     RDKit          3D

 18 19  0  0  1  0  0  0  0  0999 V2000
    1.1787   -8.0297    3.5154 C   0  0  0  0  0  0  0  0  0  0  0  0
    1.0491   -6.8434    2.9820 C   0  0  0  0  0  0  0  0  0  0  0  0
    0.9905   -9.0774    2.6527 C   0  0  0  0  0  0  0  0  0  0  0  0
    0.7897   -8.9519    1.3691 C   0  0  0  0  0  0  0  0  0  0  0  0
    0.7018   -7.7198    0.7892 C   0  0  0  0  0  0  0  0  0  0  0  0
    0.8918   -6.5957    1.6117 C   0  0  0  0  0  0  0  0  0  0  0  0
    1.0998  -10.4710    3.2437 C   0  0  1  0  0  0  0  0  0  0  0  0
    0.0472  -11.2546    3.3963 C   0  0  0  0  0  0  0  0  0  0  0  0
   -1.1989  -10.6161    3.7011 C   0  0  0  0  0  0  0  0  0  0  0  0
    0.8603   -5.2612    1.2139 C   0  0  0  0  0  0  0  0  0  0  0  0
   -2.3157  -10.8626    3.0665 C   0  0  0  0  0  0  0  0  0  0  0  0
   -2.3993  -12.0333    2.3634 C   0  0  0  0  0  0  0  0  0  0  0  0
   -1.2367  -12.7728    2.1357 C   0  0  0  0  0  0  0  0  0  0  0  0
    0.0102  -12.3594    2.5659 C   0  0  0  0  0  0  0  0  0  0  0  0
    2.3910  -10.8239    3.5246 C   0  0  0  0  0  0  0  0  0  0  0  0
   -0.2308   -4.7572    0.7444 N   0  0  0  0  0  0  0  0  0  0  0  0
   -0.2727   -3.4968    0.2810 S   0  0  0  0  0  0  0  0  0  0  0  0
    0.9541   -2.8410    0.4183 O   0  0  0  0  0  0  0  0  0  0  0  0
  3  7  1  0
  7  8  1  0
  6 10  1  0
  7 15  1  6
 10 16  1  0
 16 17  1  0
 17 18  2  0
  1  2  2  0
  2  6  1  0
  5  6  2  0
  4  5  1  0
  3  4  2  0
  1  3  1  0
  8  9  2  0
  9 11  1  0
 11 12  2  0
 12 13  1  0
 13 14  2  0
  8 14  1  0
M  END

$$$$
No_2373-/export/home/yangzhenyu/potential_scad_32_flow//YTHDC2/2024-12-06-03-22-00/
     RDKit          3D

 18 18  0  0  1  0  0  0  0  0999 V2000
    1.1787   -8.0297    3.5154 C   0  0  0  0  0  0  0  0  0  0  0  0
    1.1048   -9.2215    3.2892 C   0  0  0  0  0  0  0  0  0  0  0  0
    1.2339   -9.7611    2.0189 C   0  0  0  0  0  0  0  0  0  0  0  0
    1.3583   -9.0036    0.9764 C   0  0  0  0  0  0  0  0  0  0  0  0
    1.5996   -7.6362    1.1311 C   0  0  0  0  0  0  0  0  0  0  0  0
    1.4830   -7.0928    2.3626 C   0  0  0  0  0  0  0  0  0  0  0  0
    1.5395   -5.7300    2.6182 C   0  0  0  0  0  0  0  0  0  0  0  0
    1.1775  -11.2233    1.8407 C   0  0  1  0  0  0  0  0  0  0  0  0
    0.7252  -11.5870    0.5412 N   0  0  0  0  0  0  0  0  0  0  0  0
    1.6030  -12.0513    2.6420 C   0  0  0  0  0  0  0  0  0  0  0  0
    0.9715  -13.0282    3.0180 C   0  0  0  0  0  0  0  0  0  0  0  0
   -0.3626  -12.9678    2.9942 C   0  0  0  0  0  0  0  0  0  0  0  0
   -1.0215  -11.8177    3.2142 C   0  0  0  0  0  0  0  0  0  0  0  0
    1.6882  -14.1863    3.4152 O   0  0  0  0  0  0  0  0  0  0  0  0
   -1.0644  -11.0515    4.3019 C   0  0  0  0  0  0  0  0  0  0  0  0
   -1.8375   -9.9122    4.5746 C   0  0  0  0  0  0  0  0  0  0  0  0
   -2.8866   -9.8035    3.7499 C   0  0  0  0  0  0  0  0  0  0  0  0
   -3.0513  -10.4938    2.6905 C   0  0  0  0  0  0  0  0  0  0  0  0
  6  7  1  0
  3  8  1  0
  8  9  1  6
  8 10  1  0
 10 11  1  0
 11 12  1  0
 12 13  1  0
 11 14  2  0
 13 15  2  3
 15 16  1  0
 16 17  2  3
 17 18  1  0
  1  2  2  0
  2  3  1  0
  3  4  2  0
  4  5  1  0
  5  6  2  0
  1  6  1  0
M  END

$$$$
No_2374-/export/home/yangzhenyu/potential_scad_32_flow//YTHDC2/2024-12-06-03-22-00/
     RDKit          3D

 19 21  0  0  0  0  0  0  0  0999 V2000
    1.1787   -8.0297    3.5154 C   0  0  0  0  0  0  0  0  0  0  0  0
    1.1048   -9.2215    3.2892 C   0  0  0  0  0  0  0  0  0  0  0  0
    1.2339   -9.7611    2.0189 C   0  0  0  0  0  0  0  0  0  0  0  0
    1.1954  -11.2312    1.8661 C   0  0  0  0  0  0  0  0  0  0  0  0
    1.5546  -12.1691    2.7931 C   0  0  0  0  0  0  0  0  0  0  0  0
    0.5849   -7.0929    2.5729 C   0  0  0  0  0  0  0  0  0  0  0  0
    0.5567   -7.6699    1.1955 C   0  0  0  0  0  0  0  0  0  0  0  0
    0.7903   -8.9699    0.9209 C   0  0  0  0  0  0  0  0  0  0  0  0
    1.5479  -13.4950    2.3569 C   0  0  0  0  0  0  0  0  0  0  0  0
    1.2456  -13.9001    1.1648 C   0  0  0  0  0  0  0  0  0  0  0  0
    1.0233  -13.0589    0.1983 C   0  0  0  0  0  0  0  0  0  0  0  0
    0.9548  -11.6626    0.4956 C   0  0  0  0  0  0  0  0  0  0  0  0
    0.6143   -5.6362    2.6298 Cl  0  0  0  0  0  0  0  0  0  0  0  0
    1.9607  -14.4073    3.4089 Cl  0  0  0  0  0  0  0  0  0  0  0  0
    0.5946   -9.4000   -0.3367 C   0  0  0  0  0  0  0  0  0  0  0  0
    0.6366  -10.8101   -0.5096 C   0  0  0  0  0  0  0  0  0  0  0  0
    0.3000   -8.5930   -1.2797 O   0  0  0  0  0  0  0  0  0  0  0  0
    1.5525  -10.1277    4.3602 O   0  0  0  0  0  0  0  0  0  0  0  0
    1.3362  -15.3944    0.7517 O   0  0  0  0  0  0  0  0  0  0  0  0
  3  4  1  0
  6 13  1  0
  9 14  1  0
  8 15  1  0
 12 16  1  0
 15 16  1  0
 15 17  2  0
  2 18  1  0
 10 19  1  0
  1  2  2  0
  2  3  1  0
  3  8  2  0
  7  8  1  0
  6  7  2  0
  1  6  1  0
  4  5  2  0
  5  9  1  0
  9 10  2  0
 10 11  1  0
 11 12  2  0
  4 12  1  0
M  END

$$$$
No_2375-/export/home/yangzhenyu/potential_scad_32_flow//YTHDC2/2024-12-06-03-22-00/
     RDKit          3D

 19 20  0  0  0  0  0  0  0  0999 V2000
    1.1787   -8.0297    3.5154 O   0  0  0  0  0  0  0  0  0  0  0  0
    0.9969   -8.9689    3.0048 C   0  0  0  0  0  0  0  0  0  0  0  0
    1.3055  -10.1056    3.6616 C   0  0  0  0  0  0  0  0  0  0  0  0
    1.1249  -11.3503    3.0941 C   0  0  0  0  0  0  0  0  0  0  0  0
    0.6932  -11.4484    1.8586 C   0  0  0  0  0  0  0  0  0  0  0  0
    0.5498  -10.3736    1.0579 C   0  0  0  0  0  0  0  0  0  0  0  0
    0.7643   -9.1185    1.6383 C   0  0  0  0  0  0  0  0  0  0  0  0
    0.5937   -7.8467    1.0482 C   0  0  0  0  0  0  0  0  0  0  0  0
    1.5294   -7.0230    1.0749 O   0  0  0  0  0  0  0  0  0  0  0  0
   -0.4082   -7.5594    0.2791 O   0  0  0  0  0  0  0  0  0  0  0  0
    1.1857  -12.6455    3.8343 O   0  0  0  0  0  0  0  0  0  0  0  0
    0.4844  -12.6998    1.1060 C   0  0  0  0  0  0  0  0  0  0  0  0
    1.6450  -13.6350    1.0704 C   0  0  0  0  0  0  0  0  0  0  0  0
    1.4576  -14.9697    0.8641 C   0  0  0  0  0  0  0  0  0  0  0  0
    0.2832  -15.3463    0.5217 C   0  0  0  0  0  0  0  0  0  0  0  0
   -0.7831  -14.5553    0.3231 C   0  0  0  0  0  0  0  0  0  0  0  0
   -0.5898  -13.2048    0.6190 C   0  0  0  0  0  0  0  0  0  0  0  0
   -1.7330  -12.3732    0.4749 C   0  0  0  0  0  0  0  0  0  0  0  0
   -2.6658  -12.2478    1.3782 N   0  0  0  0  0  0  0  0  0  0  0  0
  1  2  1  0
  7  8  1  0
  8  9  1  0
  8 10  2  0
  4 11  1  0
  5 12  1  0
 17 18  1  0
 18 19  1  0
 12 13  2  0
 13 14  1  0
 14 15  2  0
 15 16  1  0
 16 17  2  0
 12 17  1  0
  2  3  2  0
  3  4  1  0
  4  5  2  0
  5  6  1  0
  6  7  2  0
  2  7  1  0
M  END

$$$$
No_2376-/export/home/yangzhenyu/potential_scad_32_flow//YTHDC2/2024-12-06-03-22-00/
     RDKit          3D

 18 19  0  0  0  0  0  0  0  0999 V2000
    1.1787   -8.0297    3.5154 C   0  0  0  0  0  0  0  0  0  0  0  0
    1.0491   -6.8434    2.9820 C   0  0  0  0  0  0  0  0  0  0  0  0
    0.0950   -8.8404    3.2292 C   0  0  0  0  0  0  0  0  0  0  0  0
   -0.9173   -8.4596    2.5152 C   0  0  0  0  0  0  0  0  0  0  0  0
   -1.0331   -7.2162    2.0653 C   0  0  0  0  0  0  0  0  0  0  0  0
   -0.0105   -6.3168    2.3081 C   0  0  0  0  0  0  0  0  0  0  0  0
    0.1465  -10.2446    3.6981 C   0  0  0  0  0  0  0  0  0  0  0  0
    0.1907  -11.3369    2.8651 C   0  0  0  0  0  0  0  0  0  0  0  0
    1.0128  -11.8996    2.5974 C   0  0  0  0  0  0  0  0  0  0  0  0
    1.2328  -13.0891    1.8129 C   0  0  0  0  0  0  0  0  0  0  0  0
    0.1831  -13.5436    1.2817 C   0  0  0  0  0  0  0  0  0  0  0  0
   -0.9583  -12.9140    1.3153 C   0  0  0  0  0  0  0  0  0  0  0  0
   -1.0325  -11.7940    2.1538 C   0  0  0  0  0  0  0  0  0  0  0  0
    0.0035   -4.9705    1.8871 C   0  0  0  0  0  0  0  0  0  0  0  0
   -0.5730   -4.6758    0.7467 C   0  0  0  0  0  0  0  0  0  0  0  0
   -0.6747   -3.3070    0.3857 C   0  0  0  0  0  0  0  0  0  0  0  0
    0.0624   -2.3736    1.0673 C   0  0  0  0  0  0  0  0  0  0  0  0
    0.9187   -2.6762    2.0407 C   0  0  0  0  0  0  0  0  0  0  0  0
  3  7  1  0
  7  8  1  0
  6 14  1  0
 14 15  1  0
 15 16  2  3
 16 17  1  0
 17 18  2  0
  1  2  2  0
  2  6  1  0
  5  6  2  0
  4  5  1  0
  3  4  2  0
  1  3  1  0
  8  9  2  0
  9 10  1  0
 10 11  2  0
 11 12  1  0
 12 13  2  0
  8 13  1  0
M  END

$$$$
No_2377-/export/home/yangzhenyu/potential_scad_32_flow//YTHDC2/2024-12-06-03-22-00/
     RDKit          3D

 20 21  0  0  1  0  0  0  0  0999 V2000
    1.1787   -8.0297    3.5154 N   0  0  0  0  0  0  0  0  0  0  0  0
    0.8669   -7.0905    2.8589 C   0  0  1  0  0  0  0  0  0  0  0  0
    0.8842   -5.8387    3.2677 C   0  0  0  0  0  0  0  0  0  0  0  0
    1.2042   -9.3413    3.1417 C   0  0  1  0  0  0  0  0  0  0  0  0
    1.6209  -10.3792    4.1701 C   0  0  0  0  0  0  0  0  0  0  0  0
    0.7979   -9.8390    1.9462 C   0  0  1  0  0  0  0  0  0  0  0  0
    0.5093   -8.8751    1.0109 C   0  0  0  0  0  0  0  0  0  0  0  0
    0.5789   -7.4536    1.3990 C   0  0  0  0  0  0  0  0  0  0  0  0
    0.9650  -11.0969    1.5561 C   0  0  0  0  0  0  0  0  0  0  0  0
    2.1495  -11.6056    1.2745 C   0  0  0  0  0  0  0  0  0  0  0  0
    0.1801   -6.6297    0.5598 O   0  0  0  0  0  0  0  0  0  0  0  0
    2.2075  -13.0935    1.1993 O   0  0  0  0  0  0  0  0  0  0  0  0
    0.1865   -9.0804   -0.2829 C   0  0  0  0  0  0  0  0  0  0  0  0
   -1.1137   -9.6155   -0.5389 O   0  0  0  0  0  0  0  0  0  0  0  0
    1.0147   -8.9905   -1.3062 O   0  0  0  0  0  0  0  0  0  0  0  0
   -0.1783   -5.0362    3.2707 C   0  0  0  0  0  0  0  0  0  0  0  0
    2.2306   -5.0229    3.5373 C   0  0  0  0  0  0  0  0  0  0  0  0
   -0.1594   -3.6944    3.6120 C   0  0  0  0  0  0  0  0  0  0  0  0
    1.0230   -3.0590    3.7980 C   0  0  0  0  0  0  0  0  0  0  0  0
    2.2179   -3.7417    3.7576 C   0  0  0  0  0  0  0  0  0  0  0  0
  1  2  1  0
  2  3  1  6
  4  5  1  1
  4  6  1  0
  6  7  1  0
  2  8  1  0
  7  8  1  0
  6  9  1  6
  9 10  1  0
  8 11  2  0
 10 12  1  0
  7 13  1  0
 13 14  2  0
 13 15  1  0
  1  4  1  0
  3 16  2  0
 16 18  1  0
 18 19  2  0
 19 20  1  0
 17 20  2  0
  3 17  1  0
M  END

$$$$
No_2378-/export/home/yangzhenyu/potential_scad_32_flow//YTHDC2/2024-12-06-03-22-00/
     RDKit          3D

 12 12  0  0  1  0  0  0  0  0999 V2000
    1.1787   -8.0297    3.5154 F   0  0  0  0  0  0  0  0  0  0  0  0
    0.5277   -7.9922    2.7193 C   0  0  2  0  0  0  0  0  0  0  0  0
    0.3243   -6.6787    2.2086 C   0  0  0  0  0  0  0  0  0  0  0  0
    1.3682   -5.7831    2.1041 C   0  0  0  0  0  0  0  0  0  0  0  0
   -0.6644   -8.7534    3.1000 C   0  0  0  0  0  0  0  0  0  0  0  0
    1.0972   -4.5686    1.4388 C   0  0  0  0  0  0  0  0  0  0  0  0
   -0.6735  -10.0038    3.5244 C   0  0  0  0  0  0  0  0  0  0  0  0
   -1.8679  -10.6509    3.9117 C   0  0  0  0  0  0  0  0  0  0  0  0
    1.3881   -3.3429    2.0508 C   0  0  0  0  0  0  0  0  0  0  0  0
   -3.0374   -9.9290    3.7997 C   0  0  0  0  0  0  0  0  0  0  0  0
   -3.0743   -8.6657    3.3795 C   0  0  0  0  0  0  0  0  0  0  0  0
   -1.9070   -8.0343    3.0190 C   0  0  0  0  0  0  0  0  0  0  0  0
  2  1  1  1
  2  3  1  0
  3  4  1  0
  2  5  1  0
  4  6  1  0
  6  9  1  0
  5  7  2  0
  7  8  1  0
  8 10  2  0
 10 11  1  0
 11 12  2  0
  5 12  1  0
M  END

$$$$
No_2379-/export/home/yangzhenyu/potential_scad_32_flow//YTHDC2/2024-12-06-03-22-00/
     RDKit          3D

 20 20  0  0  1  0  0  0  0  0999 V2000
    1.1787   -8.0297    3.5154 N   0  0  0  0  0  0  0  0  0  0  0  0
    0.8669   -7.0905    2.8589 C   0  0  0  0  0  0  0  0  0  0  0  0
    1.0447   -7.3244    1.4123 C   0  0  0  0  0  0  0  0  0  0  0  0
    1.3746   -8.4389    1.0864 C   0  0  0  0  0  0  0  0  0  0  0  0
    1.8493   -9.4093    1.8124 C   0  0  0  0  0  0  0  0  0  0  0  0
    1.7421   -9.2119    3.1541 C   0  0  0  0  0  0  0  0  0  0  0  0
    2.0083  -10.3048    4.0591 C   0  0  0  0  0  0  0  0  0  0  0  0
    1.2724  -11.3673    4.2581 C   0  0  0  0  0  0  0  0  0  0  0  0
   -0.0762  -11.1540    3.9870 C   0  0  0  0  0  0  0  0  0  0  0  0
   -0.8181  -11.8734    3.1294 C   0  0  2  0  0  0  0  0  0  0  0  0
   -0.1746  -12.9652    2.5291 C   0  0  0  0  0  0  0  0  0  0  0  0
   -1.8245  -11.1924    2.4768 C   0  0  0  0  0  0  0  0  0  0  0  0
    1.5522   -8.6576   -0.4010 C   0  0  0  0  0  0  0  0  0  0  0  0
    0.4980   -8.3074   -1.1441 O   0  0  0  0  0  0  0  0  0  0  0  0
    2.4242   -9.2970   -0.9852 O   0  0  0  0  0  0  0  0  0  0  0  0
   -0.4593  -13.3175    1.4770 O   0  0  0  0  0  0  0  0  0  0  0  0
    0.8259  -13.7510    3.1409 C   0  0  0  0  0  0  0  0  0  0  0  0
    1.5620  -14.6231    2.5917 C   0  0  0  0  0  0  0  0  0  0  0  0
    2.8064  -14.2596    1.9310 C   0  0  0  0  0  0  0  0  0  0  0  0
    1.4207  -15.9780    2.7176 C   0  0  0  0  0  0  0  0  0  0  0  0
  6  7  1  0
  7  8  1  0
  8  9  1  0
  9 10  1  0
 10 11  1  0
 10 12  1  6
  4 13  1  0
 13 14  2  0
 13 15  1  0
 11 16  2  0
 11 17  1  0
 17 18  1  0
 18 19  1  0
 18 20  1  0
  1  2  2  0
  2  3  1  0
  3  4  2  0
  4  5  1  0
  5  6  2  0
  1  6  1  0
M  END

$$$$
No_2380-/export/home/yangzhenyu/potential_scad_32_flow//YTHDC2/2024-12-06-03-22-00/
     RDKit          3D

 19 20  0  0  1  0  0  0  0  0999 V2000
    1.1787   -8.0297    3.5154 C   0  0  0  0  0  0  0  0  0  0  0  0
    1.0491   -6.8434    2.9820 C   0  0  0  0  0  0  0  0  0  0  0  0
    1.9985   -8.9840    2.8958 C   0  0  0  0  0  0  0  0  0  0  0  0
    1.9135  -10.3404    3.6266 C   0  0  0  0  0  0  0  0  0  0  0  0
    1.3291  -11.3908    3.0222 C   0  0  0  0  0  0  0  0  0  0  0  0
    1.0344  -11.3281    1.7959 C   0  0  0  0  0  0  0  0  0  0  0  0
    0.5050   -6.6553    1.7492 C   0  0  2  0  0  0  0  0  0  0  0  0
    0.4773  -12.4299    1.1902 C   0  0  0  0  0  0  0  0  0  0  0  0
   -0.0875  -12.4927   -0.0340 C   0  0  0  0  0  0  0  0  0  0  0  0
    0.8560   -7.4234    0.8367 Cl  0  0  0  0  0  0  0  0  0  0  0  0
   -0.5357  -13.7595   -0.4733 C   0  0  0  0  0  0  0  0  0  0  0  0
   -0.2836  -14.9094    0.1479 C   0  0  0  0  0  0  0  0  0  0  0  0
    0.3999  -14.9629    1.2726 C   0  0  0  0  0  0  0  0  0  0  0  0
    0.8344  -13.7834    1.9258 C   0  0  0  0  0  0  0  0  0  0  0  0
    1.4191  -13.5978    3.1762 C   0  0  0  0  0  0  0  0  0  0  0  0
    1.6542  -12.6635    3.6239 C   0  0  0  0  0  0  0  0  0  0  0  0
   -0.0843   -5.3618    1.5510 C   0  0  0  0  0  0  0  0  0  0  0  0
   -1.2870   -5.2973    0.9291 O   0  0  0  0  0  0  0  0  0  0  0  0
    0.5286   -4.1695    1.8177 O   0  0  0  0  0  0  0  0  0  0  0  0
  1  2  1  0
  1  3  1  0
  3  4  1  0
  4  5  1  0
  2  7  1  0
  7 10  1  6
  7 17  1  0
 17 18  1  0
 17 19  2  0
  8  9  2  0
  9 11  1  0
 11 12  2  0
 12 13  1  0
 13 14  2  0
  5  6  2  0
  6  8  1  0
  8 14  1  0
 14 15  1  0
 15 16  2  0
  5 16  1  0
M  END

$$$$
No_2381-/export/home/yangzhenyu/potential_scad_32_flow//YTHDC2/2024-12-06-03-22-00/
     RDKit          3D

 18 20  0  0  0  0  0  0  0  0999 V2000
    1.1787   -8.0297    3.5154 C   0  0  0  0  0  0  0  0  0  0  0  0
    1.1048   -9.2215    3.2892 C   0  0  0  0  0  0  0  0  0  0  0  0
    1.3627  -10.1721    4.3044 C   0  0  0  0  0  0  0  0  0  0  0  0
    1.7354  -11.4730    3.9023 C   0  0  0  0  0  0  0  0  0  0  0  0
    1.8080  -11.8127    2.7216 C   0  0  0  0  0  0  0  0  0  0  0  0
    1.5854  -11.0021    1.7249 C   0  0  0  0  0  0  0  0  0  0  0  0
    1.3573   -9.7389    1.9287 C   0  0  0  0  0  0  0  0  0  0  0  0
    1.1102   -8.8712    0.9017 C   0  0  0  0  0  0  0  0  0  0  0  0
    0.5299   -7.6926    1.0325 C   0  0  0  0  0  0  0  0  0  0  0  0
    0.7526   -7.0802    2.3301 C   0  0  0  0  0  0  0  0  0  0  0  0
    2.1027  -13.4660    2.3958 O   0  0  0  0  0  0  0  0  0  0  0  0
    0.4794   -5.6414    2.5040 C   0  0  0  0  0  0  0  0  0  0  0  0
    0.9000   -4.8392    1.5680 C   0  0  0  0  0  0  0  0  0  0  0  0
   -0.0799   -4.3378    0.6693 C   0  0  0  0  0  0  0  0  0  0  0  0
    0.0084   -3.0088    0.2731 C   0  0  0  0  0  0  0  0  0  0  0  0
    1.1709   -2.2608    0.6094 C   0  0  0  0  0  0  0  0  0  0  0  0
    2.0960   -2.6790    1.4805 C   0  0  0  0  0  0  0  0  0  0  0  0
    1.9917   -3.9096    1.9751 C   0  0  0  0  0  0  0  0  0  0  0  0
  5 11  1  0
 10 12  1  0
 12 13  1  0
  1  2  2  0
  7  8  2  0
  8  9  1  0
  9 10  2  0
  1 10  1  0
  2  3  1  0
  3  4  2  0
  4  5  1  0
  5  6  2  0
  6  7  1  0
  2  7  1  0
 13 14  2  0
 14 15  1  0
 15 16  2  0
 16 17  1  0
 17 18  2  0
 13 18  1  0
M  END

$$$$
No_2382-/export/home/yangzhenyu/potential_scad_32_flow//YTHDC2/2024-12-06-03-22-00/
     RDKit          3D

 18 19  0  0  0  0  0  0  0  0999 V2000
    1.1787   -8.0297    3.5154 C   0  0  0  0  0  0  0  0  0  0  0  0
    1.1048   -9.2215    3.2892 C   0  0  0  0  0  0  0  0  0  0  0  0
    1.3627  -10.1721    4.3044 C   0  0  0  0  0  0  0  0  0  0  0  0
    1.7354  -11.4730    3.9023 C   0  0  0  0  0  0  0  0  0  0  0  0
    1.8080  -11.8127    2.7216 C   0  0  0  0  0  0  0  0  0  0  0  0
    1.5854  -11.0021    1.7249 C   0  0  0  0  0  0  0  0  0  0  0  0
    1.3573   -9.7389    1.9287 C   0  0  0  0  0  0  0  0  0  0  0  0
    1.1102   -8.8712    0.9017 C   0  0  0  0  0  0  0  0  0  0  0  0
    1.5724   -9.1697   -0.3048 O   0  0  0  0  0  0  0  0  0  0  0  0
    0.5064   -7.6844    0.9896 N   0  0  0  0  0  0  0  0  0  0  0  0
    1.2204   -6.8307    2.8551 C   0  0  0  0  0  0  0  0  0  0  0  0
    0.7765   -6.6808    1.5662 C   0  0  0  0  0  0  0  0  0  0  0  0
    0.4155   -5.4279    1.1310 O   0  0  0  0  0  0  0  0  0  0  0  0
    2.0552  -13.2372    2.3701 N   0  0  0  0  0  0  0  0  0  0  0  0
    1.7915  -14.3066    3.0454 C   0  0  0  0  0  0  0  0  0  0  0  0
    2.1234  -15.5379    2.4681 C   0  0  0  0  0  0  0  0  0  0  0  0
    3.1801  -15.6260    1.6111 O   0  0  0  0  0  0  0  0  0  0  0  0
    1.5610  -16.6334    2.9153 O   0  0  0  0  0  0  0  0  0  0  0  0
  1  2  1  0
  7  8  1  0
  8  9  2  0
  8 10  1  0
  1 11  2  0
 10 12  1  0
 11 12  1  0
 12 13  2  0
  5 14  1  0
 14 15  1  0
 15 16  1  0
 16 17  2  0
 16 18  1  0
  2  3  2  0
  3  4  1  0
  4  5  2  0
  5  6  1  0
  6  7  2  0
  2  7  1  0
M  END

$$$$
No_2383-/export/home/yangzhenyu/potential_scad_32_flow//YTHDC2/2024-12-06-03-22-00/
     RDKit          3D

 18 18  0  0  1  0  0  0  0  0999 V2000
    1.1787   -8.0297    3.5154 C   0  0  0  0  0  0  0  0  0  0  0  0
    1.0491   -6.8434    2.9820 C   0  0  0  0  0  0  0  0  0  0  0  0
    1.9985   -8.9840    2.8958 C   0  0  0  0  0  0  0  0  0  0  0  0
    1.1815  -10.1889    2.5497 C   0  0  2  0  0  0  0  0  0  0  0  0
    0.9817  -11.1388    2.8134 C   0  0  0  0  0  0  0  0  0  0  0  0
    1.6854  -11.5768    4.1035 O   0  0  0  0  0  0  0  0  0  0  0  0
    0.5909  -12.3130    2.3104 N   0  0  0  0  0  0  0  0  0  0  0  0
    0.1913   -6.6936    1.9010 C   0  0  0  0  0  0  0  0  0  0  0  0
    0.6480   -6.0143    0.8066 C   0  0  0  0  0  0  0  0  0  0  0  0
    0.6493  -13.6524    2.9402 C   0  0  0  0  0  0  0  0  0  0  0  0
    1.6053  -14.5994    2.4480 C   0  0  2  0  0  0  0  0  0  0  0  0
    1.6890   -5.3079    1.0688 C   0  0  0  0  0  0  0  0  0  0  0  0
    2.0019   -5.7180    2.6351 C   0  0  0  0  0  0  0  0  0  0  0  0
    2.5744  -14.0312    1.6400 C   0  0  0  0  0  0  0  0  0  0  0  0
    0.9960  -15.8021    1.8963 C   0  0  0  0  0  0  0  0  0  0  0  0
    1.5370  -16.9711    2.0357 Cl  0  0  0  0  0  0  0  0  0  0  0  0
    0.4576  -15.5171    0.4468 O   0  0  0  0  0  0  0  0  0  0  0  0
    0.7835   -9.9485    1.0866 C   0  0  0  0  0  0  0  0  0  0  0  0
  1  2  1  0
  1  3  1  0
  3  4  1  0
  4  5  1  0
  5  6  2  0
  5  7  1  0
  2  8  1  0
  8  9  1  0
  7 10  1  0
 10 11  1  0
  9 12  1  0
  2 13  1  0
 12 13  1  0
 11 14  1  6
 11 15  1  0
 15 16  1  0
 15 17  2  0
  4 18  1  6
M  END

$$$$
No_2384-/export/home/yangzhenyu/potential_scad_32_flow//YTHDC2/2024-12-06-03-22-00/
     RDKit          3D

 20 21  0  0  0  0  0  0  0  0999 V2000
    1.1787   -8.0297    3.5154 C   0  0  0  0  0  0  0  0  0  0  0  0
    1.1048   -9.2215    3.2892 C   0  0  0  0  0  0  0  0  0  0  0  0
    1.2339   -9.7611    2.0189 C   0  0  0  0  0  0  0  0  0  0  0  0
    1.3583   -9.0036    0.9764 C   0  0  0  0  0  0  0  0  0  0  0  0
    1.5996   -7.6362    1.1311 C   0  0  0  0  0  0  0  0  0  0  0  0
    1.4830   -7.0928    2.3626 C   0  0  0  0  0  0  0  0  0  0  0  0
    1.4898   -5.7274    2.6199 C   0  0  0  0  0  0  0  0  0  0  0  0
    1.1681  -11.2222    1.8390 C   0  0  0  0  0  0  0  0  0  0  0  0
    0.5014  -11.9760    2.2068 C   0  0  0  0  0  0  0  0  0  0  0  0
    0.4167  -13.3685    2.0527 C   0  0  0  0  0  0  0  0  0  0  0  0
    1.5984  -14.1574    2.4634 C   0  0  0  0  0  0  0  0  0  0  0  0
    1.8283  -15.3606    2.3190 C   0  0  0  0  0  0  0  0  0  0  0  0
    0.9181  -16.1655    1.7275 C   0  0  0  0  0  0  0  0  0  0  0  0
   -0.2543  -15.6194    1.3332 C   0  0  0  0  0  0  0  0  0  0  0  0
   -0.4812  -14.2719    1.4803 C   0  0  0  0  0  0  0  0  0  0  0  0
    1.2514   -4.8473    1.6234 O   0  0  0  0  0  0  0  0  0  0  0  0
    1.4803   -5.1573    3.8859 O   0  0  0  0  0  0  0  0  0  0  0  0
   -1.7452  -13.7762    1.1926 C   0  0  0  0  0  0  0  0  0  0  0  0
   -2.2656  -12.7522    1.5850 N   0  0  0  0  0  0  0  0  0  0  0  0
   -1.7619  -12.1359    2.2067 H   0  0  0  0  0  0  0  0  0  0  0  0
  6  7  1  0
  3  8  1  0
  8  9  2  3
  9 10  1  0
  7 16  2  0
  7 17  1  0
 15 18  1  0
 18 19  2  0
  1  2  2  0
  2  3  1  0
  3  4  2  0
  4  5  1  0
  5  6  2  0
  1  6  1  0
 10 11  2  0
 11 12  1  0
 12 13  2  0
 13 14  1  0
 14 15  2  0
 10 15  1  0
 19 20  1  0
M  END

$$$$
No_2385-/export/home/yangzhenyu/potential_scad_32_flow//YTHDC2/2024-12-06-03-22-00/
     RDKit          3D

 18 18  0  0  1  0  0  0  0  0999 V2000
    1.1787   -8.0297    3.5154 C   0  0  0  0  0  0  0  0  0  0  0  0
    1.1048   -9.2215    3.2892 C   0  0  0  0  0  0  0  0  0  0  0  0
    1.2339   -9.7611    2.0189 C   0  0  0  0  0  0  0  0  0  0  0  0
    1.3583   -9.0036    0.9764 C   0  0  0  0  0  0  0  0  0  0  0  0
    1.5996   -7.6362    1.1311 C   0  0  0  0  0  0  0  0  0  0  0  0
    1.4830   -7.0928    2.3626 C   0  0  0  0  0  0  0  0  0  0  0  0
    1.4898   -5.7274    2.6199 C   0  0  0  0  0  0  0  0  0  0  0  0
    1.1681  -11.2222    1.8390 C   0  0  1  0  0  0  0  0  0  0  0  0
    0.7145  -11.5870    0.5424 C   0  0  0  0  0  0  0  0  0  0  0  0
   -0.1922  -10.9837   -0.0791 O   0  0  0  0  0  0  0  0  0  0  0  0
    1.1977  -12.7506    0.1097 O   0  0  0  0  0  0  0  0  0  0  0  0
    1.6816   -5.1770    3.8597 O   0  0  0  0  0  0  0  0  0  0  0  0
    1.6813   -4.8446    1.6088 O   0  0  0  0  0  0  0  0  0  0  0  0
    1.6600  -12.0323    2.6975 C   0  0  0  0  0  0  0  0  0  0  0  0
    0.7952  -12.8653    3.4252 C   0  0  0  0  0  0  0  0  0  0  0  0
    1.1777  -14.3224    3.2592 C   0  0  0  0  0  0  0  0  0  0  0  0
    0.2563  -15.3451    3.3678 C   0  0  0  0  0  0  0  0  0  0  0  0
   -0.9569  -15.1545    2.8391 C   0  0  0  0  0  0  0  0  0  0  0  0
  6  7  1  0
  3  8  1  0
  8  9  1  0
  9 10  2  0
  9 11  1  0
  7 12  1  0
  7 13  2  0
  8 14  1  6
 14 15  1  0
 15 16  1  0
 16 17  1  0
 17 18  1  0
  1  2  2  0
  2  3  1  0
  3  4  2  0
  4  5  1  0
  5  6  2  0
  1  6  1  0
M  END

$$$$
No_2386-/export/home/yangzhenyu/potential_scad_32_flow//YTHDC2/2024-12-06-03-22-00/
     RDKit          3D

 19 20  0  0  1  0  0  0  0  0999 V2000
    1.1787   -8.0297    3.5154 C   0  0  0  0  0  0  0  0  0  0  0  0
    1.1048   -9.2215    3.2892 C   0  0  0  0  0  0  0  0  0  0  0  0
    1.2339   -9.7611    2.0189 C   0  0  0  0  0  0  0  0  0  0  0  0
    1.3583   -9.0036    0.9764 C   0  0  0  0  0  0  0  0  0  0  0  0
    1.5996   -7.6362    1.1311 C   0  0  0  0  0  0  0  0  0  0  0  0
    1.4830   -7.0928    2.3626 C   0  0  0  0  0  0  0  0  0  0  0  0
    1.4898   -5.7274    2.6199 C   0  0  0  0  0  0  0  0  0  0  0  0
    1.1681  -11.2222    1.8390 C   0  0  2  0  0  0  0  0  0  0  0  0
    1.9047  -12.1147    2.3357 N   0  0  0  0  0  0  0  0  0  0  0  0
    1.6918  -13.4296    2.1335 C   0  0  1  0  0  0  0  0  0  0  0  0
    1.3106  -13.8785    1.0076 C   0  0  0  0  0  0  0  0  0  0  0  0
    0.6379  -12.9622    0.1546 N   0  0  0  0  0  0  0  0  0  0  0  0
    0.5761  -11.6434    0.5401 C   0  0  0  0  0  0  0  0  0  0  0  0
    2.2949  -14.3223    2.9975 C   0  0  0  0  0  0  0  0  0  0  0  0
   -0.1211  -10.8462   -0.1495 O   0  0  0  0  0  0  0  0  0  0  0  0
    1.2700   -4.8719    1.5942 C   0  0  0  0  0  0  0  0  0  0  0  0
    1.1708   -3.3997    1.8483 C   0  0  0  0  0  0  0  0  0  0  0  0
    1.8905  -15.7338    2.7718 O   0  0  0  0  0  0  0  0  0  0  0  0
    0.6372   -2.5381    1.0894 C   0  0  0  0  0  0  0  0  0  0  0  0
  6  7  1  0
  8  3  1  6
  8  9  1  0
  9 10  1  0
 10 11  1  0
 11 12  1  0
  8 13  1  0
 12 13  1  0
 10 14  1  6
 13 15  2  0
  7 16  2  3
 16 17  1  0
 14 18  1  0
 17 19  2  0
  1  2  2  0
  2  3  1  0
  3  4  2  0
  4  5  1  0
  5  6  2  0
  1  6  1  0
M  END

$$$$
No_2387-/export/home/yangzhenyu/potential_scad_32_flow//YTHDC2/2024-12-06-03-22-00/
     RDKit          3D

 17 18  0  0  0  0  0  0  0  0999 V2000
    1.1787   -8.0297    3.5154 C   0  0  0  0  0  0  0  0  0  0  0  0
    1.0491   -6.8434    2.9820 C   0  0  0  0  0  0  0  0  0  0  0  0
    0.9905   -9.0774    2.6527 C   0  0  0  0  0  0  0  0  0  0  0  0
    0.7897   -8.9519    1.3691 C   0  0  0  0  0  0  0  0  0  0  0  0
    0.7018   -7.7198    0.7892 C   0  0  0  0  0  0  0  0  0  0  0  0
    0.8918   -6.5957    1.6117 C   0  0  0  0  0  0  0  0  0  0  0  0
    1.0998  -10.4710    3.2437 C   0  0  0  0  0  0  0  0  0  0  0  0
    2.1917  -10.8879    3.7399 C   0  0  0  0  0  0  0  0  0  0  0  0
    0.8983   -5.2566    1.2088 O   0  0  0  0  0  0  0  0  0  0  0  0
   -0.0200  -11.2248    3.3627 C   0  0  0  0  0  0  0  0  0  0  0  0
   -0.0780  -12.5021    3.1735 C   0  0  0  0  0  0  0  0  0  0  0  0
    1.2166  -13.1278    2.9672 C   0  0  0  0  0  0  0  0  0  0  0  0
    2.4119  -12.2526    3.3954 C   0  0  0  0  0  0  0  0  0  0  0  0
    1.3718  -14.4841    3.1347 C   0  0  0  0  0  0  0  0  0  0  0  0
    0.2910  -15.2476    2.9198 C   0  0  0  0  0  0  0  0  0  0  0  0
    0.4186  -16.6015    2.9507 C   0  0  0  0  0  0  0  0  0  0  0  0
   -0.2200  -17.3932    3.7713 C   0  0  0  0  0  0  0  0  0  0  0  0
  1  2  1  0
  3  4  1  0
  2  6  1  0
  5  6  1  0
  3  7  1  0
  6  9  2  0
 12 14  1  0
 14 15  2  3
 15 16  1  0
 16 17  2  0
  1  3  1  0
  4  5  1  0
  7  8  2  0
  8 13  1  0
 12 13  2  0
 11 12  1  0
 10 11  2  0
  7 10  1  0
M  END

$$$$
No_2388-/export/home/yangzhenyu/potential_scad_32_flow//YTHDC2/2024-12-06-03-22-00/
     RDKit          3D

 18 18  0  0  1  0  0  0  0  0999 V2000
    1.1787   -8.0297    3.5154 N   0  0  0  0  0  0  0  0  0  0  0  0
    0.8669   -7.0905    2.8589 C   0  0  0  0  0  0  0  0  0  0  0  0
    1.0447   -7.3244    1.4123 C   0  0  0  0  0  0  0  0  0  0  0  0
    1.3746   -8.4389    1.0864 C   0  0  2  0  0  0  0  0  0  0  0  0
    1.6686   -9.1952    2.5608 C   0  0  2  0  0  0  0  0  0  0  0  0
    2.0713  -10.3591    2.6852 C   0  0  0  0  0  0  0  0  0  0  0  0
    1.6566   -9.1179    0.0408 C   0  0  0  0  0  0  0  0  0  0  0  0
    2.3666   -8.6300   -0.9438 O   0  0  0  0  0  0  0  0  0  0  0  0
    1.0227  -10.2112   -0.2409 O   0  0  0  0  0  0  0  0  0  0  0  0
    1.3213  -11.3269    3.2533 C   0  0  0  0  0  0  0  0  0  0  0  0
    0.5476  -12.0330    2.8614 C   0  0  0  0  0  0  0  0  0  0  0  0
   -0.7630  -11.7255    2.5219 C   0  0  0  0  0  0  0  0  0  0  0  0
    0.8395  -13.4084    2.6240 C   0  0  0  0  0  0  0  0  0  0  0  0
   -0.1039  -14.3423    2.1185 O   0  0  0  0  0  0  0  0  0  0  0  0
    2.1600  -13.9672    2.7389 N   0  0  0  0  0  0  0  0  0  0  0  0
    2.4104  -15.2897    2.3720 C   0  0  0  0  0  0  0  0  0  0  0  0
    1.9392  -16.2170    3.3536 C   0  0  0  0  0  0  0  0  0  0  0  0
    2.1873  -17.6140    3.0246 C   0  0  0  0  0  0  0  0  0  0  0  0
  1  2  1  0
  2  3  2  0
  3  4  1  0
  1  5  1  0
  4  5  1  0
  5  6  1  6
  4  7  1  6
  7  8  1  0
  7  9  2  0
  6 10  1  0
 10 11  1  0
 11 12  1  0
 11 13  1  0
 13 14  2  0
 13 15  1  0
 15 16  1  0
 16 17  1  0
 17 18  2  0
M  END

$$$$
No_2389-/export/home/yangzhenyu/potential_scad_32_flow//YTHDC2/2024-12-06-03-22-00/
     RDKit          3D

 18 19  0  0  1  0  0  0  0  0999 V2000
    1.1787   -8.0297    3.5154 C   0  0  0  0  0  0  0  0  0  0  0  0
    1.1048   -9.2215    3.2892 C   0  0  0  0  0  0  0  0  0  0  0  0
    1.2339   -9.7611    2.0189 C   0  0  0  0  0  0  0  0  0  0  0  0
    1.3583   -9.0036    0.9764 C   0  0  0  0  0  0  0  0  0  0  0  0
    1.5996   -7.6362    1.1311 C   0  0  0  0  0  0  0  0  0  0  0  0
    1.4830   -7.0928    2.3626 C   0  0  0  0  0  0  0  0  0  0  0  0
    1.5395   -5.7300    2.6182 C   0  0  0  0  0  0  0  0  0  0  0  0
    1.1775  -11.2233    1.8407 C   0  0  0  0  0  0  0  0  0  0  0  0
    0.7252  -11.5870    0.5412 C   0  0  0  0  0  0  0  0  0  0  0  0
    0.5994  -13.0100    0.4511 C   0  0  0  0  0  0  0  0  0  0  0  0
    0.9545  -13.8873    1.4441 C   0  0  2  0  0  0  0  0  0  0  0  0
    1.4784  -13.3975    2.6594 C   0  0  0  0  0  0  0  0  0  0  0  0
    1.5766  -12.0395    2.8884 C   0  0  0  0  0  0  0  0  0  0  0  0
    2.1060  -11.5923    3.9798 O   0  0  0  0  0  0  0  0  0  0  0  0
    1.6602   -5.1453    3.8877 O   0  0  0  0  0  0  0  0  0  0  0  0
    1.4098   -4.8434    1.6569 O   0  0  0  0  0  0  0  0  0  0  0  0
    0.9380  -15.2406    1.2293 I   0  0  0  0  0  0  0  0  0  0  0  0
    1.6354   -9.4643   -0.5480 C   0  0  0  0  0  0  0  0  0  0  0  0
  6  7  1  0
  3  8  1  0
  8  9  1  0
 10 11  1  0
  8 13  1  0
 12 13  1  0
 13 14  2  0
  7 15  1  0
  7 16  2  0
 11 17  1  6
  4 18  1  0
  9 10  1  0
 11 12  1  0
  1  2  2  0
  2  3  1  0
  3  4  2  0
  4  5  1  0
  5  6  2  0
  1  6  1  0
M  END

$$$$
No_2390-/export/home/yangzhenyu/potential_scad_32_flow//YTHDC2/2024-12-06-03-22-00/
     RDKit          3D

 18 19  0  0  1  0  0  0  0  0999 V2000
    1.1787   -8.0297    3.5154 O   0  0  0  0  0  0  0  0  0  0  0  0
    0.6747   -7.4019    2.7838 C   0  0  0  0  0  0  0  0  0  0  0  0
    0.7594   -8.0032    1.4295 C   0  0  1  0  0  0  0  0  0  0  0  0
    1.4742   -7.4398    0.6034 C   0  0  0  0  0  0  0  0  0  0  0  0
    1.8433   -8.4150   -0.4648 C   0  0  0  0  0  0  0  0  0  0  0  0
    1.1937   -9.5681   -0.1453 C   0  0  0  0  0  0  0  0  0  0  0  0
    0.5504   -9.4714    1.1124 C   0  0  0  0  0  0  0  0  0  0  0  0
    1.2333   -5.9914    2.7299 O   0  0  0  0  0  0  0  0  0  0  0  0
   -0.1969  -10.3979    1.9814 C   0  0  2  0  0  0  0  0  0  0  0  0
    0.4804  -11.4070    2.3704 C   0  0  1  0  0  0  0  0  0  0  0  0
    0.0194  -12.6612    2.5805 C   0  0  2  0  0  0  0  0  0  0  0  0
   -1.3061  -12.8660    2.5047 C   0  0  0  0  0  0  0  0  0  0  0  0
   -2.1105  -11.8281    2.1198 C   0  0  0  0  0  0  0  0  0  0  0  0
   -1.5267  -10.5886    1.7467 C   0  0  0  0  0  0  0  0  0  0  0  0
    0.8665  -13.6590    3.1556 C   0  0  0  0  0  0  0  0  0  0  0  0
    1.2437  -14.8001    2.2107 Cl  0  0  0  0  0  0  0  0  0  0  0  0
   -2.3292   -9.4946    1.3560 O   0  0  0  0  0  0  0  0  0  0  0  0
    2.0243  -11.1759    2.5006 O   0  0  0  0  0  0  0  0  0  0  0  0
  1  2  1  0
  3  2  1  1
  3  4  1  0
  4  5  2  0
  5  6  1  0
  3  7  1  0
  6  7  2  0
  2  8  2  0
  9  7  1  6
  9 10  1  0
 11 12  1  0
  9 14  1  0
 13 14  1  0
 11 15  1  1
 15 16  1  0
 14 17  2  0
 10 18  1  6
 10 11  1  0
 12 13  1  0
M  END

$$$$
No_2391-/export/home/yangzhenyu/potential_scad_32_flow//YTHDC2/2024-12-06-03-22-00/
     RDKit          3D

 19 19  0  0  1  0  0  0  0  0999 V2000
    1.1787   -8.0297    3.5154 N   0  0  0  0  0  0  0  0  0  0  0  0
    0.8669   -7.0905    2.8589 C   0  0  0  0  0  0  0  0  0  0  0  0
    1.0447   -7.3244    1.4123 C   0  0  0  0  0  0  0  0  0  0  0  0
    1.3746   -8.4389    1.0864 C   0  0  0  0  0  0  0  0  0  0  0  0
    1.6686   -9.1952    2.5608 C   0  0  2  0  0  0  0  0  0  0  0  0
    1.9879  -10.3617    2.7281 C   0  0  0  0  0  0  0  0  0  0  0  0
    1.5667   -9.1627    0.0113 C   0  0  0  0  0  0  0  0  0  0  0  0
    1.1761  -10.3638   -0.1206 O   0  0  0  0  0  0  0  0  0  0  0  0
    2.4704   -8.7002   -0.9294 O   0  0  0  0  0  0  0  0  0  0  0  0
    1.2655  -11.2048    3.4589 C   0  0  2  0  0  0  0  0  0  0  0  0
    0.3150  -10.7290    4.1540 C   0  0  0  0  0  0  0  0  0  0  0  0
    1.7003  -12.5132    3.6427 C   0  0  0  0  0  0  0  0  0  0  0  0
    1.4531  -13.4220    2.5812 C   0  0  0  0  0  0  0  0  0  0  0  0
    2.4721  -14.1858    2.0351 C   0  0  0  0  0  0  0  0  0  0  0  0
    2.6334  -15.3620    2.6161 O   0  0  0  0  0  0  0  0  0  0  0  0
    3.0201  -13.9551    0.9360 O   0  0  0  0  0  0  0  0  0  0  0  0
   -0.9695  -10.7816    3.8802 C   0  0  0  0  0  0  0  0  0  0  0  0
   -1.5384  -11.4911    2.8833 C   0  0  0  0  0  0  0  0  0  0  0  0
   -2.8299  -11.5231    2.5638 C   0  0  0  0  0  0  0  0  0  0  0  0
  1  2  1  0
  2  3  2  0
  3  4  1  0
  1  5  1  0
  4  5  1  0
  5  6  1  6
  4  7  1  0
  7  8  2  0
  7  9  1  0
 10  6  1  1
 10 11  1  0
 10 12  1  0
 12 13  1  0
 13 14  1  0
 14 15  2  0
 14 16  1  0
 11 17  1  0
 17 18  2  3
 18 19  1  0
M  END

$$$$
No_2392-/export/home/yangzhenyu/potential_scad_32_flow//YTHDC2/2024-12-06-03-22-00/
     RDKit          3D

 19 20  0  0  1  0  0  0  0  0999 V2000
    1.1787   -8.0297    3.5154 C   0  0  0  0  0  0  0  0  0  0  0  0
    1.0491   -6.8434    2.9820 C   0  0  0  0  0  0  0  0  0  0  0  0
    0.9905   -9.0774    2.6527 C   0  0  0  0  0  0  0  0  0  0  0  0
    0.9687   -8.6883    1.3634 C   0  0  0  0  0  0  0  0  0  0  0  0
    1.0948   -6.3768    1.7686 C   0  0  0  0  0  0  0  0  0  0  0  0
    0.9504   -7.3975    0.8471 C   0  0  0  0  0  0  0  0  0  0  0  0
    1.0365  -10.4250    2.9992 C   0  0  0  0  0  0  0  0  0  0  0  0
   -0.0815  -11.0912    3.0879 N   0  0  0  0  0  0  0  0  0  0  0  0
    0.1086  -12.5075    3.3557 C   0  0  0  0  0  0  0  0  0  0  0  0
   -0.6309  -13.3246    2.5026 C   0  0  1  0  0  0  0  0  0  0  0  0
   -1.4751  -12.9512    1.7135 C   0  0  0  0  0  0  0  0  0  0  0  0
   -0.1718  -14.7360    2.5604 C   0  0  0  0  0  0  0  0  0  0  0  0
    1.1645  -14.9735    3.0816 C   0  0  0  0  0  0  0  0  0  0  0  0
    1.4956  -16.4038    3.0476 C   0  0  0  0  0  0  0  0  0  0  0  0
    0.7779  -17.2856    2.5164 C   0  0  0  0  0  0  0  0  0  0  0  0
   -0.3613  -16.9899    1.9089 C   0  0  0  0  0  0  0  0  0  0  0  0
   -0.7967  -15.7365    1.8872 C   0  0  0  0  0  0  0  0  0  0  0  0
    0.9237   -9.7617    0.2972 C   0  0  0  0  0  0  0  0  0  0  0  0
    1.9238  -10.3560   -0.0208 O   0  0  0  0  0  0  0  0  0  0  0  0
  3  7  1  0
  7  8  1  0
  8  9  1  0
  9 10  1  0
 10 11  1  6
 10 12  1  0
  4 18  1  0
 18 19  2  0
 12 13  2  0
 13 14  1  0
 14 15  2  0
 15 16  1  0
 16 17  2  0
 12 17  1  0
  1  2  2  0
  2  5  1  0
  5  6  2  0
  4  6  1  0
  3  4  2  0
  1  3  1  0
M  END

$$$$
No_2393-/export/home/yangzhenyu/potential_scad_32_flow//YTHDC2/2024-12-06-03-22-00/
     RDKit          3D

 17 17  0  0  1  0  0  0  0  0999 V2000
    1.1787   -8.0297    3.5154 C   0  0  0  0  0  0  0  0  0  0  0  0
    1.0491   -6.8434    2.9820 C   0  0  0  0  0  0  0  0  0  0  0  0
    1.9985   -8.9840    2.8958 C   0  0  0  0  0  0  0  0  0  0  0  0
    1.9135  -10.3404    3.6266 C   0  0  2  0  0  0  0  0  0  0  0  0
    2.2847  -10.5440    4.7936 C   0  0  0  0  0  0  0  0  0  0  0  0
    0.3304   -6.7696    1.8077 O   0  0  0  0  0  0  0  0  0  0  0  0
    1.6995   -5.7648    3.3384 N   0  0  0  0  0  0  0  0  0  0  0  0
    1.6523  -11.4260    2.7764 C   0  0  0  0  0  0  0  0  0  0  0  0
    1.6190  -12.6788    3.4151 Cl  0  0  0  0  0  0  0  0  0  0  0  0
    1.4905  -11.2585    1.4640 O   0  0  0  0  0  0  0  0  0  0  0  0
    3.6908  -10.8608    5.2089 N   0  0  0  0  0  0  0  0  0  0  0  0
    1.3938   -4.4906    2.8288 C   0  0  0  0  0  0  0  0  0  0  0  0
    1.4622   -4.1530    1.5806 C   0  0  0  0  0  0  0  0  0  0  0  0
    1.1785   -2.7963    1.1174 C   0  0  0  0  0  0  0  0  0  0  0  0
    0.9872   -1.9189    2.0345 C   0  0  0  0  0  0  0  0  0  0  0  0
    0.9442   -2.0563    3.3111 C   0  0  0  0  0  0  0  0  0  0  0  0
    1.1644   -3.3781    3.8302 C   0  0  0  0  0  0  0  0  0  0  0  0
  1  2  1  0
  1  3  1  0
  4  3  1  6
  4  5  1  0
  2  6  2  0
  2  7  1  0
  4  8  1  0
  8  9  1  0
  8 10  2  0
  5 11  1  0
  7 12  1  0
 12 13  2  0
 13 14  1  0
 14 15  2  0
 15 16  1  0
 16 17  2  0
 12 17  1  0
M  END

$$$$
No_2394-/export/home/yangzhenyu/potential_scad_32_flow//YTHDC2/2024-12-06-03-22-00/
     RDKit          3D

 17 18  0  0  0  0  0  0  0  0999 V2000
    1.1787   -8.0297    3.5154 C   0  0  0  0  0  0  0  0  0  0  0  0
    1.0491   -6.8434    2.9820 C   0  0  0  0  0  0  0  0  0  0  0  0
    1.9985   -8.9840    2.8958 C   0  0  0  0  0  0  0  0  0  0  0  0
    1.9135  -10.3404    3.6266 C   0  0  0  0  0  0  0  0  0  0  0  0
    0.7479  -10.9191    3.7202 O   0  0  0  0  0  0  0  0  0  0  0  0
    1.8371   -5.7921    3.2229 C   0  0  0  0  0  0  0  0  0  0  0  0
    1.4653   -4.6451    2.4899 C   0  0  0  0  0  0  0  0  0  0  0  0
    0.5834   -4.7296    1.3549 C   0  0  0  0  0  0  0  0  0  0  0  0
   -0.0394   -5.8744    1.0898 C   0  0  0  0  0  0  0  0  0  0  0  0
    0.1444   -6.9717    1.8243 C   0  0  0  0  0  0  0  0  0  0  0  0
    0.6942  -12.2597    3.4707 C   0  0  0  0  0  0  0  0  0  0  0  0
    1.8596  -12.9884    3.4727 C   0  0  0  0  0  0  0  0  0  0  0  0
    1.5710  -14.3995    2.9486 C   0  0  0  0  0  0  0  0  0  0  0  0
    0.4348  -14.8168    2.6848 C   0  0  0  0  0  0  0  0  0  0  0  0
   -0.7037  -13.9985    2.7945 C   0  0  0  0  0  0  0  0  0  0  0  0
   -0.5479  -12.7040    3.1966 C   0  0  0  0  0  0  0  0  0  0  0  0
   -0.5714   -8.0386    1.6147 C   0  0  0  0  0  0  0  0  0  0  0  0
  1  2  1  0
  1  3  1  0
  3  4  1  0
  4  5  1  0
  5 11  1  0
 10 17  1  0
 11 12  2  0
 12 13  1  0
 13 14  2  0
 14 15  1  0
 15 16  2  0
 11 16  1  0
  2  6  2  0
  6  7  1  0
  7  8  2  0
  8  9  1  0
  9 10  2  0
  2 10  1  0
M  END

$$$$
No_2395-/export/home/yangzhenyu/potential_scad_32_flow//YTHDC2/2024-12-06-03-22-00/
     RDKit          3D

 18 19  0  0  0  0  0  0  0  0999 V2000
    1.1787   -8.0297    3.5154 C   0  0  0  0  0  0  0  0  0  0  0  0
    1.1048   -9.2215    3.2892 C   0  0  0  0  0  0  0  0  0  0  0  0
    1.2339   -9.7611    2.0189 C   0  0  0  0  0  0  0  0  0  0  0  0
    1.3583   -9.0036    0.9764 C   0  0  0  0  0  0  0  0  0  0  0  0
    1.5996   -7.6362    1.1311 C   0  0  0  0  0  0  0  0  0  0  0  0
    1.4830   -7.0928    2.3626 C   0  0  0  0  0  0  0  0  0  0  0  0
    1.1008  -11.2372    1.8542 C   0  0  0  0  0  0  0  0  0  0  0  0
    1.9749  -12.0938    2.2342 C   0  0  0  0  0  0  0  0  0  0  0  0
    1.7533  -13.4231    1.8956 C   0  0  0  0  0  0  0  0  0  0  0  0
    0.8624  -13.8318    1.1071 C   0  0  0  0  0  0  0  0  0  0  0  0
   -0.0624  -12.9093    0.5581 C   0  0  0  0  0  0  0  0  0  0  0  0
    0.1157  -11.5285    0.9404 C   0  0  0  0  0  0  0  0  0  0  0  0
    1.5561   -5.6354    2.6426 C   0  0  0  0  0  0  0  0  0  0  0  0
   -0.8281  -10.6339    0.4863 C   0  0  0  0  0  0  0  0  0  0  0  0
   -1.9357  -10.8245    0.0112 C   0  0  0  0  0  0  0  0  0  0  0  0
   -2.7754   -9.8671   -0.7086 C   0  0  0  0  0  0  0  0  0  0  0  0
   -3.6854   -9.8876   -1.3113 C   0  0  0  0  0  0  0  0  0  0  0  0
   -4.2886  -11.1584   -1.3464 C   0  0  0  0  0  0  0  0  0  0  0  0
  3  7  1  0
  6 13  1  0
 12 14  1  0
 14 15  2  3
 15 16  1  0
 16 17  2  3
 17 18  1  0
  1  2  2  0
  2  3  1  0
  3  4  2  0
  4  5  1  0
  5  6  2  0
  1  6  1  0
  7  8  2  0
  8  9  1  0
  9 10  2  0
 10 11  1  0
 11 12  2  0
  7 12  1  0
M  END

$$$$
No_2396-/export/home/yangzhenyu/potential_scad_32_flow//YTHDC2/2024-12-06-03-22-00/
     RDKit          3D

 18 19  0  0  1  0  0  0  0  0999 V2000
    1.1787   -8.0297    3.5154 C   0  0  0  0  0  0  0  0  0  0  0  0
    1.1048   -9.2215    3.2892 C   0  0  0  0  0  0  0  0  0  0  0  0
    1.3627  -10.1721    4.3044 C   0  0  0  0  0  0  0  0  0  0  0  0
    1.0682  -11.5187    4.0618 C   0  0  0  0  0  0  0  0  0  0  0  0
    0.7653  -11.7320    2.7387 C   0  0  0  0  0  0  0  0  0  0  0  0
    0.5661  -10.9730    1.8367 C   0  0  0  0  0  0  0  0  0  0  0  0
    0.7745   -9.6758    2.0361 C   0  0  0  0  0  0  0  0  0  0  0  0
    1.2131   -6.9952    2.4858 N   0  0  0  0  0  0  0  0  0  0  0  0
    0.6794   -8.6556    1.0666 C   0  0  2  0  0  0  0  0  0  0  0  0
    0.6557   -9.1499   -0.2659 C   0  0  0  0  0  0  0  0  0  0  0  0
    0.9970   -7.4012    1.2418 C   0  0  0  0  0  0  0  0  0  0  0  0
   -0.7502   -9.4912   -0.6242 N   0  0  0  0  0  0  0  0  0  0  0  0
    1.4300   -9.3607   -1.1103 O   0  0  0  0  0  0  0  0  0  0  0  0
    0.5872  -13.2916    2.5015 O   0  0  0  0  0  0  0  0  0  0  0  0
   -0.4629  -13.7526    2.0132 C   0  0  0  0  0  0  0  0  0  0  0  0
    1.0227   -6.4926    0.3554 O   0  0  0  0  0  0  0  0  0  0  0  0
   -1.1780   -9.8548   -1.8431 C   0  0  0  0  0  0  0  0  0  0  0  0
   -2.6188   -9.7983   -1.9118 C   0  0  0  0  0  0  0  0  0  0  0  0
  1  2  1  0
  1  8  1  0
  7  9  1  0
  9 10  1  6
  8 11  1  0
  9 11  1  0
 10 12  1  0
 10 13  2  0
  5 14  1  0
 14 15  1  0
 11 16  2  0
 12 17  1  0
 17 18  1  0
  2  3  2  0
  3  4  1  0
  4  5  2  0
  5  6  1  0
  6  7  2  0
  2  7  1  0
M  END

$$$$
No_2397-/export/home/yangzhenyu/potential_scad_32_flow//YTHDC2/2024-12-06-03-22-00/
     RDKit          3D

 19 20  0  0  1  0  0  0  0  0999 V2000
    1.1787   -8.0297    3.5154 C   0  0  0  0  0  0  0  0  0  0  0  0
    1.0491   -6.8434    2.9820 C   0  0  0  0  0  0  0  0  0  0  0  0
    0.9905   -9.0774    2.6527 C   0  0  1  0  0  0  0  0  0  0  0  0
    0.7897   -8.9519    1.3691 C   0  0  1  0  0  0  0  0  0  0  0  0
    0.7018   -7.7198    0.7892 C   0  0  0  0  0  0  0  0  0  0  0  0
    0.8918   -6.5957    1.6117 C   0  0  0  0  0  0  0  0  0  0  0  0
    1.0998  -10.4710    3.2437 C   0  0  0  0  0  0  0  0  0  0  0  0
    1.3102  -11.5554    2.5214 C   0  0  1  0  0  0  0  0  0  0  0  0
    1.5840  -11.4028    1.1226 C   0  0  0  0  0  0  0  0  0  0  0  0
    1.2367  -10.1673    0.5312 C   0  0  0  0  0  0  0  0  0  0  0  0
    1.6646  -12.8841    2.9445 C   0  0  0  0  0  0  0  0  0  0  0  0
    1.0748  -14.0467    2.1841 O   0  0  0  0  0  0  0  0  0  0  0  0
    0.6795   -5.2945    1.1630 O   0  0  0  0  0  0  0  0  0  0  0  0
    1.8025  -15.1789    2.1409 C   0  0  0  0  0  0  0  0  0  0  0  0
    1.2486  -16.3035    1.9032 C   0  0  0  0  0  0  0  0  0  0  0  0
    1.9979  -17.4248    1.9085 C   0  0  0  0  0  0  0  0  0  0  0  0
    3.3347  -17.3927    2.3829 C   0  0  0  0  0  0  0  0  0  0  0  0
    1.5129  -18.6578    1.6683 C   0  0  0  0  0  0  0  0  0  0  0  0
    1.0647  -10.0571   -0.7100 O   0  0  0  0  0  0  0  0  0  0  0  0
  1  2  1  0
  3  4  1  0
  2  6  1  0
  5  6  1  0
  3  7  1  6
  8  9  1  0
  4 10  1  0
  9 10  1  0
  8 11  1  1
 11 12  1  0
  6 13  2  0
 12 14  1  0
 14 15  1  0
 15 16  1  0
 16 17  1  0
 16 18  1  0
 10 19  2  0
  1  3  1  0
  4  5  1  6
  7  8  1  0
M  END

$$$$
No_2398-/export/home/yangzhenyu/potential_scad_32_flow//YTHDC2/2024-12-06-03-22-00/
     RDKit          3D

 19 19  0  0  1  0  0  0  0  0999 V2000
    1.1787   -8.0297    3.5154 C   0  0  0  0  0  0  0  0  0  0  0  0
    1.0491   -6.8434    2.9820 C   0  0  0  0  0  0  0  0  0  0  0  0
    0.9905   -9.0774    2.6527 C   0  0  0  0  0  0  0  0  0  0  0  0
    0.7897   -8.9519    1.3691 C   0  0  0  0  0  0  0  0  0  0  0  0
    0.7018   -7.7198    0.7892 C   0  0  0  0  0  0  0  0  0  0  0  0
    0.8918   -6.5957    1.6117 C   0  0  0  0  0  0  0  0  0  0  0  0
    1.0711  -10.4814    3.2282 C   0  0  2  0  0  0  0  0  0  0  0  0
    2.1432  -11.0138    3.5962 C   0  0  0  0  0  0  0  0  0  0  0  0
   -0.0553  -11.2345    3.2841 C   0  0  0  0  0  0  0  0  0  0  0  0
   -1.2156  -10.5474    3.8659 C   0  0  0  0  0  0  0  0  0  0  0  0
   -2.4298  -10.5507    3.5126 C   0  0  0  0  0  0  0  0  0  0  0  0
   -3.3961   -9.7863    4.3078 C   0  0  0  0  0  0  0  0  0  0  0  0
   -0.4110  -12.0653    2.3964 O   0  0  0  0  0  0  0  0  0  0  0  0
   -3.0747   -8.3877    4.5462 C   0  0  0  0  0  0  0  0  0  0  0  0
   -2.7180   -7.5579    3.5880 C   0  0  0  0  0  0  0  0  0  0  0  0
   -3.7048   -6.7769    3.0915 C   0  0  0  0  0  0  0  0  0  0  0  0
   -3.5227   -5.6457    2.9062 O   0  0  0  0  0  0  0  0  0  0  0  0
   -4.7160   -7.3594    2.5897 O   0  0  0  0  0  0  0  0  0  0  0  0
    0.8802   -5.0570    1.0660 Cl  0  0  0  0  0  0  0  0  0  0  0  0
  3  7  1  0
  7  8  1  6
  7  9  1  0
  9 10  1  0
 10 11  2  3
 11 12  1  0
  9 13  2  0
 12 14  1  0
 14 15  1  0
 15 16  1  0
 16 17  2  0
 16 18  1  0
  6 19  1  0
  1  2  2  0
  2  6  1  0
  5  6  2  0
  4  5  1  0
  3  4  2  0
  1  3  1  0
M  END

$$$$
No_2399-/export/home/yangzhenyu/potential_scad_32_flow//YTHDC2/2024-12-06-03-22-00/
     RDKit          3D

 19 19  0  0  0  0  0  0  0  0999 V2000
    1.1787   -8.0297    3.5154 N   0  0  0  0  0  0  0  0  0  0  0  0
    1.0818   -9.0751    3.2053 C   0  0  0  0  0  0  0  0  0  0  0  0
    0.7576   -9.3725    1.9159 C   0  0  0  0  0  0  0  0  0  0  0  0
    0.8823   -8.4917    1.0547 C   0  0  0  0  0  0  0  0  0  0  0  0
    1.4631   -7.3107    1.2451 C   0  0  0  0  0  0  0  0  0  0  0  0
    1.6470   -6.9326    2.5669 C   0  0  0  0  0  0  0  0  0  0  0  0
    0.8237  -10.1305    4.2407 C   0  0  0  0  0  0  0  0  0  0  0  0
    1.7644  -11.1125    4.2479 C   0  0  0  0  0  0  0  0  0  0  0  0
    0.8446   -8.8698   -0.4314 C   0  0  0  0  0  0  0  0  0  0  0  0
    1.7120   -8.8126   -1.2544 O   0  0  0  0  0  0  0  0  0  0  0  0
   -0.4047   -9.1367   -0.8382 O   0  0  0  0  0  0  0  0  0  0  0  0
    1.3530  -12.3293    3.7932 C   0  0  0  0  0  0  0  0  0  0  0  0
    2.1047  -13.2323    3.1492 C   0  0  0  0  0  0  0  0  0  0  0  0
    1.4972  -14.4442    2.7694 C   0  0  0  0  0  0  0  0  0  0  0  0
    2.3606  -15.4325    2.2721 O   0  0  0  0  0  0  0  0  0  0  0  0
    0.3547  -14.8333    2.9530 O   0  0  0  0  0  0  0  0  0  0  0  0
    1.7489   -5.6241    3.0690 C   0  0  0  0  0  0  0  0  0  0  0  0
    1.5669   -4.5550    2.2048 C   0  0  0  0  0  0  0  0  0  0  0  0
    1.6606   -3.2491    2.6453 C   0  0  0  0  0  0  0  0  0  0  0  0
  2  7  1  0
  7  8  1  0
  4  9  1  0
  9 10  2  0
  9 11  1  0
  8 12  1  0
 12 13  1  0
 13 14  1  0
 14 15  1  0
 14 16  2  0
  6 17  1  0
 17 18  2  3
 18 19  1  0
  1  2  2  0
  2  3  1  0
  3  4  2  0
  4  5  1  0
  5  6  2  0
  1  6  1  0
M  END

$$$$
No_2400-/export/home/yangzhenyu/potential_scad_32_flow//YTHDC2/2024-12-06-03-22-00/
     RDKit          3D

 16 17  0  0  1  0  0  0  0  0999 V2000
    1.1787   -8.0297    3.5154 C   0  0  0  0  0  0  0  0  0  0  0  0
    1.1048   -9.2215    3.2892 C   0  0  0  0  0  0  0  0  0  0  0  0
    1.2339   -9.7611    2.0189 C   0  0  0  0  0  0  0  0  0  0  0  0
    1.3583   -9.0036    0.9764 C   0  0  0  0  0  0  0  0  0  0  0  0
    1.5996   -7.6362    1.1311 C   0  0  0  0  0  0  0  0  0  0  0  0
    1.4830   -7.0928    2.3626 C   0  0  0  0  0  0  0  0  0  0  0  0
    1.1171  -11.3311    1.8661 C   0  0  1  0  0  0  0  0  0  0  0  0
    0.5022  -11.6388    0.6531 C   0  0  0  0  0  0  0  0  0  0  0  0
    0.5683  -13.0838    0.5424 C   0  0  0  0  0  0  0  0  0  0  0  0
    1.2665  -13.8887    1.3003 C   0  0  0  0  0  0  0  0  0  0  0  0
    1.9755  -13.3063    2.4712 C   0  0  1  0  0  0  0  0  0  0  0  0
    1.8141  -12.0309    2.7534 C   0  0  0  0  0  0  0  0  0  0  0  0
    2.4047  -11.5022    3.8199 O   0  0  0  0  0  0  0  0  0  0  0  0
    1.5574   -5.6478    2.6276 Cl  0  0  0  0  0  0  0  0  0  0  0  0
    1.5601   -9.4261   -0.3615 O   0  0  0  0  0  0  0  0  0  0  0  0
    2.4913  -14.2160    3.3756 Cl  0  0  0  0  0  0  0  0  0  0  0  0
  7  3  1  6
  7  8  1  0
  9 10  1  0
  7 12  1  0
 11 12  1  0
 12 13  2  0
  6 14  1  0
  4 15  1  0
 11 16  1  1
  8  9  1  0
 10 11  1  0
  1  2  2  0
  2  3  1  0
  3  4  2  0
  4  5  1  0
  5  6  2  0
  1  6  1  0
M  END

$$$$
No_2401-/export/home/yangzhenyu/potential_scad_32_flow//YTHDC2/2024-12-06-03-22-00/
     RDKit          3D

 19 19  0  0  1  0  0  0  0  0999 V2000
    1.1787   -8.0297    3.5154 C   0  0  0  0  0  0  0  0  0  0  0  0
    1.0491   -6.8434    2.9820 C   0  0  0  0  0  0  0  0  0  0  0  0
    0.0950   -8.8404    3.2292 C   0  0  0  0  0  0  0  0  0  0  0  0
   -0.9173   -8.4596    2.5152 C   0  0  0  0  0  0  0  0  0  0  0  0
   -1.0331   -7.2162    2.0653 C   0  0  0  0  0  0  0  0  0  0  0  0
   -0.0105   -6.3168    2.3081 C   0  0  0  0  0  0  0  0  0  0  0  0
    0.1465  -10.2446    3.6981 C   0  0  2  0  0  0  0  0  0  0  0  0
    1.2433  -10.8239    4.0166 C   0  0  0  0  0  0  0  0  0  0  0  0
    2.3358  -10.5952    4.0338 C   0  0  0  0  0  0  0  0  0  0  0  0
   -1.1353  -10.9640    3.6374 C   0  0  0  0  0  0  0  0  0  0  0  0
   -0.0735   -5.0047    1.8600 O   0  0  0  0  0  0  0  0  0  0  0  0
    0.8286   -4.0628    2.3537 C   0  0  0  0  0  0  0  0  0  0  0  0
    3.4209  -11.3436    4.7728 N   0  0  0  0  0  0  0  0  0  0  0  0
   -2.2165   -6.7514    1.4903 C   0  0  0  0  0  0  0  0  0  0  0  0
   -2.2010   -5.9460    0.7335 C   0  0  0  0  0  0  0  0  0  0  0  0
   -1.7330   -6.0421   -0.6528 C   0  0  0  0  0  0  0  0  0  0  0  0
   -1.4695   -7.3074   -0.9249 C   0  0  0  0  0  0  0  0  0  0  0  0
   -0.3741   -7.8240   -1.4060 C   0  0  0  0  0  0  0  0  0  0  0  0
    0.1209   -8.7392   -1.2834 O   0  0  0  0  0  0  0  0  0  0  0  0
  3  7  1  0
  7  8  1  0
  8  9  2  3
  7 10  1  6
  6 11  1  0
 11 12  1  0
  9 13  1  0
  5 14  1  0
 14 15  1  0
 15 16  1  0
 16 17  1  0
 17 18  1  0
 18 19  1  0
  1  2  2  0
  2  6  1  0
  5  6  2  0
  4  5  1  0
  3  4  2  0
  1  3  1  0
M  END

$$$$
No_2402-/export/home/yangzhenyu/potential_scad_32_flow//YTHDC2/2024-12-06-03-22-00/
     RDKit          3D

 20 20  0  0  1  0  0  0  0  0999 V2000
    1.1787   -8.0297    3.5154 C   0  0  0  0  0  0  0  0  0  0  0  0
    1.1048   -9.2215    3.2892 C   0  0  0  0  0  0  0  0  0  0  0  0
    1.2339   -9.7611    2.0189 C   0  0  0  0  0  0  0  0  0  0  0  0
    1.3583   -9.0036    0.9764 C   0  0  0  0  0  0  0  0  0  0  0  0
    1.5996   -7.6362    1.1311 C   0  0  0  0  0  0  0  0  0  0  0  0
    1.4830   -7.0928    2.3626 C   0  0  0  0  0  0  0  0  0  0  0  0
    1.4898   -5.7274    2.6199 C   0  0  0  0  0  0  0  0  0  0  0  0
    1.1681  -11.2222    1.8390 C   0  0  0  0  0  0  0  0  0  0  0  0
    0.5014  -11.9760    2.2068 C   0  0  0  0  0  0  0  0  0  0  0  0
   -0.6069  -11.4784    3.2188 C   0  0  0  0  0  0  0  0  0  0  0  0
    0.6192  -13.4304    2.0775 C   0  0  0  0  0  0  0  0  0  0  0  0
    1.7219  -14.0937    2.6551 N   0  0  0  0  0  0  0  0  0  0  0  0
    1.6974   -5.1626    3.8589 N   0  0  0  0  0  0  0  0  0  0  0  0
    1.3443   -4.8554    1.6240 O   0  0  0  0  0  0  0  0  0  0  0  0
    2.0362  -15.2787    2.4519 C   0  0  0  0  0  0  0  0  0  0  0  0
    1.3014  -16.2239    2.9086 C   0  0  2  0  0  0  0  0  0  0  0  0
    0.2847  -15.9114    3.8464 C   0  0  0  0  0  0  0  0  0  0  0  0
    1.6027  -17.5861    2.6431 C   0  0  0  0  0  0  0  0  0  0  0  0
   -0.2046  -14.0500    1.3369 O   0  0  0  0  0  0  0  0  0  0  0  0
    0.9288  -18.5599    3.2697 C   0  0  0  0  0  0  0  0  0  0  0  0
  6  7  1  0
  3  8  1  0
  8  9  2  3
  9 10  1  0
  9 11  1  0
 11 12  1  0
  7 13  1  0
  7 14  2  0
 12 15  1  0
 15 16  1  0
 16 17  1  1
 16 18  1  0
 11 19  2  0
 18 20  2  0
  1  2  2  0
  2  3  1  0
  3  4  2  0
  4  5  1  0
  5  6  2  0
  1  6  1  0
M  END

$$$$
No_2403-/export/home/yangzhenyu/potential_scad_32_flow//YTHDC2/2024-12-06-03-22-00/
     RDKit          3D

 18 18  0  0  1  0  0  0  0  0999 V2000
    1.1787   -8.0297    3.5154 C   0  0  0  0  0  0  0  0  0  0  0  0
    1.0491   -6.8434    2.9820 C   0  0  0  0  0  0  0  0  0  0  0  0
    0.9905   -9.0774    2.6527 C   0  0  0  0  0  0  0  0  0  0  0  0
    1.1655  -10.4663    3.1286 C   0  0  2  0  0  0  0  0  0  0  0  0
    1.7409  -10.6480    4.4599 C   0  0  0  0  0  0  0  0  0  0  0  0
    0.4783   -6.4688    1.7590 C   0  0  0  0  0  0  0  0  0  0  0  0
    0.2119   -7.5787    0.9640 C   0  0  0  0  0  0  0  0  0  0  0  0
    0.4248   -8.8744    1.3136 C   0  0  0  0  0  0  0  0  0  0  0  0
    1.9892  -11.2015    1.9409 C   0  0  0  0  0  0  0  0  0  0  0  0
    0.2823   -5.1935    1.2851 C   0  0  0  0  0  0  0  0  0  0  0  0
    2.5886  -10.7193    1.1353 C   0  0  0  0  0  0  0  0  0  0  0  0
    1.5805  -12.6057    1.9407 C   0  0  0  0  0  0  0  0  0  0  0  0
    2.1229  -13.4629    1.1307 C   0  0  0  0  0  0  0  0  0  0  0  0
    1.8295  -14.7433    1.1113 C   0  0  0  0  0  0  0  0  0  0  0  0
    0.9336  -15.1839    0.1883 N   0  0  0  0  0  0  0  0  0  0  0  0
    2.5489  -15.7483    1.6947 O   0  0  0  0  0  0  0  0  0  0  0  0
    1.3374   -4.2678    1.6231 C   0  0  0  0  0  0  0  0  0  0  0  0
    0.9524   -3.0909    2.2795 C   0  0  0  0  0  0  0  0  0  0  0  0
  3  4  1  0
  4  5  1  1
  4  9  1  0
  6 10  1  0
  9 11  2  0
  9 12  1  0
 12 13  2  3
 13 14  1  0
 14 15  1  0
 14 16  2  0
 10 17  1  0
 17 18  1  0
  1  2  2  0
  2  6  1  0
  6  7  2  0
  7  8  1  0
  3  8  2  0
  1  3  1  0
M  END

$$$$
No_2404-/export/home/yangzhenyu/potential_scad_32_flow//YTHDC2/2024-12-06-03-22-00/
     RDKit          3D

 19 20  0  0  1  0  0  0  0  0999 V2000
    1.1787   -8.0297    3.5154 N   0  0  0  0  0  0  0  0  0  0  0  0
    0.8669   -7.0905    2.8589 C   0  0  0  0  0  0  0  0  0  0  0  0
    1.0447   -7.3244    1.4123 C   0  0  0  0  0  0  0  0  0  0  0  0
    1.3746   -8.4389    1.0864 C   0  0  2  0  0  0  0  0  0  0  0  0
    1.8493   -9.4093    1.8124 S   0  0  0  0  0  0  0  0  0  0  0  0
    1.6887   -9.1204    3.2498 C   0  0  0  0  0  0  0  0  0  0  0  0
    2.0634  -10.1045    4.2531 C   0  0  0  0  0  0  0  0  0  0  0  0
    1.7073   -8.4853   -0.4196 C   0  0  0  0  0  0  0  0  0  0  0  0
    2.6839   -9.2870   -0.9373 O   0  0  0  0  0  0  0  0  0  0  0  0
    0.8992   -8.2247   -1.3463 O   0  0  0  0  0  0  0  0  0  0  0  0
    2.2798  -11.3979    4.1240 C   0  0  0  0  0  0  0  0  0  0  0  0
    1.4530  -12.1032    3.3309 C   0  0  1  0  0  0  0  0  0  0  0  0
    1.6620  -13.4418    2.8034 N   0  0  0  0  0  0  0  0  0  0  0  0
    0.8140  -14.0776    2.2727 C   0  0  0  0  0  0  0  0  0  0  0  0
   -0.2663  -13.4970    1.9708 N   0  0  0  0  0  0  0  0  0  0  0  0
    0.0322  -12.1089    2.6910 C   0  0  0  0  0  0  0  0  0  0  0  0
    1.0696  -15.4142    1.7938 C   0  0  0  0  0  0  0  0  0  0  0  0
    0.6030  -16.3763    2.2830 C   0  0  0  0  0  0  0  0  0  0  0  0
    1.1424  -17.5974    2.3405 C   0  0  0  0  0  0  0  0  0  0  0  0
  1  2  1  0
  2  3  2  0
  3  4  1  0
  4  5  1  0
  1  6  1  0
  5  6  1  0
  6  7  1  0
  4  8  1  6
  8  9  2  0
  8 10  1  0
  7 11  2  3
 11 12  1  0
 12 13  1  0
 13 14  2  0
 14 15  1  0
 12 16  1  1
 15 16  1  0
 14 17  1  0
 17 18  1  0
 18 19  2  0
M  END

$$$$
No_2405-/export/home/yangzhenyu/potential_scad_32_flow//YTHDC2/2024-12-06-03-22-00/
     RDKit          3D

 19 20  0  0  1  0  0  0  0  0999 V2000
    1.1787   -8.0297    3.5154 C   0  0  0  0  0  0  0  0  0  0  0  0
    1.1048   -9.2215    3.2892 C   0  0  0  0  0  0  0  0  0  0  0  0
    1.3627  -10.1721    4.3044 C   0  0  0  0  0  0  0  0  0  0  0  0
    2.3720  -10.8948    4.2468 C   0  0  0  0  0  0  0  0  0  0  0  0
    0.8234   -7.0464    2.5717 C   0  0  0  0  0  0  0  0  0  0  0  0
    0.4328   -7.4736    1.3042 C   0  0  0  0  0  0  0  0  0  0  0  0
    0.3532   -8.7488    0.9919 C   0  0  0  0  0  0  0  0  0  0  0  0
    0.7039   -9.7094    1.9672 C   0  0  0  0  0  0  0  0  0  0  0  0
    1.2460  -10.6441    1.6197 C   0  0  1  0  0  0  0  0  0  0  0  0
    2.2594  -11.6940    2.9714 C   0  0  0  0  0  0  0  0  0  0  0  0
    1.1140  -11.6416    0.7759 C   0  0  0  0  0  0  0  0  0  0  0  0
    0.2668  -12.4806    0.7382 O   0  0  0  0  0  0  0  0  0  0  0  0
    0.9139   -5.3931    2.9584 Cl  0  0  0  0  0  0  0  0  0  0  0  0
    1.7540  -11.3744   -0.3245 O   0  0  0  0  0  0  0  0  0  0  0  0
    0.0487   -6.6030    0.3754 O   0  0  0  0  0  0  0  0  0  0  0  0
   -1.3126   -6.6535   -0.0214 C   0  0  0  0  0  0  0  0  0  0  0  0
   -1.5324   -7.2778   -1.1377 C   0  0  0  0  0  0  0  0  0  0  0  0
   -0.7681   -7.5186   -2.0839 C   0  0  0  0  0  0  0  0  0  0  0  0
   -1.0183   -8.2613   -2.9952 C   0  0  0  0  0  0  0  0  0  0  0  0
  2  3  1  0
  3  4  1  0
  8  9  1  0
  4 10  1  0
  9 10  1  0
  9 11  1  1
 11 12  2  0
  5 13  1  0
 11 14  1  0
  6 15  1  0
 15 16  1  0
 16 17  1  0
 17 18  1  0
 18 19  2  0
  1  2  2  0
  2  8  1  0
  7  8  2  0
  6  7  1  0
  5  6  2  0
  1  5  1  0
M  END

$$$$
No_2406-/export/home/yangzhenyu/potential_scad_32_flow//YTHDC2/2024-12-06-03-22-00/
     RDKit          3D

 19 20  0  0  1  0  0  0  0  0999 V2000
    1.1787   -8.0297    3.5154 C   0  0  0  0  0  0  0  0  0  0  0  0
    1.0491   -6.8434    2.9820 C   0  0  0  0  0  0  0  0  0  0  0  0
    0.9905   -9.0774    2.6527 C   0  0  1  0  0  0  0  0  0  0  0  0
    0.7897   -8.9519    1.3691 C   0  0  0  0  0  0  0  0  0  0  0  0
    0.7018   -7.7198    0.7892 C   0  0  0  0  0  0  0  0  0  0  0  0
    0.8918   -6.5957    1.6117 C   0  0  0  0  0  0  0  0  0  0  0  0
    1.0998  -10.4710    3.2437 C   0  0  0  0  0  0  0  0  0  0  0  0
    1.3102  -11.5554    2.5214 C   0  0  0  0  0  0  0  0  0  0  0  0
    0.7297  -12.5080    2.5972 C   0  0  0  0  0  0  0  0  0  0  0  0
   -0.0799  -12.8695    3.8405 C   0  0  0  0  0  0  0  0  0  0  0  0
    0.9590  -10.7279    4.5983 C   0  0  0  0  0  0  0  0  0  0  0  0
    0.1710  -11.8789    4.7627 C   0  0  0  0  0  0  0  0  0  0  0  0
    0.9236   -5.2720    1.1560 O   0  0  0  0  0  0  0  0  0  0  0  0
    0.6800  -13.6702    1.6668 C   0  0  0  0  0  0  0  0  0  0  0  0
    1.7629  -14.3586    1.5095 O   0  0  0  0  0  0  0  0  0  0  0  0
    0.2461  -13.1826    0.3336 O   0  0  0  0  0  0  0  0  0  0  0  0
    1.3910   -5.6757    3.7685 O   0  0  0  0  0  0  0  0  0  0  0  0
    0.6225   -9.9801    0.3808 C   0  0  0  0  0  0  0  0  0  0  0  0
   -0.6095  -10.2787    0.0151 O   0  0  0  0  0  0  0  0  0  0  0  0
  1  2  1  0
  3  4  1  0
  2  6  1  0
  5  6  1  0
  3  7  1  6
  6 13  2  0
  9 14  1  0
 14 15  1  0
 14 16  2  0
  2 17  2  0
  4 18  1  0
 18 19  1  0
  1  3  1  0
  4  5  1  0
  7  8  2  0
  8  9  1  0
  9 10  2  0
 10 12  1  0
 11 12  2  0
  7 11  1  0
M  END

$$$$
No_2407-/export/home/yangzhenyu/potential_scad_32_flow//YTHDC2/2024-12-06-03-22-00/
     RDKit          3D

 21 22  0  0  1  0  0  0  0  0999 V2000
    1.1787   -8.0297    3.5154 C   0  0  0  0  0  0  0  0  0  0  0  0
    1.1048   -9.2215    3.2892 C   0  0  0  0  0  0  0  0  0  0  0  0
    1.3627  -10.1721    4.3044 C   0  0  0  0  0  0  0  0  0  0  0  0
    1.0682  -11.5187    4.0618 C   0  0  0  0  0  0  0  0  0  0  0  0
    0.6332  -11.9655    2.9682 C   0  0  0  0  0  0  0  0  0  0  0  0
    0.4776  -11.1308    1.9203 C   0  0  0  0  0  0  0  0  0  0  0  0
    0.7470   -9.8274    2.0368 C   0  0  0  0  0  0  0  0  0  0  0  0
    0.5536   -7.1314    2.6860 C   0  0  0  0  0  0  0  0  0  0  0  0
    0.2951   -7.6000    1.3275 C   0  0  0  0  0  0  0  0  0  0  0  0
    0.2693   -8.8631    1.0973 C   0  0  1  0  0  0  0  0  0  0  0  0
   -0.0513   -6.7125    0.4242 O   0  0  0  0  0  0  0  0  0  0  0  0
    0.4918  -13.3974    2.7285 C   0  0  0  0  0  0  0  0  0  0  0  0
    0.8947  -13.9358    1.7061 C   0  0  0  0  0  0  0  0  0  0  0  0
    0.3183  -14.7697    1.0413 C   0  0  0  0  0  0  0  0  0  0  0  0
   -0.7574  -15.4937    1.5102 C   0  0  0  0  0  0  0  0  0  0  0  0
   -1.3491  -16.5750    0.9230 C   0  0  0  0  0  0  0  0  0  0  0  0
    0.0418   -9.2969   -0.1869 C   0  0  0  0  0  0  0  0  0  0  0  0
   -0.6630   -8.5317   -0.9445 C   0  0  0  0  0  0  0  0  0  0  0  0
   -0.4123   -8.3585   -2.3278 C   0  0  0  0  0  0  0  0  0  0  0  0
   -1.3214   -7.4908   -3.1533 C   0  0  0  0  0  0  0  0  0  0  0  0
   -2.3401   -7.0243   -2.6741 C   0  0  0  0  0  0  0  0  0  0  0  0
  1  2  1  0
  8  9  1  0
  7 10  1  0
  9 10  1  0
  9 11  2  0
  5 12  1  0
 12 13  1  0
 13 14  2  3
 14 15  1  0
 15 16  1  0
 10 17  1  6
 17 18  1  0
 18 19  1  0
 19 20  2  3
 20 21  1  0
  1  8  1  0
  2  3  2  0
  3  4  1  0
  4  5  2  0
  5  6  1  0
  6  7  2  0
  2  7  1  0
M  END

$$$$
No_2408-/export/home/yangzhenyu/potential_scad_32_flow//YTHDC2/2024-12-06-03-22-00/
     RDKit          3D

 19 21  0  0  1  0  0  0  0  0999 V2000
    1.1787   -8.0297    3.5154 C   0  0  0  0  0  0  0  0  0  0  0  0
    1.1048   -9.2215    3.2892 C   0  0  0  0  0  0  0  0  0  0  0  0
    1.3627  -10.1721    4.3044 C   0  0  0  0  0  0  0  0  0  0  0  0
    1.7354  -11.4730    3.9023 C   0  0  0  0  0  0  0  0  0  0  0  0
    1.8080  -11.8127    2.7216 C   0  0  0  0  0  0  0  0  0  0  0  0
    1.5854  -11.0021    1.7249 C   0  0  0  0  0  0  0  0  0  0  0  0
    1.3573   -9.7389    1.9287 C   0  0  0  0  0  0  0  0  0  0  0  0
    1.1102   -8.8712    0.9017 C   0  0  0  0  0  0  0  0  0  0  0  0
    0.5299   -7.6926    1.0325 C   0  0  0  0  0  0  0  0  0  0  0  0
    0.7526   -7.0802    2.3301 C   0  0  0  0  0  0  0  0  0  0  0  0
    2.0528  -13.2563    2.4302 C   0  0  2  0  0  0  0  0  0  0  0  0
    1.8212  -14.1942    3.3145 C   0  0  0  0  0  0  0  0  0  0  0  0
    1.9160  -15.5617    2.8462 C   0  0  0  0  0  0  0  0  0  0  0  0
    2.4671  -15.8123    1.6318 C   0  0  1  0  0  0  0  0  0  0  0  0
    2.8604  -14.8995    0.8644 S   0  0  0  0  0  0  0  0  0  0  0  0
    2.5850  -13.4768    1.3025 C   0  0  0  0  0  0  0  0  0  0  0  0
    0.5851   -5.7085    2.5422 F   0  0  0  0  0  0  0  0  0  0  0  0
    1.1555   -9.2939   -0.4239 O   0  0  0  0  0  0  0  0  0  0  0  0
    2.7468  -17.2349    1.4906 C   0  0  0  0  0  0  0  0  0  0  0  0
 11  5  1  1
 11 12  1  0
 12 13  2  0
 13 14  1  0
 14 15  1  0
 11 16  1  0
 15 16  1  0
 10 17  1  0
  8 18  1  0
 14 19  1  1
  1  2  2  0
  7  8  2  0
  8  9  1  0
  9 10  2  0
  1 10  1  0
  2  3  1  0
  3  4  2  0
  4  5  1  0
  5  6  2  0
  6  7  1  0
  2  7  1  0
M  END

$$$$
No_2409-/export/home/yangzhenyu/potential_scad_32_flow//YTHDC2/2024-12-06-03-22-00/
     RDKit          3D

 19 21  0  0  1  0  0  0  0  0999 V2000
    1.1787   -8.0297    3.5154 N   0  0  0  0  0  0  0  0  0  0  0  0
    0.8669   -7.0905    2.8589 C   0  0  0  0  0  0  0  0  0  0  0  0
    1.0447   -7.3244    1.4123 C   0  0  0  0  0  0  0  0  0  0  0  0
    1.3746   -8.4389    1.0864 C   0  0  2  0  0  0  0  0  0  0  0  0
    1.6686   -9.1952    2.5608 C   0  0  2  0  0  0  0  0  0  0  0  0
    1.9879  -10.3617    2.7281 C   0  0  0  0  0  0  0  0  0  0  0  0
    1.6558   -9.1219    0.0446 C   0  0  0  0  0  0  0  0  0  0  0  0
    1.4863  -10.3856   -0.1164 O   0  0  0  0  0  0  0  0  0  0  0  0
    1.9940   -8.4917   -1.0800 O   0  0  0  0  0  0  0  0  0  0  0  0
    1.9859  -10.8363    4.0534 C   0  0  0  0  0  0  0  0  0  0  0  0
    1.8335  -12.1676    4.3086 C   0  0  0  0  0  0  0  0  0  0  0  0
    1.0823  -12.7029    3.0447 C   0  0  0  0  0  0  0  0  0  0  0  0
    1.1839  -14.0843    2.7481 C   0  0  0  0  0  0  0  0  0  0  0  0
    0.8395  -14.4640    1.6063 C   0  0  0  0  0  0  0  0  0  0  0  0
    0.4520  -13.6074    0.7451 C   0  0  0  0  0  0  0  0  0  0  0  0
    0.3817  -12.3144    0.9066 C   0  0  0  0  0  0  0  0  0  0  0  0
    0.6891  -11.7987    2.0910 C   0  0  0  0  0  0  0  0  0  0  0  0
    2.2713  -11.2547    2.0129 N   0  0  0  0  0  0  0  0  0  0  0  0
    1.5973  -12.0287    1.4838 C   0  0  0  0  0  0  0  0  0  0  0  0
  1  2  1  0
  2  3  2  0
  3  4  1  0
  1  5  1  0
  4  5  1  0
  5  6  1  6
  4  7  1  6
  7  8  2  0
  7  9  1  0
  6 10  1  0
 10 11  1  0
 11 12  1  0
  6 18  1  0
 17 19  1  0
 18 19  1  0
 12 13  2  0
 13 14  1  0
 14 15  2  0
 15 16  1  0
 16 17  2  0
 12 17  1  0
M  END

$$$$
No_2410-/export/home/yangzhenyu/potential_scad_32_flow//YTHDC2/2024-12-06-03-22-00/
     RDKit          3D

 18 20  0  0  0  0  0  0  0  0999 V2000
    1.1787   -8.0297    3.5154 O   0  0  0  0  0  0  0  0  0  0  0  0
    0.9969   -8.9689    3.0048 C   0  0  0  0  0  0  0  0  0  0  0  0
    0.9976   -8.9567    1.6341 C   0  0  0  0  0  0  0  0  0  0  0  0
    0.7663   -7.7728    1.0082 C   0  0  0  0  0  0  0  0  0  0  0  0
    1.1468   -6.5619    1.6541 C   0  0  0  0  0  0  0  0  0  0  0  0
    1.3592   -6.6155    3.0007 C   0  0  0  0  0  0  0  0  0  0  0  0
    0.9781  -10.1276    3.6866 C   0  0  0  0  0  0  0  0  0  0  0  0
    0.8416  -11.3231    3.0392 C   0  0  0  0  0  0  0  0  0  0  0  0
    0.7167  -11.3237    1.7302 C   0  0  0  0  0  0  0  0  0  0  0  0
    0.8038  -10.1547    0.9754 C   0  0  0  0  0  0  0  0  0  0  0  0
    0.6994   -7.6913   -0.2367 O   0  0  0  0  0  0  0  0  0  0  0  0
    0.5491  -12.5326    0.9974 C   0  0  0  0  0  0  0  0  0  0  0  0
   -0.4210  -12.6205   -0.0216 C   0  0  0  0  0  0  0  0  0  0  0  0
   -0.7509  -13.9162   -0.4965 C   0  0  0  0  0  0  0  0  0  0  0  0
    0.1144  -15.0452   -0.1134 C   0  0  0  0  0  0  0  0  0  0  0  0
    1.1127  -14.9270    0.8171 C   0  0  0  0  0  0  0  0  0  0  0  0
    1.3611  -13.6250    1.4000 C   0  0  0  0  0  0  0  0  0  0  0  0
    1.6353   -5.6619    3.7843 C   0  0  0  0  0  0  0  0  0  0  0  0
  1  2  1  0
  3  4  1  0
  4  5  1  0
  1  6  1  0
  5  6  1  0
  4 11  2  0
  9 12  1  0
  6 18  1  0
 12 13  2  0
 13 14  1  0
 14 15  2  0
 15 16  1  0
 16 17  2  0
 12 17  1  0
  2  3  2  0
  3 10  1  0
  9 10  2  0
  8  9  1  0
  7  8  2  0
  2  7  1  0
M  END

$$$$
No_2411-/export/home/yangzhenyu/potential_scad_32_flow//YTHDC2/2024-12-06-03-22-00/
     RDKit          3D

 17 18  0  0  0  0  0  0  0  0999 V2000
    1.1787   -8.0297    3.5154 C   0  0  0  0  0  0  0  0  0  0  0  0
    1.0491   -6.8434    2.9820 C   0  0  0  0  0  0  0  0  0  0  0  0
    0.0950   -8.8404    3.2292 C   0  0  0  0  0  0  0  0  0  0  0  0
   -0.9173   -8.4596    2.5152 C   0  0  0  0  0  0  0  0  0  0  0  0
   -1.0331   -7.2162    2.0653 C   0  0  0  0  0  0  0  0  0  0  0  0
   -0.0105   -6.3168    2.3081 C   0  0  0  0  0  0  0  0  0  0  0  0
    0.0485   -4.9783    1.8782 C   0  0  0  0  0  0  0  0  0  0  0  0
   -0.6974   -4.6139    0.8644 C   0  0  0  0  0  0  0  0  0  0  0  0
   -0.9180   -3.5193    0.5673 C   0  0  0  0  0  0  0  0  0  0  0  0
   -0.1429   -2.4115    1.0656 C   0  0  0  0  0  0  0  0  0  0  0  0
    0.7432   -2.6592    1.9795 C   0  0  0  0  0  0  0  0  0  0  0  0
    0.8890   -3.9997    2.3855 C   0  0  0  0  0  0  0  0  0  0  0  0
    0.1075  -10.2415    3.7148 O   0  0  0  0  0  0  0  0  0  0  0  0
    0.5770  -11.2970    3.2357 C   0  0  0  0  0  0  0  0  0  0  0  0
   -0.1380  -11.9830    2.3860 C   0  0  0  0  0  0  0  0  0  0  0  0
   -0.0198  -13.0267    2.3893 C   0  0  0  0  0  0  0  0  0  0  0  0
    1.0838  -13.9128    3.0332 C   0  0  0  0  0  0  0  0  0  0  0  0
  6  7  1  0
  3 13  1  0
 13 14  1  0
 14 15  1  0
 15 16  2  3
 16 17  1  0
  1  2  2  0
  2  6  1  0
  5  6  2  0
  4  5  1  0
  3  4  2  0
  1  3  1  0
  7  8  2  0
  8  9  1  0
  9 10  2  0
 10 11  1  0
 11 12  2  0
  7 12  1  0
M  END

$$$$
No_2412-/export/home/yangzhenyu/potential_scad_32_flow//YTHDC2/2024-12-06-03-22-00/
     RDKit          3D

 16 17  0  0  0  0  0  0  0  0999 V2000
    1.1787   -8.0297    3.5154 C   0  0  0  0  0  0  0  0  0  0  0  0
    1.0491   -6.8434    2.9820 C   0  0  0  0  0  0  0  0  0  0  0  0
    0.9905   -9.0774    2.6527 C   0  0  0  0  0  0  0  0  0  0  0  0
    0.7897   -8.9519    1.3691 C   0  0  0  0  0  0  0  0  0  0  0  0
    0.7018   -7.7198    0.7892 C   0  0  0  0  0  0  0  0  0  0  0  0
    0.8918   -6.5957    1.6117 C   0  0  0  0  0  0  0  0  0  0  0  0
    1.0998  -10.4710    3.2437 C   0  0  0  0  0  0  0  0  0  0  0  0
    1.3102  -11.5554    2.5214 C   0  0  0  0  0  0  0  0  0  0  0  0
    1.4257  -12.8124    3.1919 C   0  0  0  0  0  0  0  0  0  0  0  0
    1.4301  -14.0627    2.4374 C   0  0  0  0  0  0  0  0  0  0  0  0
    1.7236  -14.1043    1.1376 C   0  0  0  0  0  0  0  0  0  0  0  0
    1.7793  -12.8580    0.4486 C   0  0  0  0  0  0  0  0  0  0  0  0
    1.5752  -11.6484    1.1450 C   0  0  0  0  0  0  0  0  0  0  0  0
    0.8627   -5.2820    1.1784 C   0  0  0  0  0  0  0  0  0  0  0  0
    0.1421   -4.3114    1.9649 C   0  0  0  0  0  0  0  0  0  0  0  0
   -1.2012   -4.3967    1.8710 C   0  0  0  0  0  0  0  0  0  0  0  0
  3  7  1  0
  6 14  1  0
 14 15  1  0
 15 16  1  0
  7  8  1  0
  1  2  2  0
  2  6  1  0
  5  6  2  0
  4  5  1  0
  3  4  2  0
  1  3  1  0
  8  9  2  0
  9 10  1  0
 10 11  2  0
 11 12  1  0
 12 13  2  0
  8 13  1  0
M  END

$$$$
No_2413-/export/home/yangzhenyu/potential_scad_32_flow//YTHDC2/2024-12-06-03-22-00/
     RDKit          3D

 19 20  0  0  1  0  0  0  0  0999 V2000
    1.1787   -8.0297    3.5154 N   0  0  0  0  0  0  0  0  0  0  0  0
    1.0818   -9.0751    3.2053 C   0  0  0  0  0  0  0  0  0  0  0  0
    0.7576   -9.3725    1.9159 C   0  0  0  0  0  0  0  0  0  0  0  0
    0.8823   -8.4917    1.0547 C   0  0  1  0  0  0  0  0  0  0  0  0
    1.5589   -7.2414    1.9015 C   0  0  0  0  0  0  0  0  0  0  0  0
    0.9727   -8.3150   -0.2115 C   0  0  0  0  0  0  0  0  0  0  0  0
   -0.3709   -8.4169   -0.7155 C   0  0  0  0  0  0  0  0  0  0  0  0
   -1.4548   -8.5997    0.2027 C   0  0  0  0  0  0  0  0  0  0  0  0
   -2.2560   -9.5798    0.0556 C   0  0  0  0  0  0  0  0  0  0  0  0
   -3.3307   -9.7268    0.8990 C   0  0  0  0  0  0  0  0  0  0  0  0
   -4.2212   -8.7297    1.1899 C   0  0  0  0  0  0  0  0  0  0  0  0
   -3.4801   -7.4135    1.0549 C   0  0  0  0  0  0  0  0  0  0  0  0
   -2.2074   -7.2993    0.4727 C   0  0  0  0  0  0  0  0  0  0  0  0
    1.0496  -10.0106    4.3435 C   0  0  0  0  0  0  0  0  0  0  0  0
    0.9327  -11.5206    3.9031 C   0  0  0  0  0  0  0  0  0  0  0  0
    0.7126  -11.8541    2.7564 C   0  0  0  0  0  0  0  0  0  0  0  0
    0.5008  -13.2039    2.3231 C   0  0  0  0  0  0  0  0  0  0  0  0
    0.0059  -13.4448    1.2219 C   0  0  0  0  0  0  0  0  0  0  0  0
   -0.2603  -12.1057    0.5569 C   0  0  0  0  0  0  0  0  0  0  0  0
  1  2  1  0
  2  3  2  0
  3  4  1  0
  1  5  2  0
  4  5  1  0
  4  6  1  6
  6  7  2  3
  7  8  1  0
  2 14  1  0
 14 15  2  3
 15 16  1  0
 16 17  1  0
 17 18  2  3
 18 19  1  0
  8  9  2  0
  9 10  1  0
 10 11  2  0
 11 12  1  0
 12 13  2  0
  8 13  1  0
M  END

$$$$
No_2414-/export/home/yangzhenyu/potential_scad_32_flow//YTHDC2/2024-12-06-03-22-00/
     RDKit          3D

 18 19  0  0  1  0  0  0  0  0999 V2000
    1.1787   -8.0297    3.5154 C   0  0  0  0  0  0  0  0  0  0  0  0
    1.0491   -6.8434    2.9820 C   0  0  0  0  0  0  0  0  0  0  0  0
    0.9905   -9.0774    2.6527 C   0  0  0  0  0  0  0  0  0  0  0  0
    0.7897   -8.9519    1.3691 C   0  0  0  0  0  0  0  0  0  0  0  0
    0.7018   -7.7198    0.7892 C   0  0  0  0  0  0  0  0  0  0  0  0
    0.8918   -6.5957    1.6117 C   0  0  0  0  0  0  0  0  0  0  0  0
    1.0998  -10.4710    3.2437 C   0  0  0  0  0  0  0  0  0  0  0  0
    1.3102  -11.5554    2.5214 C   0  0  0  0  0  0  0  0  0  0  0  0
    1.4257  -12.8124    3.1919 C   0  0  0  0  0  0  0  0  0  0  0  0
    0.9222  -13.9339    2.5039 C   0  0  2  0  0  0  0  0  0  0  0  0
   -0.1904  -14.0081    1.9344 C   0  0  0  0  0  0  0  0  0  0  0  0
    0.8519   -5.2583    1.2471 O   0  0  0  0  0  0  0  0  0  0  0  0
   -0.5834  -15.0801    1.6026 C   0  0  0  0  0  0  0  0  0  0  0  0
    0.6751  -16.1110    1.8796 C   0  0  0  0  0  0  0  0  0  0  0  0
    1.4322  -15.2335    2.5051 C   0  0  1  0  0  0  0  0  0  0  0  0
    2.6938  -15.5183    2.9665 C   0  0  0  0  0  0  0  0  0  0  0  0
    3.1022  -16.9337    2.8388 C   0  0  0  0  0  0  0  0  0  0  0  0
    2.2560  -17.7772    2.1061 C   0  0  0  0  0  0  0  0  0  0  0  0
  1  2  1  0
  3  4  1  0
  2  6  1  0
  5  6  1  0
  3  7  1  0
  7  8  2  3
  8  9  1  0
 10  9  1  1
 10 11  1  0
  6 12  2  0
 11 13  2  0
 13 14  1  0
 10 15  1  0
 15 14  1  6
 15 16  1  0
 16 17  2  3
 17 18  1  0
  1  3  1  0
  4  5  1  0
M  END

$$$$
No_2415-/export/home/yangzhenyu/potential_scad_32_flow//YTHDC2/2024-12-06-03-22-00/
     RDKit          3D

 18 20  0  0  0  0  0  0  0  0999 V2000
    1.1787   -8.0297    3.5154 C   0  0  0  0  0  0  0  0  0  0  0  0
    1.0491   -6.8434    2.9820 C   0  0  0  0  0  0  0  0  0  0  0  0
    0.0950   -8.8404    3.2292 C   0  0  0  0  0  0  0  0  0  0  0  0
   -0.9173   -8.4596    2.5152 C   0  0  0  0  0  0  0  0  0  0  0  0
   -1.0331   -7.2162    2.0653 C   0  0  0  0  0  0  0  0  0  0  0  0
   -0.0105   -6.3168    2.3081 C   0  0  0  0  0  0  0  0  0  0  0  0
    0.1465  -10.2446    3.6981 C   0  0  0  0  0  0  0  0  0  0  0  0
    1.2433  -10.8239    4.0166 C   0  0  0  0  0  0  0  0  0  0  0  0
    1.6493  -11.8557    3.2298 C   0  0  0  0  0  0  0  0  0  0  0  0
    0.6072  -12.5513    2.5842 C   0  0  0  0  0  0  0  0  0  0  0  0
   -0.6190  -12.0765    2.4890 C   0  0  0  0  0  0  0  0  0  0  0  0
   -0.9051  -10.9138    3.1519 C   0  0  0  0  0  0  0  0  0  0  0  0
    0.9457  -13.8760    2.1195 C   0  0  0  0  0  0  0  0  0  0  0  0
    0.4790  -14.4433    1.0404 C   0  0  0  0  0  0  0  0  0  0  0  0
    2.1900  -14.5371    2.6233 C   0  0  0  0  0  0  0  0  0  0  0  0
    0.8000  -15.6208    0.6602 C   0  0  0  0  0  0  0  0  0  0  0  0
    1.8582  -16.3247    1.2127 C   0  0  0  0  0  0  0  0  0  0  0  0
    2.5161  -15.7987    2.2785 C   0  0  0  0  0  0  0  0  0  0  0  0
  3  7  1  0
 10 13  1  0
  1  2  2  0
  2  6  1  0
  5  6  2  0
  4  5  1  0
  3  4  2  0
  1  3  1  0
 13 14  2  0
 14 16  1  0
 16 17  2  0
 17 18  1  0
 15 18  2  0
 13 15  1  0
  7  8  2  0
  8  9  1  0
  9 10  2  0
 10 11  1  0
 11 12  2  0
  7 12  1  0
M  END

$$$$
No_2416-/export/home/yangzhenyu/potential_scad_32_flow//YTHDC2/2024-12-06-03-22-00/
     RDKit          3D

 17 18  0  0  0  0  0  0  0  0999 V2000
    1.1787   -8.0297    3.5154 C   0  0  0  0  0  0  0  0  0  0  0  0
    1.1048   -9.2215    3.2892 C   0  0  0  0  0  0  0  0  0  0  0  0
    1.3627  -10.1721    4.3044 C   0  0  0  0  0  0  0  0  0  0  0  0
    1.0682  -11.5187    4.0618 C   0  0  0  0  0  0  0  0  0  0  0  0
    0.6332  -11.9655    2.9682 C   0  0  0  0  0  0  0  0  0  0  0  0
    0.4776  -11.1308    1.9203 C   0  0  0  0  0  0  0  0  0  0  0  0
    0.7470   -9.8274    2.0368 C   0  0  0  0  0  0  0  0  0  0  0  0
    1.0387   -7.0301    2.5175 C   0  0  0  0  0  0  0  0  0  0  0  0
    0.9130   -7.5288    1.2013 C   0  0  0  0  0  0  0  0  0  0  0  0
    0.7893   -8.7979    0.9542 C   0  0  0  0  0  0  0  0  0  0  0  0
    0.5241   -9.2578   -0.2817 C   0  0  0  0  0  0  0  0  0  0  0  0
   -0.1121   -8.6523   -1.0898 O   0  0  0  0  0  0  0  0  0  0  0  0
    0.4916  -13.3676    2.6814 C   0  0  0  0  0  0  0  0  0  0  0  0
   -0.7278  -13.8133    2.2836 O   0  0  0  0  0  0  0  0  0  0  0  0
    1.1697  -14.3535    3.3199 O   0  0  0  0  0  0  0  0  0  0  0  0
    1.1000  -10.2420   -0.7910 O   0  0  0  0  0  0  0  0  0  0  0  0
    1.2872   -5.6032    2.7266 O   0  0  0  0  0  0  0  0  0  0  0  0
 10 11  1  0
 11 12  2  0
  5 13  1  0
 13 14  2  0
 13 15  1  0
 11 16  1  0
  8 17  1  0
  2  3  1  0
  3  4  2  0
  4  5  1  0
  5  6  2  0
  6  7  1  0
  1  2  2  0
  2  7  1  0
  7 10  2  0
  9 10  1  0
  8  9  2  0
  1  8  1  0
M  END

$$$$
No_2417-/export/home/yangzhenyu/potential_scad_32_flow//YTHDC2/2024-12-06-03-22-00/
     RDKit          3D

 19 21  0  0  0  0  0  0  0  0999 V2000
    1.1787   -8.0297    3.5154 C   0  0  0  0  0  0  0  0  0  0  0  0
    1.0491   -6.8434    2.9820 C   0  0  0  0  0  0  0  0  0  0  0  0
    0.9905   -9.0774    2.6527 C   0  0  0  0  0  0  0  0  0  0  0  0
    1.1655  -10.4663    3.1286 C   0  0  0  0  0  0  0  0  0  0  0  0
    1.2197  -11.4898    2.5831 C   0  0  0  0  0  0  0  0  0  0  0  0
    1.5411  -12.7330    3.1052 C   0  0  0  0  0  0  0  0  0  0  0  0
    0.6212   -6.5301    1.7066 C   0  0  0  0  0  0  0  0  0  0  0  0
    0.4208   -7.5365    0.9144 C   0  0  0  0  0  0  0  0  0  0  0  0
    0.5253   -8.8638    1.3136 C   0  0  0  0  0  0  0  0  0  0  0  0
    1.2829  -13.9924    2.3719 C   0  0  0  0  0  0  0  0  0  0  0  0
    0.9070  -14.1247    1.1919 C   0  0  0  0  0  0  0  0  0  0  0  0
    0.8306  -15.4026    0.5445 C   0  0  0  0  0  0  0  0  0  0  0  0
    1.0020  -16.5037    1.2188 C   0  0  0  0  0  0  0  0  0  0  0  0
    1.3257  -16.4408    2.6705 C   0  0  0  0  0  0  0  0  0  0  0  0
    1.4567  -15.0865    3.2686 C   0  0  0  0  0  0  0  0  0  0  0  0
    0.3217   -9.8340    0.3913 C   0  0  0  0  0  0  0  0  0  0  0  0
    0.7642  -11.4047    1.1278 C   0  0  0  0  0  0  0  0  0  0  0  0
   -0.1487   -9.9257   -0.6228 C   0  0  0  0  0  0  0  0  0  0  0  0
    0.2529   -9.0258   -1.6141 C   0  0  0  0  0  0  0  0  0  0  0  0
  5  6  1  0
  6 10  1  0
 16 18  1  0
 18 19  1  0
  3  4  2  0
  4  5  1  0
  5 17  2  0
 16 17  1  0
  9 16  2  0
 10 11  2  0
 11 12  1  0
 12 13  2  0
 13 14  1  0
 14 15  2  0
 10 15  1  0
  1  2  2  0
  2  7  1  0
  7  8  2  0
  8  9  1  0
  3  9  1  0
  1  3  1  0
M  END

$$$$
No_2418-/export/home/yangzhenyu/potential_scad_32_flow//YTHDC2/2024-12-06-03-22-00/
     RDKit          3D

 18 19  0  0  0  0  0  0  0  0999 V2000
    1.1787   -8.0297    3.5154 C   0  0  0  0  0  0  0  0  0  0  0  0
    1.1048   -9.2215    3.2892 C   0  0  0  0  0  0  0  0  0  0  0  0
    1.2339   -9.7611    2.0189 C   0  0  0  0  0  0  0  0  0  0  0  0
    1.3583   -9.0036    0.9764 C   0  0  0  0  0  0  0  0  0  0  0  0
    1.5996   -7.6362    1.1311 C   0  0  0  0  0  0  0  0  0  0  0  0
    1.4830   -7.0928    2.3626 C   0  0  0  0  0  0  0  0  0  0  0  0
    1.1008  -11.2372    1.8542 C   0  0  0  0  0  0  0  0  0  0  0  0
    1.9749  -12.0938    2.2342 C   0  0  0  0  0  0  0  0  0  0  0  0
    1.7533  -13.4231    1.8956 C   0  0  0  0  0  0  0  0  0  0  0  0
    0.8624  -13.8318    1.1071 C   0  0  0  0  0  0  0  0  0  0  0  0
   -0.0624  -12.9093    0.5581 C   0  0  0  0  0  0  0  0  0  0  0  0
    0.1157  -11.5285    0.9404 C   0  0  0  0  0  0  0  0  0  0  0  0
    1.5561   -5.6354    2.6426 O   0  0  0  0  0  0  0  0  0  0  0  0
   -0.8303  -10.6355    0.4874 C   0  0  0  0  0  0  0  0  0  0  0  0
   -0.9865  -10.1743   -0.7248 C   0  0  0  0  0  0  0  0  0  0  0  0
   -1.4462   -9.1569   -1.1964 C   0  0  0  0  0  0  0  0  0  0  0  0
   -2.3180   -8.4335   -0.3478 C   0  0  0  0  0  0  0  0  0  0  0  0
   -2.4288   -8.8678    0.9980 C   0  0  0  0  0  0  0  0  0  0  0  0
  3  7  1  0
  6 13  1  0
 12 14  1  0
 14 15  1  0
 15 16  2  3
 16 17  1  0
 17 18  2  0
  1  2  2  0
  2  3  1  0
  3  4  2  0
  4  5  1  0
  5  6  2  0
  1  6  1  0
  7  8  2  0
  8  9  1  0
  9 10  2  0
 10 11  1  0
 11 12  2  0
  7 12  1  0
M  END

$$$$
No_2419-/export/home/yangzhenyu/potential_scad_32_flow//YTHDC2/2024-12-06-03-22-00/
     RDKit          3D

 17 17  0  0  0  0  0  0  0  0999 V2000
    1.1787   -8.0297    3.5154 N   0  0  0  0  0  0  0  0  0  0  0  0
    1.0818   -9.0751    3.2053 C   0  0  0  0  0  0  0  0  0  0  0  0
    0.7576   -9.3725    1.9159 C   0  0  0  0  0  0  0  0  0  0  0  0
    0.8823   -8.4917    1.0547 C   0  0  0  0  0  0  0  0  0  0  0  0
    1.4631   -7.3107    1.2451 C   0  0  0  0  0  0  0  0  0  0  0  0
    1.6470   -6.9326    2.5669 C   0  0  0  0  0  0  0  0  0  0  0  0
    0.8237  -10.1305    4.2407 C   0  0  0  0  0  0  0  0  0  0  0  0
   -0.4178  -10.6899    4.4426 O   0  0  0  0  0  0  0  0  0  0  0  0
    1.8691  -10.7283    4.8024 O   0  0  0  0  0  0  0  0  0  0  0  0
    0.8369   -8.9191   -0.4044 Cl  0  0  0  0  0  0  0  0  0  0  0  0
    1.8092   -5.6119    3.0646 C   0  0  0  0  0  0  0  0  0  0  0  0
    1.9012   -5.3543    4.3153 O   0  0  0  0  0  0  0  0  0  0  0  0
    1.4263   -4.6057    2.1480 O   0  0  0  0  0  0  0  0  0  0  0  0
    0.5388  -10.7813    1.5037 N   0  0  0  0  0  0  0  0  0  0  0  0
    1.5226  -11.7077    1.0754 C   0  0  0  0  0  0  0  0  0  0  0  0
    1.1410  -13.0283    0.8787 C   0  0  0  0  0  0  0  0  0  0  0  0
    1.8942  -14.1024    1.1325 C   0  0  0  0  0  0  0  0  0  0  0  0
  2  7  1  0
  7  8  1  0
  7  9  2  0
  4 10  1  0
  6 11  1  0
 11 12  2  0
 11 13  1  0
  3 14  1  0
 14 15  1  0
 15 16  1  0
 16 17  1  0
  1  2  2  0
  2  3  1  0
  3  4  2  0
  4  5  1  0
  5  6  2  0
  1  6  1  0
M  END

$$$$
No_2420-/export/home/yangzhenyu/potential_scad_32_flow//YTHDC2/2024-12-06-03-22-00/
     RDKit          3D

 16 16  0  0  0  0  0  0  0  0999 V2000
    1.1787   -8.0297    3.5154 N   0  0  0  0  0  0  0  0  0  0  0  0
    0.8669   -7.0905    2.8589 C   0  0  0  0  0  0  0  0  0  0  0  0
    1.0447   -7.3244    1.4123 C   0  0  0  0  0  0  0  0  0  0  0  0
    1.3746   -8.4389    1.0864 C   0  0  0  0  0  0  0  0  0  0  0  0
    1.8493   -9.4093    1.8124 C   0  0  0  0  0  0  0  0  0  0  0  0
    1.7421   -9.2119    3.1541 C   0  0  0  0  0  0  0  0  0  0  0  0
    2.0453  -10.3375    4.1403 C   0  0  0  0  0  0  0  0  0  0  0  0
    1.7458   -8.7074   -0.3893 C   0  0  0  0  0  0  0  0  0  0  0  0
    0.9773   -8.9618   -1.0049 O   0  0  0  0  0  0  0  0  0  0  0  0
    2.9629   -8.4666   -0.9298 O   0  0  0  0  0  0  0  0  0  0  0  0
    1.9445  -11.5658    3.9297 N   0  0  0  0  0  0  0  0  0  0  0  0
    0.7275  -12.1415    3.6493 C   0  0  0  0  0  0  0  0  0  0  0  0
    0.4448  -12.2935    2.5077 O   0  0  0  0  0  0  0  0  0  0  0  0
    3.2752   -9.9803    4.9073 O   0  0  0  0  0  0  0  0  0  0  0  0
    0.1530  -12.9260    4.5260 N   0  0  0  0  0  0  0  0  0  0  0  0
    0.5063   -5.8611    3.3415 Cl  0  0  0  0  0  0  0  0  0  0  0  0
  6  7  1  0
  4  8  1  0
  8  9  2  0
  8 10  1  0
  7 11  1  0
 11 12  1  0
 12 13  2  0
  7 14  2  0
 12 15  1  0
  2 16  1  0
  1  2  2  0
  2  3  1  0
  3  4  2  0
  4  5  1  0
  5  6  2  0
  1  6  1  0
M  END

$$$$
No_2421-/export/home/yangzhenyu/potential_scad_32_flow//YTHDC2/2024-12-06-03-22-00/
     RDKit          3D

 17 18  0  0  0  0  0  0  0  0999 V2000
    1.1787   -8.0297    3.5154 C   0  0  0  0  0  0  0  0  0  0  0  0
    1.1048   -9.2215    3.2892 C   0  0  0  0  0  0  0  0  0  0  0  0
    1.3627  -10.1721    4.3044 C   0  0  0  0  0  0  0  0  0  0  0  0
    2.3720  -10.8948    4.2468 C   0  0  0  0  0  0  0  0  0  0  0  0
    0.8234   -7.0464    2.5717 C   0  0  0  0  0  0  0  0  0  0  0  0
    0.4328   -7.4736    1.3042 C   0  0  0  0  0  0  0  0  0  0  0  0
    0.3532   -8.7488    0.9919 C   0  0  0  0  0  0  0  0  0  0  0  0
    0.7039   -9.7094    1.9672 C   0  0  0  0  0  0  0  0  0  0  0  0
    0.6986  -10.9809    1.7122 C   0  0  0  0  0  0  0  0  0  0  0  0
   -0.1824  -11.8267    2.1190 C   0  0  0  0  0  0  0  0  0  0  0  0
   -0.1572  -13.2235    1.7456 C   0  0  0  0  0  0  0  0  0  0  0  0
   -1.1311  -13.8738    1.3863 C   0  0  0  0  0  0  0  0  0  0  0  0
   -1.0709  -15.2160    1.0730 C   0  0  0  0  0  0  0  0  0  0  0  0
    0.1162  -15.8737    1.1862 C   0  0  0  0  0  0  0  0  0  0  0  0
    1.1852  -15.3146    1.7737 C   0  0  0  0  0  0  0  0  0  0  0  0
    1.1159  -13.9460    2.1540 C   0  0  0  0  0  0  0  0  0  0  0  0
    2.3861  -15.9773    2.1180 C   0  0  0  0  0  0  0  0  0  0  0  0
  2  3  1  0
  3  4  1  0
  8  9  1  0
  9 10  2  3
 10 11  1  0
 15 17  1  0
 11 12  2  0
 12 13  1  0
 13 14  2  0
 14 15  1  0
 15 16  2  0
 11 16  1  0
  1  2  2  0
  2  8  1  0
  7  8  2  0
  6  7  1  0
  5  6  2  0
  1  5  1  0
M  END

$$$$
No_2422-/export/home/yangzhenyu/potential_scad_32_flow//YTHDC2/2024-12-06-03-22-00/
     RDKit          3D

 20 21  0  0  1  0  0  0  0  0999 V2000
    1.1787   -8.0297    3.5154 C   0  0  0  0  0  0  0  0  0  0  0  0
    1.0491   -6.8434    2.9820 C   0  0  0  0  0  0  0  0  0  0  0  0
    0.9905   -9.0774    2.6527 C   0  0  0  0  0  0  0  0  0  0  0  0
    1.1655  -10.4663    3.1286 C   0  0  0  0  0  0  0  0  0  0  0  0
    1.2197  -11.4898    2.5831 C   0  0  0  0  0  0  0  0  0  0  0  0
    1.0589  -11.4458    1.1293 C   0  0  0  0  0  0  0  0  0  0  0  0
    0.9638  -10.3069    0.4651 C   0  0  0  0  0  0  0  0  0  0  0  0
    0.9191   -9.0789    1.1942 C   0  0  0  0  0  0  0  0  0  0  0  0
    0.9103   -7.8220    0.6974 C   0  0  0  0  0  0  0  0  0  0  0  0
    1.0140   -6.6889    1.5108 C   0  0  1  0  0  0  0  0  0  0  0  0
    1.3869  -13.0428    3.1979 C   0  0  0  0  0  0  0  0  0  0  0  0
    1.2437  -14.0599    2.2202 C   0  0  1  0  0  0  0  0  0  0  0  0
    2.5081  -14.5936    1.9110 C   0  0  0  0  0  0  0  0  0  0  0  0
    1.4224   -5.6165    3.6444 O   0  0  0  0  0  0  0  0  0  0  0  0
    0.3073  -15.1042    2.5825 C   0  0  0  0  0  0  0  0  0  0  0  0
   -0.7566  -15.2237    2.3066 O   0  0  0  0  0  0  0  0  0  0  0  0
    0.8649  -16.0835    3.5152 O   0  0  0  0  0  0  0  0  0  0  0  0
    0.9963   -5.4138    0.9660 O   0  0  0  0  0  0  0  0  0  0  0  0
    2.9466  -14.1462    0.6257 N   0  0  0  0  0  0  0  0  0  0  0  0
    2.3624  -13.5296    0.0793 H   0  0  0  0  0  0  0  0  0  0  0  0
  1  2  1  0
  8  9  1  0
  2 10  1  0
  5 11  1  0
 12 11  1  1
 12 13  1  0
  2 14  2  0
 12 15  1  0
 15 16  2  0
 15 17  1  0
 10 18  1  1
 13 19  2  0
  1  3  1  0
  9 10  1  0
  3  4  2  0
  4  5  1  0
  5  6  2  0
  6  7  1  0
  7  8  2  0
  3  8  1  0
 19 20  1  0
M  END

$$$$
No_2423-/export/home/yangzhenyu/potential_scad_32_flow//YTHDC2/2024-12-06-03-22-00/
     RDKit          3D

 19 21  0  0  1  0  0  0  0  0999 V2000
    1.1787   -8.0297    3.5154 C   0  0  0  0  0  0  0  0  0  0  0  0
    1.1048   -9.2215    3.2892 C   0  0  0  0  0  0  0  0  0  0  0  0
    1.2339   -9.7611    2.0189 C   0  0  0  0  0  0  0  0  0  0  0  0
    1.3583   -9.0036    0.9764 C   0  0  0  0  0  0  0  0  0  0  0  0
    1.5996   -7.6362    1.1311 C   0  0  0  0  0  0  0  0  0  0  0  0
    1.4830   -7.0928    2.3626 C   0  0  0  0  0  0  0  0  0  0  0  0
    1.1171  -11.3311    1.8661 C   0  0  1  0  0  0  0  0  0  0  0  0
    0.5022  -11.6388    0.6531 C   0  0  0  0  0  0  0  0  0  0  0  0
    0.5683  -13.0838    0.5424 N   0  0  0  0  0  0  0  0  0  0  0  0
    1.5836  -12.2685    2.4013 C   0  0  0  0  0  0  0  0  0  0  0  0
    1.3386  -13.4218    1.6543 C   0  0  0  0  0  0  0  0  0  0  0  0
    1.5286   -5.6350    2.6529 Cl  0  0  0  0  0  0  0  0  0  0  0  0
    1.6545  -14.7676    2.0902 C   0  0  0  0  0  0  0  0  0  0  0  0
    0.8637  -15.5401    2.8298 C   0  0  0  0  0  0  0  0  0  0  0  0
    1.2312  -16.7647    3.3614 C   0  0  0  0  0  0  0  0  0  0  0  0
    2.4509  -17.2678    3.0283 C   0  0  0  0  0  0  0  0  0  0  0  0
    3.3480  -16.5741    2.1288 C   0  0  0  0  0  0  0  0  0  0  0  0
    2.9284  -15.3797    1.6566 C   0  0  0  0  0  0  0  0  0  0  0  0
    3.8078  -14.6087    1.1272 O   0  0  0  0  0  0  0  0  0  0  0  0
  7  3  1  6
  7  8  1  0
  8  9  2  0
  7 10  1  0
  9 11  1  0
 10 11  2  0
  6 12  1  0
 11 13  1  0
 13 14  1  0
 15 16  1  0
 13 18  1  0
 17 18  1  0
 18 19  2  0
 14 15  1  0
 16 17  1  0
  1  2  2  0
  2  3  1  0
  3  4  2  0
  4  5  1  0
  5  6  2  0
  1  6  1  0
M  END

$$$$
No_2424-/export/home/yangzhenyu/potential_scad_32_flow//YTHDC2/2024-12-06-03-22-00/
     RDKit          3D

 19 19  0  0  1  0  0  0  0  0999 V2000
    1.1787   -8.0297    3.5154 C   0  0  0  0  0  0  0  0  0  0  0  0
    1.1048   -9.2215    3.2892 C   0  0  0  0  0  0  0  0  0  0  0  0
    1.2339   -9.7611    2.0189 C   0  0  0  0  0  0  0  0  0  0  0  0
    1.3583   -9.0036    0.9764 C   0  0  0  0  0  0  0  0  0  0  0  0
    1.5996   -7.6362    1.1311 C   0  0  0  0  0  0  0  0  0  0  0  0
    1.4830   -7.0928    2.3626 C   0  0  0  0  0  0  0  0  0  0  0  0
    1.1008  -11.2372    1.8542 C   0  0  1  0  0  0  0  0  0  0  0  0
    0.4812  -11.6084    0.6459 O   0  0  0  0  0  0  0  0  0  0  0  0
    1.6571  -12.0577    2.5947 C   0  0  0  0  0  0  0  0  0  0  0  0
    1.0851  -13.1519    2.8938 O   0  0  0  0  0  0  0  0  0  0  0  0
    1.5829   -5.4362    2.7057 C   0  0  0  0  0  0  0  0  0  0  0  0
    0.6684   -4.7838    2.6072 O   0  0  0  0  0  0  0  0  0  0  0  0
    2.6263  -11.7440    3.5348 O   0  0  0  0  0  0  0  0  0  0  0  0
    1.5822   -9.4160   -0.3379 C   0  0  0  0  0  0  0  0  0  0  0  0
    1.7132   -8.7543   -1.2544 O   0  0  0  0  0  0  0  0  0  0  0  0
    1.3310  -10.6034   -0.6324 Cl  0  0  0  0  0  0  0  0  0  0  0  0
    2.5145   -5.0808    2.8577 O   0  0  0  0  0  0  0  0  0  0  0  0
   -0.4024  -12.4982    0.9297 C   0  0  0  0  0  0  0  0  0  0  0  0
   -0.3943  -13.6447    0.1445 C   0  0  0  0  0  0  0  0  0  0  0  0
  3  7  1  0
  7  8  1  6
  7  9  1  0
  9 10  2  0
  6 11  1  0
 11 12  2  0
  9 13  1  0
  4 14  1  0
 14 15  2  0
 14 16  1  0
 11 17  1  0
  8 18  1  0
 18 19  1  0
  1  2  2  0
  2  3  1  0
  3  4  2  0
  4  5  1  0
  5  6  2  0
  1  6  1  0
M  END

$$$$
No_2425-/export/home/yangzhenyu/potential_scad_32_flow//YTHDC2/2024-12-06-03-22-00/
     RDKit          3D

 17 18  0  0  0  0  0  0  0  0999 V2000
    1.1787   -8.0297    3.5154 C   0  0  0  0  0  0  0  0  0  0  0  0
    1.0491   -6.8434    2.9820 C   0  0  0  0  0  0  0  0  0  0  0  0
    0.9905   -9.0774    2.6527 C   0  0  0  0  0  0  0  0  0  0  0  0
    0.7897   -8.9519    1.3691 C   0  0  0  0  0  0  0  0  0  0  0  0
    0.7018   -7.7198    0.7892 C   0  0  0  0  0  0  0  0  0  0  0  0
    0.8918   -6.5957    1.6117 C   0  0  0  0  0  0  0  0  0  0  0  0
    1.0600  -10.5680    3.3321 C   0  0  0  0  0  0  0  0  0  0  0  0
   -0.1041  -11.1772    3.5150 C   0  0  0  0  0  0  0  0  0  0  0  0
   -0.1608  -12.4876    3.3268 C   0  0  0  0  0  0  0  0  0  0  0  0
    0.9865  -13.2841    3.1741 C   0  0  0  0  0  0  0  0  0  0  0  0
    2.2316  -12.5817    3.0045 C   0  0  0  0  0  0  0  0  0  0  0  0
    2.2290  -11.2587    2.9229 C   0  0  0  0  0  0  0  0  0  0  0  0
    0.9652  -14.6598    3.2128 O   0  0  0  0  0  0  0  0  0  0  0  0
    0.8565   -5.2742    1.1203 C   0  0  0  0  0  0  0  0  0  0  0  0
    0.2010   -4.2227    1.8977 C   0  0  0  0  0  0  0  0  0  0  0  0
    0.9607   -3.3065    2.4814 C   0  0  0  0  0  0  0  0  0  0  0  0
    0.3326   -2.5165    3.5282 C   0  0  0  0  0  0  0  0  0  0  0  0
  3  7  1  0
 10 13  1  0
  6 14  1  0
 14 15  1  0
 15 16  1  0
 16 17  2  0
  1  2  2  0
  2  6  1  0
  5  6  2  0
  4  5  1  0
  3  4  2  0
  1  3  1  0
  7  8  2  0
  8  9  1  0
  9 10  2  0
 10 11  1  0
 11 12  2  0
  7 12  1  0
M  END

$$$$
No_2426-/export/home/yangzhenyu/potential_scad_32_flow//YTHDC2/2024-12-06-03-22-00/
     RDKit          3D

 20 21  0  0  1  0  0  0  0  0999 V2000
    1.1787   -8.0297    3.5154 C   0  0  0  0  0  0  0  0  0  0  0  0
    1.1048   -9.2215    3.2892 C   0  0  0  0  0  0  0  0  0  0  0  0
    1.3627  -10.1721    4.3044 C   0  0  0  0  0  0  0  0  0  0  0  0
    1.0682  -11.5187    4.0618 C   0  0  0  0  0  0  0  0  0  0  0  0
    0.6332  -11.9655    2.9682 C   0  0  0  0  0  0  0  0  0  0  0  0
    0.4776  -11.1308    1.9203 C   0  0  0  0  0  0  0  0  0  0  0  0
    0.7470   -9.8274    2.0368 C   0  0  0  0  0  0  0  0  0  0  0  0
    0.5536   -7.1314    2.6861 N   0  0  0  0  0  0  0  0  0  0  0  0
    0.3069   -7.6119    1.3920 C   0  0  0  0  0  0  0  0  0  0  0  0
    0.2579   -8.8240    1.1187 C   0  0  2  0  0  0  0  0  0  0  0  0
   -0.0936   -6.6529    0.5865 O   0  0  0  0  0  0  0  0  0  0  0  0
    0.4909  -13.3930    2.7171 N   0  0  0  0  0  0  0  0  0  0  0  0
    0.7572  -13.9565    1.7604 C   0  0  0  0  0  0  0  0  0  0  0  0
    1.4498  -14.7775    1.6595 C   0  0  0  0  0  0  0  0  0  0  0  0
    2.4885  -14.9457    2.8230 C   0  0  0  0  0  0  0  0  0  0  0  0
   -0.4551   -9.2739    0.0399 C   0  0  0  0  0  0  0  0  0  0  0  0
    0.2634   -9.2041   -1.2002 O   0  0  0  0  0  0  0  0  0  0  0  0
   -1.7245   -9.3753   -0.0674 O   0  0  0  0  0  0  0  0  0  0  0  0
   -0.2196  -13.8537    0.5891 C   0  0  0  0  0  0  0  0  0  0  0  0
   -1.4209  -13.6100    0.6822 C   0  0  0  0  0  0  0  0  0  0  0  0
  1  2  1  0
  8  9  1  0
  7 10  1  0
  9 10  1  0
  9 11  2  0
  5 12  1  0
 12 13  1  0
 13 14  2  3
 14 15  1  0
 10 16  1  1
 16 17  1  0
 16 18  2  0
 13 19  1  0
 19 20  1  0
  1  8  1  0
  2  3  2  0
  3  4  1  0
  4  5  2  0
  5  6  1  0
  6  7  2  0
  2  7  1  0
M  END

$$$$
No_2427-/export/home/yangzhenyu/potential_scad_32_flow//YTHDC2/2024-12-06-03-22-00/
     RDKit          3D

 18 20  0  0  1  0  0  0  0  0999 V2000
    1.1787   -8.0297    3.5154 Cl  0  0  0  0  0  0  0  0  0  0  0  0
    0.6122   -7.9650    2.5747 C   0  0  2  0  0  0  0  0  0  0  0  0
    0.4809   -9.1882    1.8138 C   0  0  0  0  0  0  0  0  0  0  0  0
    0.7467  -10.3320    2.4096 C   0  0  0  0  0  0  0  0  0  0  0  0
    0.5573  -11.4169    1.6406 C   0  0  0  0  0  0  0  0  0  0  0  0
    0.2362  -11.5476    0.3779 C   0  0  0  0  0  0  0  0  0  0  0  0
   -0.0649  -10.3312   -0.2851 C   0  0  0  0  0  0  0  0  0  0  0  0
    0.0600   -9.1113    0.4830 C   0  0  0  0  0  0  0  0  0  0  0  0
    0.5897   -6.7489    1.7819 C   0  0  0  0  0  0  0  0  0  0  0  0
    0.4738   -5.5852    2.3346 C   0  0  0  0  0  0  0  0  0  0  0  0
   -0.6202   -4.7839    2.2002 C   0  0  0  0  0  0  0  0  0  0  0  0
   -1.3975   -5.0656    1.1837 C   0  0  0  0  0  0  0  0  0  0  0  0
   -1.3048   -6.1454    0.3668 C   0  0  0  0  0  0  0  0  0  0  0  0
   -0.3854   -7.0473    0.6367 C   0  0  0  0  0  0  0  0  0  0  0  0
   -0.3152   -7.9568   -0.0556 N   0  0  0  0  0  0  0  0  0  0  0  0
    0.9575  -13.0014    2.3801 C   0  0  1  0  0  0  0  0  0  0  0  0
    1.8487  -13.0913    3.0899 N   0  0  0  0  0  0  0  0  0  0  0  0
    0.1213  -13.9047    2.0732 C   0  0  0  0  0  0  0  0  0  0  0  0
  2  1  1  6
  2  3  1  0
  2  9  1  0
  8 15  1  0
 14 15  1  0
  5 16  1  0
 16 17  1  0
 16 18  1  1
  3  4  2  0
  4  5  1  0
  5  6  2  0
  6  7  1  0
  7  8  2  0
  3  8  1  0
  9 10  2  0
 10 11  1  0
 11 12  2  0
 12 13  1  0
 13 14  2  0
  9 14  1  0
M  END

$$$$
No_2428-/export/home/yangzhenyu/potential_scad_32_flow//YTHDC2/2024-12-06-03-22-00/
     RDKit          3D

 19 21  0  0  0  0  0  0  0  0999 V2000
    1.1787   -8.0297    3.5154 C   0  0  0  0  0  0  0  0  0  0  0  0
    1.1048   -9.2215    3.2892 C   0  0  0  0  0  0  0  0  0  0  0  0
    1.3627  -10.1721    4.3044 C   0  0  0  0  0  0  0  0  0  0  0  0
    1.7354  -11.4730    3.9023 C   0  0  0  0  0  0  0  0  0  0  0  0
    1.8080  -11.8127    2.7216 C   0  0  0  0  0  0  0  0  0  0  0  0
    1.5854  -11.0021    1.7249 C   0  0  0  0  0  0  0  0  0  0  0  0
    1.3573   -9.7389    1.9287 C   0  0  0  0  0  0  0  0  0  0  0  0
    1.2865   -8.8078    0.9161 C   0  0  0  0  0  0  0  0  0  0  0  0
    0.9210   -7.5140    1.1674 C   0  0  0  0  0  0  0  0  0  0  0  0
    1.0097   -7.0192    2.4369 C   0  0  0  0  0  0  0  0  0  0  0  0
    0.8553   -5.6437    2.6966 C   0  0  0  0  0  0  0  0  0  0  0  0
    2.0476  -13.2622    2.4252 C   0  0  0  0  0  0  0  0  0  0  0  0
    1.1121  -14.0545    1.8957 C   0  0  0  0  0  0  0  0  0  0  0  0
    0.6300  -14.7963    2.6305 C   0  0  0  0  0  0  0  0  0  0  0  0
   -0.6249  -15.1404    2.6432 C   0  0  0  0  0  0  0  0  0  0  0  0
   -1.3812  -14.9499    1.6468 C   0  0  0  0  0  0  0  0  0  0  0  0
   -0.8249  -14.1150    0.6204 C   0  0  0  0  0  0  0  0  0  0  0  0
   -1.7038  -13.7452   -0.5225 C   0  0  0  0  0  0  0  0  0  0  0  0
    0.4584  -13.5868    0.7394 C   0  0  0  0  0  0  0  0  0  0  0  0
 10 11  1  0
  5 12  1  0
 12 13  1  0
 17 18  1  0
  1  2  2  0
  7  8  2  0
  8  9  1  0
  9 10  2  0
  1 10  1  0
  2  3  1  0
  3  4  2  0
  4  5  1  0
  5  6  2  0
  6  7  1  0
  2  7  1  0
 13 14  2  0
 14 15  1  0
 15 16  2  0
 16 17  1  0
 17 19  2  0
 13 19  1  0
M  END

$$$$
No_2429-/export/home/yangzhenyu/potential_scad_32_flow//YTHDC2/2024-12-06-03-22-00/
     RDKit          3D

 19 20  0  0  0  0  0  0  0  0999 V2000
    1.1787   -8.0297    3.5154 O   0  0  0  0  0  0  0  0  0  0  0  0
    0.9969   -8.9689    3.0048 C   0  0  0  0  0  0  0  0  0  0  0  0
    1.3055  -10.1056    3.6616 C   0  0  0  0  0  0  0  0  0  0  0  0
    1.5709  -11.1115    3.2016 C   0  0  0  0  0  0  0  0  0  0  0  0
    1.6332  -11.2629    1.7349 C   0  0  0  0  0  0  0  0  0  0  0  0
    1.4616  -10.1742    0.9691 C   0  0  0  0  0  0  0  0  0  0  0  0
    1.1252   -9.0006    1.6051 C   0  0  0  0  0  0  0  0  0  0  0  0
    0.9129   -7.7660    1.0035 C   0  0  0  0  0  0  0  0  0  0  0  0
    1.4985   -6.7270    1.3903 O   0  0  0  0  0  0  0  0  0  0  0  0
    0.0520   -7.6601    0.0248 O   0  0  0  0  0  0  0  0  0  0  0  0
    1.9185  -12.6230    3.9525 C   0  0  0  0  0  0  0  0  0  0  0  0
    1.4200  -13.7628    3.0728 C   0  0  0  0  0  0  0  0  0  0  0  0
    2.2348  -14.5851    2.5649 C   0  0  0  0  0  0  0  0  0  0  0  0
    1.8705  -15.7838    1.9989 C   0  0  0  0  0  0  0  0  0  0  0  0
    0.6824  -16.2422    2.1153 C   0  0  0  0  0  0  0  0  0  0  0  0
   -0.2740  -15.4928    2.7753 C   0  0  0  0  0  0  0  0  0  0  0  0
    0.1149  -14.2973    3.3830 C   0  0  0  0  0  0  0  0  0  0  0  0
   -1.5689  -15.8890    2.8854 C   0  0  0  0  0  0  0  0  0  0  0  0
   -2.5677  -15.2500    2.3932 N   0  0  0  0  0  0  0  0  0  0  0  0
  1  2  1  0
  7  8  1  0
  8  9  1  0
  8 10  2  0
  4 11  1  0
 11 12  1  0
 16 18  1  0
 18 19  1  0
 12 13  2  0
 13 14  1  0
 14 15  2  0
 15 16  1  0
 16 17  2  0
 12 17  1  0
  2  3  2  0
  3  4  1  0
  4  5  2  0
  5  6  1  0
  6  7  2  0
  2  7  1  0
M  END

$$$$
No_2430-/export/home/yangzhenyu/potential_scad_32_flow//YTHDC2/2024-12-06-03-22-00/
     RDKit          3D

 16 17  0  0  0  0  0  0  0  0999 V2000
    1.1787   -8.0297    3.5154 C   0  0  0  0  0  0  0  0  0  0  0  0
    1.1048   -9.2215    3.2892 C   0  0  0  0  0  0  0  0  0  0  0  0
    1.2339   -9.7611    2.0189 C   0  0  0  0  0  0  0  0  0  0  0  0
    1.3583   -9.0036    0.9764 C   0  0  0  0  0  0  0  0  0  0  0  0
    1.5996   -7.6362    1.1311 C   0  0  0  0  0  0  0  0  0  0  0  0
    1.4830   -7.0928    2.3626 C   0  0  0  0  0  0  0  0  0  0  0  0
    1.1008  -11.2372    1.8542 C   0  0  0  0  0  0  0  0  0  0  0  0
    0.5178  -11.9759    2.3445 C   0  0  0  0  0  0  0  0  0  0  0  0
   -0.4557  -11.5167    3.4352 C   0  0  0  0  0  0  0  0  0  0  0  0
    0.2605  -13.4149    2.0553 C   0  0  0  0  0  0  0  0  0  0  0  0
   -0.4594  -13.7051    1.2705 C   0  0  0  0  0  0  0  0  0  0  0  0
   -0.5963  -15.1270    0.9170 C   0  0  0  0  0  0  0  0  0  0  0  0
    0.1869  -16.0702    1.4041 C   0  0  0  0  0  0  0  0  0  0  0  0
    1.1756  -15.6746    2.3634 C   0  0  0  0  0  0  0  0  0  0  0  0
    1.2890  -14.3132    2.7410 C   0  0  0  0  0  0  0  0  0  0  0  0
    1.5646   -5.6687    2.6131 Cl  0  0  0  0  0  0  0  0  0  0  0  0
  3  7  1  0
  7  8  2  3
  8  9  1  0
  8 10  1  0
  6 16  1  0
  1  2  2  0
  2  3  1  0
  3  4  2  0
  4  5  1  0
  5  6  2  0
  1  6  1  0
 10 11  2  0
 11 12  1  0
 12 13  2  0
 13 14  1  0
 14 15  2  0
 10 15  1  0
M  END

$$$$
No_2431-/export/home/yangzhenyu/potential_scad_32_flow//YTHDC2/2024-12-06-03-22-00/
     RDKit          3D

 17 18  0  0  0  0  0  0  0  0999 V2000
    1.1787   -8.0297    3.5154 N   0  0  0  0  0  0  0  0  0  0  0  0
    1.0818   -9.0751    3.2053 C   0  0  0  0  0  0  0  0  0  0  0  0
    1.5216  -10.1164    3.9747 C   0  0  0  0  0  0  0  0  0  0  0  0
    1.4420  -11.4363    3.6461 C   0  0  0  0  0  0  0  0  0  0  0  0
    0.5969  -11.7648    2.6785 C   0  0  0  0  0  0  0  0  0  0  0  0
    0.0096  -10.8332    1.9506 C   0  0  0  0  0  0  0  0  0  0  0  0
    0.3359   -9.5186    2.1388 C   0  0  0  0  0  0  0  0  0  0  0  0
    0.8819   -6.9011    2.6487 C   0  0  0  0  0  0  0  0  0  0  0  0
    0.4076   -7.2265    1.4607 C   0  0  0  0  0  0  0  0  0  0  0  0
    0.0604   -8.4780    1.1746 C   0  0  0  0  0  0  0  0  0  0  0  0
   -0.5471   -8.7214    0.0063 C   0  0  0  0  0  0  0  0  0  0  0  0
   -1.8401   -9.2136    0.0266 C   0  0  0  0  0  0  0  0  0  0  0  0
    0.0143   -6.1069    0.7914 O   0  0  0  0  0  0  0  0  0  0  0  0
   -2.3826   -9.5716   -1.3536 C   0  0  0  0  0  0  0  0  0  0  0  0
   -2.9198  -10.5871   -1.5693 C   0  0  0  0  0  0  0  0  0  0  0  0
   -3.2311  -11.5395   -0.4645 N   0  0  0  0  0  0  0  0  0  0  0  0
   -2.7749  -11.2424    0.7163 C   0  0  0  0  0  0  0  0  0  0  0  0
  1  2  1  0
  8  9  1  0
  7 10  1  0
  9 10  1  0
 10 11  1  0
 11 12  2  3
  9 13  2  0
 12 14  1  0
 14 15  2  3
 15 16  1  0
 16 17  1  0
  1  8  1  0
  2  3  2  0
  3  4  1  0
  4  5  2  0
  5  6  1  0
  6  7  2  0
  2  7  1  0
M  END

$$$$
No_2432-/export/home/yangzhenyu/potential_scad_32_flow//YTHDC2/2024-12-06-03-22-00/
     RDKit          3D

 21 22  0  0  1  0  0  0  0  0999 V2000
    1.1787   -8.0297    3.5154 C   0  0  0  0  0  0  0  0  0  0  0  0
    1.0491   -6.8434    2.9820 C   0  0  1  0  0  0  0  0  0  0  0  0
    0.9905   -9.0774    2.6527 C   0  0  1  0  0  0  0  0  0  0  0  0
    0.7897   -8.9519    1.3691 C   0  0  0  0  0  0  0  0  0  0  0  0
    0.7018   -7.7198    0.7892 C   0  0  0  0  0  0  0  0  0  0  0  0
    1.4312   -5.5794    3.7443 C   0  0  0  0  0  0  0  0  0  0  0  0
    0.9426   -6.6664    1.5322 C   0  0  0  0  0  0  0  0  0  0  0  0
    0.9192   -5.4040    1.0793 O   0  0  0  0  0  0  0  0  0  0  0  0
    1.1057  -10.5084    3.1751 C   0  0  0  0  0  0  0  0  0  0  0  0
    1.2822  -11.5415    2.4753 C   0  0  1  0  0  0  0  0  0  0  0  0
    1.8087  -11.7125    1.4991 C   0  0  0  0  0  0  0  0  0  0  0  0
    1.4221  -12.8805    3.3464 C   0  0  1  0  0  0  0  0  0  0  0  0
    0.7325  -13.2263    4.0415 C   0  0  0  0  0  0  0  0  0  0  0  0
    2.3486  -13.9300    2.6744 C   0  0  0  0  0  0  0  0  0  0  0  0
    2.5020  -12.7519    0.7305 C   0  0  0  0  0  0  0  0  0  0  0  0
    2.6240  -13.8900    1.3627 C   0  0  0  0  0  0  0  0  0  0  0  0
    0.4508  -10.5923    4.4478 O   0  0  0  0  0  0  0  0  0  0  0  0
    3.0458  -14.8986    0.8509 O   0  0  0  0  0  0  0  0  0  0  0  0
    2.6908   -5.3758    4.0840 O   0  0  0  0  0  0  0  0  0  0  0  0
    0.5277   -4.7903    3.9965 O   0  0  0  0  0  0  0  0  0  0  0  0
    2.3341  -15.1044    3.3513 O   0  0  0  0  0  0  0  0  0  0  0  0
  1  2  1  0
  3  4  1  0
  2  6  1  6
  2  7  1  0
  5  7  1  0
  7  8  2  0
  3  9  1  6
 10  9  1  1
 10 12  1  0
 12 14  1  0
 11 15  1  0
 14 16  1  0
 15 16  1  0
  9 17  2  0
 16 18  2  0
  6 19  2  0
  6 20  1  0
 14 21  2  0
 12 13  1  6
 10 11  1  0
  1  3  1  0
  4  5  1  0
M  END

$$$$
No_2433-/export/home/yangzhenyu/potential_scad_32_flow//YTHDC2/2024-12-06-03-22-00/
     RDKit          3D

 18 19  0  0  0  0  0  0  0  0999 V2000
    1.1787   -8.0297    3.5154 C   0  0  0  0  0  0  0  0  0  0  0  0
    1.1048   -9.2215    3.2892 C   0  0  0  0  0  0  0  0  0  0  0  0
    1.0239   -9.7790    2.0239 C   0  0  0  0  0  0  0  0  0  0  0  0
    1.1393   -9.0211    0.9686 C   0  0  0  0  0  0  0  0  0  0  0  0
    1.4051   -7.6500    1.1251 C   0  0  0  0  0  0  0  0  0  0  0  0
    1.4868   -7.1041    2.3534 C   0  0  0  0  0  0  0  0  0  0  0  0
    1.5885   -5.7190    2.5687 C   0  0  0  0  0  0  0  0  0  0  0  0
    0.8747  -11.3633    1.9261 C   0  0  0  0  0  0  0  0  0  0  0  0
   -0.2067  -11.6965    1.2277 C   0  0  0  0  0  0  0  0  0  0  0  0
   -0.1757  -12.9714    0.7254 N   0  0  0  0  0  0  0  0  0  0  0  0
    1.8116  -11.9615    2.5907 C   0  0  0  0  0  0  0  0  0  0  0  0
    1.8142  -13.3456    2.1660 C   0  0  0  0  0  0  0  0  0  0  0  0
    0.7872  -13.8421    1.3260 C   0  0  0  0  0  0  0  0  0  0  0  0
    0.7390  -15.1352    1.0853 C   0  0  0  0  0  0  0  0  0  0  0  0
    1.5778  -16.0019    1.8526 C   0  0  0  0  0  0  0  0  0  0  0  0
    1.4263  -17.5151    1.7008 C   0  0  0  0  0  0  0  0  0  0  0  0
    2.2776  -18.2240    2.7457 C   0  0  0  0  0  0  0  0  0  0  0  0
    3.5283  -17.8054    3.0078 C   0  0  0  0  0  0  0  0  0  0  0  0
  6  7  1  0
  3  8  1  0
 13 14  1  0
 14 15  2  3
 15 16  1  0
 16 17  1  0
 17 18  2  0
  1  2  2  0
  2  3  1  0
  3  4  2  0
  4  5  1  0
  5  6  2  0
  1  6  1  0
  8  9  2  0
  9 10  1  0
 10 13  2  0
 12 13  1  0
 11 12  2  0
  8 11  1  0
M  END

$$$$
No_2434-/export/home/yangzhenyu/potential_scad_32_flow//YTHDC2/2024-12-06-03-22-00/
     RDKit          3D

 20 21  0  0  0  0  0  0  0  0999 V2000
    1.1787   -8.0297    3.5154 C   0  0  0  0  0  0  0  0  0  0  0  0
    1.1048   -9.2215    3.2892 C   0  0  0  0  0  0  0  0  0  0  0  0
    1.3627  -10.1721    4.3044 C   0  0  0  0  0  0  0  0  0  0  0  0
    1.0682  -11.5187    4.0618 C   0  0  0  0  0  0  0  0  0  0  0  0
    0.6332  -11.9655    2.9682 C   0  0  0  0  0  0  0  0  0  0  0  0
    0.4776  -11.1308    1.9203 C   0  0  0  0  0  0  0  0  0  0  0  0
    0.7470   -9.8274    2.0368 C   0  0  0  0  0  0  0  0  0  0  0  0
    1.8805   -7.1616    3.5538 C   0  0  0  0  0  0  0  0  0  0  0  0
    0.3661  -13.4265    2.7867 C   0  0  0  0  0  0  0  0  0  0  0  0
    0.9243  -14.0434    1.7809 C   0  0  0  0  0  0  0  0  0  0  0  0
    0.3033  -14.6623    1.0102 C   0  0  0  0  0  0  0  0  0  0  0  0
   -1.0465  -15.0032    1.2506 C   0  0  0  0  0  0  0  0  0  0  0  0
   -1.5296  -14.5070    2.4812 C   0  0  0  0  0  0  0  0  0  0  0  0
   -0.7541  -13.7305    3.2187 C   0  0  0  0  0  0  0  0  0  0  0  0
    0.8471   -8.9724    0.9536 C   0  0  0  0  0  0  0  0  0  0  0  0
   -0.2313   -8.4301    0.3663 O   0  0  0  0  0  0  0  0  0  0  0  0
    1.8454   -9.1670   -0.0417 C   0  0  0  0  0  0  0  0  0  0  0  0
    2.8465   -9.7729    0.0547 O   0  0  0  0  0  0  0  0  0  0  0  0
    1.7514   -8.2448   -1.1159 O   0  0  0  0  0  0  0  0  0  0  0  0
   -2.9273  -14.7938    2.8250 Br  0  0  0  0  0  0  0  0  0  0  0  0
  1  2  1  0
  1  8  2  0
  5  9  1  0
  7 15  1  0
 15 16  2  0
 15 17  1  0
 17 18  2  0
 17 19  1  0
 13 20  1  0
  2  3  2  0
  3  4  1  0
  4  5  2  0
  5  6  1  0
  6  7  2  0
  2  7  1  0
  9 10  2  0
 10 11  1  0
 11 12  2  0
 12 13  1  0
 13 14  2  0
  9 14  1  0
M  END

$$$$
No_2435-/export/home/yangzhenyu/potential_scad_32_flow//YTHDC2/2024-12-06-03-22-00/
     RDKit          3D

 11 11  0  0  0  0  0  0  0  0999 V2000
    1.1787   -8.0297    3.5154 N   0  0  0  0  0  0  0  0  0  0  0  0
    1.0818   -9.0751    3.2053 C   0  0  0  0  0  0  0  0  0  0  0  0
    0.7576   -9.3725    1.9159 C   0  0  0  0  0  0  0  0  0  0  0  0
    0.8823   -8.4917    1.0547 C   0  0  0  0  0  0  0  0  0  0  0  0
    1.4631   -7.3107    1.2451 C   0  0  0  0  0  0  0  0  0  0  0  0
    1.6470   -6.9326    2.5669 C   0  0  0  0  0  0  0  0  0  0  0  0
    0.8237  -10.1305    4.2407 N   0  0  0  0  0  0  0  0  0  0  0  0
   -0.3113  -10.8821    4.2702 O   0  0  0  0  0  0  0  0  0  0  0  0
    0.8791   -8.8914   -0.4288 C   0  0  0  0  0  0  0  0  0  0  0  0
    1.7323   -8.7976   -1.2521 O   0  0  0  0  0  0  0  0  0  0  0  0
   -0.3823   -9.1734   -0.8216 N   0  0  0  0  0  0  0  0  0  0  0  0
  2  7  1  0
  7  8  2  0
  4  9  1  0
  9 10  2  0
  9 11  1  0
  1  2  2  0
  2  3  1  0
  3  4  2  0
  4  5  1  0
  5  6  2  0
  1  6  1  0
M  END

$$$$
No_2436-/export/home/yangzhenyu/potential_scad_32_flow//YTHDC2/2024-12-06-03-22-00/
     RDKit          3D

 18 18  0  0  1  0  0  0  0  0999 V2000
    1.1787   -8.0297    3.5154 O   0  0  0  0  0  0  0  0  0  0  0  0
    0.9969   -8.9689    3.0048 C   0  0  0  0  0  0  0  0  0  0  0  0
    1.3055  -10.1056    3.6616 C   0  0  0  0  0  0  0  0  0  0  0  0
    1.1249  -11.3503    3.0941 C   0  0  0  0  0  0  0  0  0  0  0  0
    0.6932  -11.4484    1.8586 C   0  0  0  0  0  0  0  0  0  0  0  0
    0.5498  -10.3736    1.0579 C   0  0  0  0  0  0  0  0  0  0  0  0
    0.7643   -9.1185    1.6383 C   0  0  0  0  0  0  0  0  0  0  0  0
    0.5937   -7.8467    1.0482 C   0  0  0  0  0  0  0  0  0  0  0  0
   -0.4358   -7.6746    0.4159 O   0  0  0  0  0  0  0  0  0  0  0  0
    1.3670   -6.7989    1.1380 O   0  0  0  0  0  0  0  0  0  0  0  0
    1.1873  -12.6446    3.8272 C   0  0  0  0  0  0  0  0  0  0  0  0
    1.4573  -13.7377    2.9861 C   0  0  2  0  0  0  0  0  0  0  0  0
    2.5096  -14.0878    2.4645 C   0  0  0  0  0  0  0  0  0  0  0  0
    0.2179  -14.3213    2.3896 C   0  0  0  0  0  0  0  0  0  0  0  0
    0.2461  -15.8158    2.3694 O   0  0  0  0  0  0  0  0  0  0  0  0
    0.6631  -16.3391    1.5378 C   0  0  0  0  0  0  0  0  0  0  0  0
    0.5584  -15.9036    0.3845 C   0  0  0  0  0  0  0  0  0  0  0  0
    0.7753  -14.6814   -0.0653 C   0  0  0  0  0  0  0  0  0  0  0  0
  1  2  1  0
  7  8  1  0
  8  9  2  0
  8 10  1  0
  4 11  1  0
 11 12  1  0
 12 13  1  6
 12 14  1  0
 14 15  1  0
 15 16  1  0
 16 17  1  0
 17 18  1  0
  2  3  2  0
  3  4  1  0
  4  5  2  0
  5  6  1  0
  6  7  2  0
  2  7  1  0
M  END

$$$$
No_2437-/export/home/yangzhenyu/potential_scad_32_flow//YTHDC2/2024-12-06-03-22-00/
     RDKit          3D

 17 19  0  0  1  0  0  0  0  0999 V2000
    1.1787   -8.0297    3.5154 C   0  0  0  0  0  0  0  0  0  0  0  0
    1.0491   -6.8434    2.9820 C   0  0  0  0  0  0  0  0  0  0  0  0
    0.0950   -8.8404    3.2292 C   0  0  0  0  0  0  0  0  0  0  0  0
   -0.9173   -8.4596    2.5152 C   0  0  0  0  0  0  0  0  0  0  0  0
   -1.0331   -7.2162    2.0653 C   0  0  0  0  0  0  0  0  0  0  0  0
   -0.0105   -6.3168    2.3081 C   0  0  0  0  0  0  0  0  0  0  0  0
    0.1465  -10.2446    3.6981 C   0  0  0  0  0  0  0  0  0  0  0  0
    0.1907  -11.3369    2.8651 C   0  0  2  0  0  0  0  0  0  0  0  0
    0.7661  -12.5788    3.2923 C   0  0  0  0  0  0  0  0  0  0  0  0
    0.7707  -13.6301    2.4861 C   0  0  0  0  0  0  0  0  0  0  0  0
    0.3801  -13.2355    1.2104 C   0  0  0  0  0  0  0  0  0  0  0  0
    0.4305  -13.9253    0.0851 C   0  0  0  0  0  0  0  0  0  0  0  0
   -0.0319  -11.5885    1.5230 C   0  0  0  0  0  0  0  0  0  0  0  0
    1.3473  -14.9082    2.5666 C   0  0  0  0  0  0  0  0  0  0  0  0
    1.4219  -15.7513    1.4219 C   0  0  0  0  0  0  0  0  0  0  0  0
    1.9738  -17.0569    1.7584 C   0  0  0  0  0  0  0  0  0  0  0  0
    0.9534  -15.2436    0.2404 C   0  0  0  0  0  0  0  0  0  0  0  0
  3  7  1  0
  8  7  1  6
  8  9  1  0
  8 13  1  0
 11 13  1  0
 15 16  1  0
  9 10  1  0
 10 11  2  0
 11 12  1  0
 12 17  2  0
 15 17  1  0
 14 15  2  0
 10 14  1  0
  1  2  2  0
  2  6  1  0
  5  6  2  0
  4  5  1  0
  3  4  2  0
  1  3  1  0
M  END

$$$$
No_2438-/export/home/yangzhenyu/potential_scad_32_flow//YTHDC2/2024-12-06-03-22-00/
     RDKit          3D

 18 19  0  0  0  0  0  0  0  0999 V2000
    1.1787   -8.0297    3.5154 C   0  0  0  0  0  0  0  0  0  0  0  0
    1.1048   -9.2215    3.2892 C   0  0  0  0  0  0  0  0  0  0  0  0
    1.2339   -9.7611    2.0189 C   0  0  0  0  0  0  0  0  0  0  0  0
    1.3583   -9.0036    0.9764 C   0  0  0  0  0  0  0  0  0  0  0  0
    1.5996   -7.6362    1.1311 C   0  0  0  0  0  0  0  0  0  0  0  0
    1.4830   -7.0928    2.3626 C   0  0  0  0  0  0  0  0  0  0  0  0
    1.1171  -11.3311    1.8661 C   0  0  0  0  0  0  0  0  0  0  0  0
    0.5042  -11.9974    2.3631 C   0  0  0  0  0  0  0  0  0  0  0  0
    0.4547  -13.3874    2.1599 C   0  0  0  0  0  0  0  0  0  0  0  0
    1.6053  -14.2337    2.6337 C   0  0  0  0  0  0  0  0  0  0  0  0
    1.6405  -15.5635    2.4227 C   0  0  0  0  0  0  0  0  0  0  0  0
    0.5329  -16.1828    1.9320 C   0  0  0  0  0  0  0  0  0  0  0  0
   -0.4545  -15.5158    1.3547 C   0  0  0  0  0  0  0  0  0  0  0  0
   -0.5125  -14.1019    1.5567 C   0  0  0  0  0  0  0  0  0  0  0  0
    1.5687   -5.6632    2.6483 C   0  0  0  0  0  0  0  0  0  0  0  0
    0.7326   -4.8275    2.6071 N   0  0  0  0  0  0  0  0  0  0  0  0
    0.8085   -3.4457    2.9202 C   0  0  0  0  0  0  0  0  0  0  0  0
   -0.6418   -5.1043    1.8967 C   0  0  0  0  0  0  0  0  0  0  0  0
  3  7  1  0
  7  8  2  3
  8  9  1  0
  6 15  1  0
 15 16  1  0
 16 17  1  0
 16 18  1  0
  1  2  2  0
  2  3  1  0
  3  4  2  0
  4  5  1  0
  5  6  2  0
  1  6  1  0
  9 10  2  0
 10 11  1  0
 11 12  2  0
 12 13  1  0
 13 14  2  0
  9 14  1  0
M  END

$$$$
No_2439-/export/home/yangzhenyu/potential_scad_32_flow//YTHDC2/2024-12-06-03-22-00/
     RDKit          3D

 17 19  0  0  0  0  0  0  0  0999 V2000
    1.1787   -8.0297    3.5154 C   0  0  0  0  0  0  0  0  0  0  0  0
    1.1048   -9.2215    3.2892 C   0  0  0  0  0  0  0  0  0  0  0  0
    1.3627  -10.1721    4.3044 C   0  0  0  0  0  0  0  0  0  0  0  0
    1.0682  -11.5187    4.0618 C   0  0  0  0  0  0  0  0  0  0  0  0
    0.6332  -11.9655    2.9682 C   0  0  0  0  0  0  0  0  0  0  0  0
    0.4776  -11.1308    1.9203 C   0  0  0  0  0  0  0  0  0  0  0  0
    0.7470   -9.8274    2.0368 C   0  0  0  0  0  0  0  0  0  0  0  0
    1.0387   -7.0301    2.5175 C   0  0  0  0  0  0  0  0  0  0  0  0
    0.9130   -7.5288    1.2013 C   0  0  0  0  0  0  0  0  0  0  0  0
    0.7893   -8.7979    0.9542 C   0  0  0  0  0  0  0  0  0  0  0  0
    0.3998  -13.3695    2.7114 C   0  0  0  0  0  0  0  0  0  0  0  0
    1.2819  -14.3216    3.1282 C   0  0  0  0  0  0  0  0  0  0  0  0
    1.0706  -15.6831    2.9801 C   0  0  0  0  0  0  0  0  0  0  0  0
    0.0717  -16.1401    2.3139 C   0  0  0  0  0  0  0  0  0  0  0  0
   -0.7630  -15.2846    1.7460 C   0  0  0  0  0  0  0  0  0  0  0  0
   -0.5521  -13.9245    1.9034 C   0  0  0  0  0  0  0  0  0  0  0  0
    0.4430   -9.2662   -0.3652 O   0  0  0  0  0  0  0  0  0  0  0  0
  5 11  1  0
 10 17  1  0
 11 12  2  0
 12 13  1  0
 13 14  2  0
 14 15  1  0
 15 16  2  0
 11 16  1  0
  2  3  1  0
  3  4  2  0
  4  5  1  0
  5  6  2  0
  6  7  1  0
  1  2  2  0
  2  7  1  0
  7 10  2  0
  9 10  1  0
  8  9  2  0
  1  8  1  0
M  END

$$$$
No_2440-/export/home/yangzhenyu/potential_scad_32_flow//YTHDC2/2024-12-06-03-22-00/
     RDKit          3D

 16 16  0  0  1  0  0  0  0  0999 V2000
    1.1787   -8.0297    3.5154 C   0  0  0  0  0  0  0  0  0  0  0  0
    1.1048   -9.2215    3.2892 C   0  0  0  0  0  0  0  0  0  0  0  0
    1.3627  -10.1721    4.3044 C   0  0  0  0  0  0  0  0  0  0  0  0
    2.3720  -10.8948    4.2468 C   0  0  0  0  0  0  0  0  0  0  0  0
    0.8234   -7.0464    2.5717 C   0  0  0  0  0  0  0  0  0  0  0  0
    0.4328   -7.4736    1.3042 C   0  0  0  0  0  0  0  0  0  0  0  0
    0.3532   -8.7488    0.9919 C   0  0  0  0  0  0  0  0  0  0  0  0
    0.7039   -9.7094    1.9672 C   0  0  0  0  0  0  0  0  0  0  0  0
    0.6986  -10.9809    1.7122 C   0  0  0  0  0  0  0  0  0  0  0  0
    0.2380  -11.4707    0.7534 O   0  0  0  0  0  0  0  0  0  0  0  0
    1.5532  -11.9290    2.3151 N   0  0  0  0  0  0  0  0  0  0  0  0
    1.4914  -13.1258    1.6316 C   0  0  1  0  0  0  0  0  0  0  0  0
    2.7245  -13.9019    1.5551 C   0  0  0  0  0  0  0  0  0  0  0  0
    0.9905   -5.5626    2.8045 C   0  0  0  0  0  0  0  0  0  0  0  0
    0.4217  -13.7589    1.3652 C   0  0  0  0  0  0  0  0  0  0  0  0
    0.3749  -14.6528    0.3590 O   0  0  0  0  0  0  0  0  0  0  0  0
  2  3  1  0
  3  4  1  0
  8  9  1  0
  9 10  2  0
  9 11  1  0
 11 12  1  0
 12 13  1  1
  5 14  1  0
 12 15  1  0
 15 16  2  0
  1  2  2  0
  2  8  1  0
  7  8  2  0
  6  7  1  0
  5  6  2  0
  1  5  1  0
M  END

$$$$
No_2441-/export/home/yangzhenyu/potential_scad_32_flow//YTHDC2/2024-12-06-03-22-00/
     RDKit          3D

 19 21  0  0  0  0  0  0  0  0999 V2000
    1.1787   -8.0297    3.5154 C   0  0  0  0  0  0  0  0  0  0  0  0
    1.1048   -9.2215    3.2892 C   0  0  0  0  0  0  0  0  0  0  0  0
    1.3627  -10.1721    4.3044 C   0  0  0  0  0  0  0  0  0  0  0  0
    1.0682  -11.5187    4.0618 C   0  0  0  0  0  0  0  0  0  0  0  0
    0.6332  -11.9655    2.9682 C   0  0  0  0  0  0  0  0  0  0  0  0
    0.4776  -11.1308    1.9203 C   0  0  0  0  0  0  0  0  0  0  0  0
    0.7470   -9.8274    2.0368 C   0  0  0  0  0  0  0  0  0  0  0  0
    1.0387   -7.0301    2.5175 C   0  0  0  0  0  0  0  0  0  0  0  0
    0.9130   -7.5288    1.2013 C   0  0  0  0  0  0  0  0  0  0  0  0
    0.7893   -8.7979    0.9542 C   0  0  0  0  0  0  0  0  0  0  0  0
    0.5241   -9.2578   -0.2817 C   0  0  0  0  0  0  0  0  0  0  0  0
   -0.7560   -9.7391   -0.6285 O   0  0  0  0  0  0  0  0  0  0  0  0
    1.3013   -8.9300   -1.2618 O   0  0  0  0  0  0  0  0  0  0  0  0
    0.5064  -13.3732    2.6887 C   0  0  0  0  0  0  0  0  0  0  0  0
   -0.5310  -14.0465    2.3594 C   0  0  0  0  0  0  0  0  0  0  0  0
   -0.5579  -15.3626    2.1548 C   0  0  0  0  0  0  0  0  0  0  0  0
    0.5479  -16.1081    2.0866 C   0  0  0  0  0  0  0  0  0  0  0  0
    1.7961  -15.5177    2.5012 C   0  0  0  0  0  0  0  0  0  0  0  0
    1.8152  -14.1442    2.8063 C   0  0  0  0  0  0  0  0  0  0  0  0
 10 11  1  0
 11 12  2  0
 11 13  1  0
  5 14  1  0
  2  3  1  0
  3  4  2  0
  4  5  1  0
  5  6  2  0
  6  7  1  0
  1  2  2  0
  2  7  1  0
  7 10  2  0
  9 10  1  0
  8  9  2  0
  1  8  1  0
 14 15  2  0
 15 16  1  0
 16 17  2  0
 17 18  1  0
 18 19  2  0
 14 19  1  0
M  END

$$$$
No_2442-/export/home/yangzhenyu/potential_scad_32_flow//YTHDC2/2024-12-06-03-22-00/
     RDKit          3D

 18 20  0  0  0  0  0  0  0  0999 V2000
    1.1787   -8.0297    3.5154 C   0  0  0  0  0  0  0  0  0  0  0  0
    1.1048   -9.2215    3.2892 C   0  0  0  0  0  0  0  0  0  0  0  0
    1.2339   -9.7611    2.0189 C   0  0  0  0  0  0  0  0  0  0  0  0
    1.1954  -11.2312    1.8661 C   0  0  0  0  0  0  0  0  0  0  0  0
    1.5546  -12.1691    2.7931 C   0  0  0  0  0  0  0  0  0  0  0  0
    0.9527   -7.0669    2.3918 C   0  0  0  0  0  0  0  0  0  0  0  0
    1.0618   -7.6392    1.0692 C   0  0  0  0  0  0  0  0  0  0  0  0
    1.2060   -8.9530    0.8578 C   0  0  0  0  0  0  0  0  0  0  0  0
    1.5159  -13.5011    2.3738 C   0  0  0  0  0  0  0  0  0  0  0  0
    1.1409  -13.8990    1.1908 C   0  0  0  0  0  0  0  0  0  0  0  0
    0.9249  -13.0546    0.2183 C   0  0  0  0  0  0  0  0  0  0  0  0
    0.7973  -11.5836    0.6974 C   0  0  0  0  0  0  0  0  0  0  0  0
    1.0140   -5.6032    2.4602 Br  0  0  0  0  0  0  0  0  0  0  0  0
    1.1820   -9.4458   -0.3726 C   0  0  0  0  0  0  0  0  0  0  0  0
    0.8810  -10.8618   -0.5285 C   0  0  0  0  0  0  0  0  0  0  0  0
    0.8294   -8.7684   -1.3869 O   0  0  0  0  0  0  0  0  0  0  0  0
    1.8774  -14.4771    3.4149 O   0  0  0  0  0  0  0  0  0  0  0  0
    1.1301  -15.7216    3.2519 C   0  0  0  0  0  0  0  0  0  0  0  0
  3  4  1  0
  6 13  1  0
  8 14  1  0
 12 15  1  0
 14 15  1  0
 14 16  2  0
  9 17  1  0
 17 18  1  0
  1  2  2  0
  2  3  1  0
  3  8  2  0
  7  8  1  0
  6  7  2  0
  1  6  1  0
  4  5  2  0
  5  9  1  0
  9 10  2  0
 10 11  1  0
 11 12  2  0
  4 12  1  0
M  END

$$$$
No_2443-/export/home/yangzhenyu/potential_scad_32_flow//YTHDC2/2024-12-06-03-22-00/
     RDKit          3D

 18 18  0  0  0  0  0  0  0  0999 V2000
    1.1787   -8.0297    3.5154 C   0  0  0  0  0  0  0  0  0  0  0  0
    1.0491   -6.8434    2.9820 C   0  0  0  0  0  0  0  0  0  0  0  0
    0.0950   -8.8404    3.2292 C   0  0  0  0  0  0  0  0  0  0  0  0
   -0.9173   -8.4596    2.5152 C   0  0  0  0  0  0  0  0  0  0  0  0
   -1.0331   -7.2162    2.0653 C   0  0  0  0  0  0  0  0  0  0  0  0
   -0.0105   -6.3168    2.3081 C   0  0  0  0  0  0  0  0  0  0  0  0
    0.1935  -10.3737    3.7416 C   0  0  0  0  0  0  0  0  0  0  0  0
    0.3534  -11.4163    2.8027 C   0  0  0  0  0  0  0  0  0  0  0  0
   -0.2231  -11.5566    1.8523 C   0  0  0  0  0  0  0  0  0  0  0  0
    1.6583  -12.1073    3.1276 C   0  0  0  0  0  0  0  0  0  0  0  0
    2.3767  -11.8946    4.3766 C   0  0  0  0  0  0  0  0  0  0  0  0
    0.0024   -4.9585    1.8784 C   0  0  0  0  0  0  0  0  0  0  0  0
   -0.4264   -4.6907    0.6928 O   0  0  0  0  0  0  0  0  0  0  0  0
    0.9470   -4.0654    2.3889 O   0  0  0  0  0  0  0  0  0  0  0  0
   -1.5584  -11.4769    1.6674 C   0  0  0  0  0  0  0  0  0  0  0  0
   -2.2521  -11.0557    0.7686 C   0  0  0  0  0  0  0  0  0  0  0  0
   -3.6516  -10.9475    0.7862 C   0  0  0  0  0  0  0  0  0  0  0  0
   -4.2407  -10.0183    0.0262 C   0  0  0  0  0  0  0  0  0  0  0  0
  3  7  1  0
  7  8  1  0
  8  9  2  3
  8 10  1  0
 10 11  1  0
  6 12  1  0
 12 13  2  0
 12 14  1  0
  9 15  1  0
 15 16  2  3
 16 17  1  0
 17 18  2  0
  1  2  2  0
  2  6  1  0
  5  6  2  0
  4  5  1  0
  3  4  2  0
  1  3  1  0
M  END

$$$$
No_2444-/export/home/yangzhenyu/potential_scad_32_flow//YTHDC2/2024-12-06-03-22-00/
     RDKit          3D

 19 20  0  0  0  0  0  0  0  0999 V2000
    1.1787   -8.0297    3.5154 O   0  0  0  0  0  0  0  0  0  0  0  0
    0.9969   -8.9689    3.0048 C   0  0  0  0  0  0  0  0  0  0  0  0
    1.3055  -10.1056    3.6616 C   0  0  0  0  0  0  0  0  0  0  0  0
    1.1249  -11.3503    3.0941 C   0  0  0  0  0  0  0  0  0  0  0  0
    0.6932  -11.4484    1.8586 C   0  0  0  0  0  0  0  0  0  0  0  0
    0.5498  -10.3736    1.0579 C   0  0  0  0  0  0  0  0  0  0  0  0
    0.7643   -9.1185    1.6383 C   0  0  0  0  0  0  0  0  0  0  0  0
    0.5937   -7.8467    1.0482 C   0  0  0  0  0  0  0  0  0  0  0  0
    1.5294   -7.0230    1.0749 Br  0  0  0  0  0  0  0  0  0  0  0  0
    1.2324  -12.8279    3.9580 C   0  0  0  0  0  0  0  0  0  0  0  0
    1.1777  -13.9352    3.0310 C   0  0  0  0  0  0  0  0  0  0  0  0
    1.4473  -14.0399    1.8253 C   0  0  0  0  0  0  0  0  0  0  0  0
    1.0042  -13.1191    0.9303 C   0  0  0  0  0  0  0  0  0  0  0  0
   -0.5279   -7.6981    0.1895 O   0  0  0  0  0  0  0  0  0  0  0  0
    1.1229  -15.3093    1.1904 C   0  0  0  0  0  0  0  0  0  0  0  0
    1.8856  -16.4024    1.5849 C   0  0  0  0  0  0  0  0  0  0  0  0
    2.8494  -16.3491    2.8622 C   0  0  0  0  0  0  0  0  0  0  0  0
    1.8490  -17.6798    1.0203 O   0  0  0  0  0  0  0  0  0  0  0  0
    0.3771  -15.6052    0.1775 C   0  0  0  0  0  0  0  0  0  0  0  0
  1  2  1  0
  7  8  1  0
  8  9  1  0
  8 14  2  0
 12 15  1  0
 15 16  2  3
 16 17  1  0
 16 18  1  0
 15 19  1  0
  2  3  2  0
  3  4  1  0
  5  6  1  0
  6  7  2  0
  2  7  1  0
  4  5  2  0
  5 13  1  0
 12 13  2  0
 11 12  1  0
 10 11  2  0
  4 10  1  0
M  END

$$$$
No_2445-/export/home/yangzhenyu/potential_scad_32_flow//YTHDC2/2024-12-06-03-22-00/
     RDKit          3D

 19 19  0  0  1  0  0  0  0  0999 V2000
    1.1787   -8.0297    3.5154 C   0  0  0  0  0  0  0  0  0  0  0  0
    1.1048   -9.2215    3.2892 C   0  0  0  0  0  0  0  0  0  0  0  0
    1.2339   -9.7611    2.0189 C   0  0  0  0  0  0  0  0  0  0  0  0
    1.3583   -9.0036    0.9764 C   0  0  0  0  0  0  0  0  0  0  0  0
    1.5996   -7.6362    1.1311 C   0  0  0  0  0  0  0  0  0  0  0  0
    1.4830   -7.0928    2.3626 C   0  0  0  0  0  0  0  0  0  0  0  0
    1.4898   -5.7274    2.6199 C   0  0  0  0  0  0  0  0  0  0  0  0
    1.1681  -11.2222    1.8390 C   0  0  0  0  0  0  0  0  0  0  0  0
    0.7145  -11.5870    0.5424 O   0  0  0  0  0  0  0  0  0  0  0  0
    1.6537  -12.0580    2.6183 N   0  0  0  0  0  0  0  0  0  0  0  0
    1.6651  -13.4392    2.3517 C   0  0  2  0  0  0  0  0  0  0  0  0
    2.7106  -14.1509    1.7548 C   0  0  0  0  0  0  0  0  0  0  0  0
    0.3918  -13.6761    1.4624 C   0  0  0  0  0  0  0  0  0  0  0  0
    0.0369  -15.0984    1.6877 C   0  0  0  0  0  0  0  0  0  0  0  0
    0.0085  -15.9971    0.9327 C   0  0  0  0  0  0  0  0  0  0  0  0
    0.0157  -15.6682   -0.4405 C   0  0  0  0  0  0  0  0  0  0  0  0
   -0.8761  -15.8136   -1.1329 O   0  0  0  0  0  0  0  0  0  0  0  0
    1.2308  -15.7579   -1.1101 O   0  0  0  0  0  0  0  0  0  0  0  0
    1.6839   -5.1707    3.8646 O   0  0  0  0  0  0  0  0  0  0  0  0
  6  7  1  0
  3  8  1  0
  8  9  2  0
  8 10  1  0
 10 11  1  0
 11 12  1  6
 11 13  1  0
 13 14  1  0
 14 15  1  0
 15 16  1  0
 16 17  2  0
 16 18  1  0
  7 19  1  0
  1  2  2  0
  2  3  1  0
  3  4  2  0
  4  5  1  0
  5  6  2  0
  1  6  1  0
M  END

$$$$
No_2446-/export/home/yangzhenyu/potential_scad_32_flow//YTHDC2/2024-12-06-03-22-00/
     RDKit          3D

 18 19  0  0  1  0  0  0  0  0999 V2000
    1.1787   -8.0297    3.5154 C   0  0  0  0  0  0  0  0  0  0  0  0
    1.0491   -6.8434    2.9820 C   0  0  2  0  0  0  0  0  0  0  0  0
    0.9905   -9.0774    2.6527 C   0  0  0  0  0  0  0  0  0  0  0  0
    1.1655  -10.4663    3.1286 C   0  0  0  0  0  0  0  0  0  0  0  0
    1.2197  -11.4898    2.5831 C   0  0  0  0  0  0  0  0  0  0  0  0
    1.0589  -11.4458    1.1293 C   0  0  0  0  0  0  0  0  0  0  0  0
    0.9638  -10.3069    0.4651 C   0  0  0  0  0  0  0  0  0  0  0  0
    0.9191   -9.0789    1.1942 C   0  0  0  0  0  0  0  0  0  0  0  0
    0.9103   -7.8220    0.6974 C   0  0  0  0  0  0  0  0  0  0  0  0
    1.0140   -6.6889    1.5108 C   0  0  0  0  0  0  0  0  0  0  0  0
    0.7979   -7.6553   -0.4974 O   0  0  0  0  0  0  0  0  0  0  0  0
    1.3189  -12.8004    3.1142 C   0  0  0  0  0  0  0  0  0  0  0  0
    0.2120  -13.7104    2.9499 O   0  0  0  0  0  0  0  0  0  0  0  0
    2.3206  -13.1679    3.7663 O   0  0  0  0  0  0  0  0  0  0  0  0
    1.3162   -5.6142    3.6647 O   0  0  0  0  0  0  0  0  0  0  0  0
    0.9841   -4.3630    3.2965 C   0  0  0  0  0  0  0  0  0  0  0  0
    1.3672  -10.5058    4.8022 O   0  0  0  0  0  0  0  0  0  0  0  0
    1.0494   -5.4482    0.9411 O   0  0  0  0  0  0  0  0  0  0  0  0
  1  2  1  0
  8  9  1  0
  9 10  1  0
  9 11  2  0
  5 12  1  0
 12 13  2  0
 12 14  1  0
  2 15  1  6
 15 16  1  0
  4 17  1  0
 10 18  1  0
  1  3  1  0
  2 10  1  0
  3  4  2  0
  4  5  1  0
  5  6  2  0
  6  7  1  0
  7  8  2  0
  3  8  1  0
M  END

$$$$
No_2447-/export/home/yangzhenyu/potential_scad_32_flow//YTHDC2/2024-12-06-03-22-00/
     RDKit          3D

 18 19  0  0  0  0  0  0  0  0999 V2000
    1.1787   -8.0297    3.5154 C   0  0  0  0  0  0  0  0  0  0  0  0
    1.1048   -9.2215    3.2892 C   0  0  0  0  0  0  0  0  0  0  0  0
    1.2339   -9.7611    2.0189 C   0  0  0  0  0  0  0  0  0  0  0  0
    1.3583   -9.0036    0.9764 C   0  0  0  0  0  0  0  0  0  0  0  0
    1.5996   -7.6362    1.1311 C   0  0  0  0  0  0  0  0  0  0  0  0
    1.4830   -7.0928    2.3626 C   0  0  0  0  0  0  0  0  0  0  0  0
    1.4898   -5.7274    2.6199 C   0  0  0  0  0  0  0  0  0  0  0  0
    1.1681  -11.2222    1.8390 C   0  0  0  0  0  0  0  0  0  0  0  0
    0.5014  -11.9760    2.2068 C   0  0  0  0  0  0  0  0  0  0  0  0
    0.4167  -13.3685    2.0527 C   0  0  0  0  0  0  0  0  0  0  0  0
   -0.6161  -14.0718    1.8701 C   0  0  0  0  0  0  0  0  0  0  0  0
   -1.8327  -13.5577    1.6009 C   0  0  0  0  0  0  0  0  0  0  0  0
   -1.9548  -12.1479    1.7152 C   0  0  0  0  0  0  0  0  0  0  0  0
   -0.8751  -11.3464    1.8348 C   0  0  0  0  0  0  0  0  0  0  0  0
    1.7257  -13.9313    2.2966 C   0  0  0  0  0  0  0  0  0  0  0  0
   -3.2179  -11.6433    1.2847 C   0  0  0  0  0  0  0  0  0  0  0  0
   -3.8688  -11.9526    0.3692 O   0  0  0  0  0  0  0  0  0  0  0  0
   -3.6578  -10.6461    2.2238 C   0  0  0  0  0  0  0  0  0  0  0  0
  6  7  1  0
  3  8  1  0
 10 15  1  0
 13 16  1  0
 16 17  2  0
 16 18  1  0
  8  9  1  0
  1  2  2  0
  2  3  1  0
  3  4  2  0
  4  5  1  0
  5  6  2  0
  1  6  1  0
  9 10  2  0
 10 11  1  0
 11 12  2  0
 12 13  1  0
 13 14  2  0
  9 14  1  0
M  END

$$$$
No_2448-/export/home/yangzhenyu/potential_scad_32_flow//YTHDC2/2024-12-06-03-22-00/
     RDKit          3D

 20 21  0  0  1  0  0  0  0  0999 V2000
    1.1787   -8.0297    3.5154 C   0  0  0  0  0  0  0  0  0  0  0  0
    1.0491   -6.8434    2.9820 C   0  0  0  0  0  0  0  0  0  0  0  0
    0.0950   -8.8404    3.2292 C   0  0  0  0  0  0  0  0  0  0  0  0
   -0.9173   -8.4596    2.5152 C   0  0  0  0  0  0  0  0  0  0  0  0
   -1.0331   -7.2162    2.0653 C   0  0  0  0  0  0  0  0  0  0  0  0
   -0.0105   -6.3168    2.3081 C   0  0  0  0  0  0  0  0  0  0  0  0
    0.0485   -4.9783    1.8782 C   0  0  0  0  0  0  0  0  0  0  0  0
   -0.6974   -4.6139    0.8644 C   0  0  2  0  0  0  0  0  0  0  0  0
   -0.9552   -3.3006    0.6322 C   0  0  1  0  0  0  0  0  0  0  0  0
   -0.0842   -2.3242    1.1750 C   0  0  0  0  0  0  0  0  0  0  0  0
    0.7666   -2.6097    2.0716 C   0  0  0  0  0  0  0  0  0  0  0  0
    0.8924   -3.9831    2.4474 C   0  0  0  0  0  0  0  0  0  0  0  0
    0.2102  -10.4428    3.8031 Cl  0  0  0  0  0  0  0  0  0  0  0  0
    1.8499   -4.3600    3.3810 O   0  0  0  0  0  0  0  0  0  0  0  0
   -1.9723   -2.7873   -0.6886 Cl  0  0  0  0  0  0  0  0  0  0  0  0
   -2.0793   -9.2777    2.4560 F   0  0  0  0  0  0  0  0  0  0  0  0
   -0.1876   -0.9665    0.6956 Cl  0  0  0  0  0  0  0  0  0  0  0  0
    1.6136   -1.7064    2.7948 Cl  0  0  0  0  0  0  0  0  0  0  0  0
   -1.4540   -5.5939    0.0873 O   0  0  0  0  0  0  0  0  0  0  0  0
   -0.8745   -6.1506   -1.0054 C   0  0  0  0  0  0  0  0  0  0  0  0
  6  7  1  0
  7  8  1  0
  9 10  1  0
  7 12  1  0
 11 12  1  0
  3 13  1  0
 12 14  2  0
  9 15  1  6
  4 16  1  0
 10 17  1  0
 11 18  1  0
  8 19  1  1
 19 20  1  0
  8  9  1  0
 10 11  1  0
  1  2  2  0
  2  6  1  0
  5  6  2  0
  4  5  1  0
  3  4  2  0
  1  3  1  0
M  END

$$$$
No_2449-/export/home/yangzhenyu/potential_scad_32_flow//YTHDC2/2024-12-06-03-22-00/
     RDKit          3D

 16 17  0  0  1  0  0  0  0  0999 V2000
    1.1787   -8.0297    3.5154 C   0  0  0  0  0  0  0  0  0  0  0  0
    1.0491   -6.8434    2.9820 C   0  0  0  0  0  0  0  0  0  0  0  0
    0.0950   -8.8404    3.2292 C   0  0  0  0  0  0  0  0  0  0  0  0
   -0.9173   -8.4596    2.5152 C   0  0  0  0  0  0  0  0  0  0  0  0
   -1.0331   -7.2162    2.0653 C   0  0  0  0  0  0  0  0  0  0  0  0
   -0.0105   -6.3168    2.3081 C   0  0  0  0  0  0  0  0  0  0  0  0
    0.0485   -4.9783    1.8782 C   0  0  0  0  0  0  0  0  0  0  0  0
    0.9625   -4.1072    2.3252 N   0  0  0  0  0  0  0  0  0  0  0  0
   -0.5558   -4.4927    0.7979 O   0  0  0  0  0  0  0  0  0  0  0  0
    0.2197  -10.4780    3.7434 Cl  0  0  0  0  0  0  0  0  0  0  0  0
    1.0401   -2.9334    1.7464 C   0  0  0  0  0  0  0  0  0  0  0  0
   -0.1145   -3.1830    0.7947 C   0  0  1  0  0  0  0  0  0  0  0  0
   -0.5390   -2.1528   -0.0876 C   0  0  0  0  0  0  0  0  0  0  0  0
   -0.0420   -2.0765   -1.0489 C   0  0  0  0  0  0  0  0  0  0  0  0
   -0.5486   -1.1042   -2.0476 C   0  0  0  0  0  0  0  0  0  0  0  0
   -1.5373   -0.2678   -1.6034 C   0  0  0  0  0  0  0  0  0  0  0  0
  6  7  1  0
  7  8  2  0
  7  9  1  0
  3 10  1  0
  8 11  1  0
  9 12  1  0
 11 12  1  0
 12 13  1  6
 13 14  1  0
 14 15  2  3
 15 16  1  0
  1  2  2  0
  2  6  1  0
  5  6  2  0
  4  5  1  0
  3  4  2  0
  1  3  1  0
M  END

$$$$
No_2450-/export/home/yangzhenyu/potential_scad_32_flow//YTHDC2/2024-12-06-03-22-00/
     RDKit          3D

 19 19  0  0  0  0  0  0  0  0999 V2000
    1.1787   -8.0297    3.5154 C   0  0  0  0  0  0  0  0  0  0  0  0
    1.1048   -9.2215    3.2892 C   0  0  0  0  0  0  0  0  0  0  0  0
    1.4683  -10.2314    4.1915 C   0  0  0  0  0  0  0  0  0  0  0  0
    0.8445   -6.9865    2.5175 C   0  0  0  0  0  0  0  0  0  0  0  0
    0.9565   -5.6241    2.7496 C   0  0  0  0  0  0  0  0  0  0  0  0
    2.0133  -11.4590    3.8933 C   0  0  0  0  0  0  0  0  0  0  0  0
    1.7855  -11.9226    2.6568 C   0  0  0  0  0  0  0  0  0  0  0  0
    1.4031  -11.0948    1.6044 C   0  0  0  0  0  0  0  0  0  0  0  0
    1.1996   -9.7647    1.9190 C   0  0  0  0  0  0  0  0  0  0  0  0
    2.0479  -13.5031    2.3892 C   0  0  0  0  0  0  0  0  0  0  0  0
    1.6739   -5.2708    3.9316 O   0  0  0  0  0  0  0  0  0  0  0  0
    0.8605   -4.7341    1.7945 N   0  0  0  0  0  0  0  0  0  0  0  0
    2.1806  -13.8965    1.2232 N   0  0  0  0  0  0  0  0  0  0  0  0
    1.8576  -14.3014    3.3231 O   0  0  0  0  0  0  0  0  0  0  0  0
    1.0389   -3.4272    1.9309 C   0  0  0  0  0  0  0  0  0  0  0  0
    0.2951   -2.5373    1.0961 C   0  0  0  0  0  0  0  0  0  0  0  0
    0.6514   -1.2411    1.0547 C   0  0  0  0  0  0  0  0  0  0  0  0
    1.6848   -0.8323    1.9828 C   0  0  0  0  0  0  0  0  0  0  0  0
    2.2236   -1.5810    2.8629 C   0  0  0  0  0  0  0  0  0  0  0  0
  1  4  1  0
  4  5  1  0
  7 10  1  0
  5 11  2  0
  5 12  1  0
 10 13  1  0
 10 14  2  0
 12 15  1  0
 15 16  1  0
 16 17  2  3
 17 18  1  0
 18 19  2  0
  1  2  1  0
  2  3  2  0
  3  6  1  0
  6  7  2  0
  7  8  1  0
  8  9  2  0
  2  9  1  0
M  END

$$$$
No_2451-/export/home/yangzhenyu/potential_scad_32_flow//YTHDC2/2024-12-06-03-22-00/
     RDKit          3D

 18 19  0  0  1  0  0  0  0  0999 V2000
    1.1787   -8.0297    3.5154 C   0  0  0  0  0  0  0  0  0  0  0  0
    1.1048   -9.2215    3.2892 C   0  0  0  0  0  0  0  0  0  0  0  0
    1.0239   -9.7790    2.0239 C   0  0  0  0  0  0  0  0  0  0  0  0
    1.1393   -9.0211    0.9686 C   0  0  0  0  0  0  0  0  0  0  0  0
    1.4051   -7.6500    1.1251 C   0  0  0  0  0  0  0  0  0  0  0  0
    1.4868   -7.1041    2.3534 C   0  0  0  0  0  0  0  0  0  0  0  0
    0.9740  -10.2562    4.5561 C   0  0  0  0  0  0  0  0  0  0  0  0
    0.8495  -11.7039    4.0242 N   0  0  0  0  0  0  0  0  0  0  0  0
    0.8667  -12.0603    2.8690 C   0  0  0  0  0  0  0  0  0  0  0  0
    0.9768  -11.1597    1.8055 C   0  0  0  0  0  0  0  0  0  0  0  0
    0.8039  -13.3673    2.6049 C   0  0  1  0  0  0  0  0  0  0  0  0
    1.6244  -14.3088    3.0236 C   0  0  0  0  0  0  0  0  0  0  0  0
    1.4523  -15.6937    2.6760 C   0  0  0  0  0  0  0  0  0  0  0  0
    2.3003  -16.5638    3.1123 C   0  0  0  0  0  0  0  0  0  0  0  0
    1.0064  -11.6676    0.5495 O   0  0  0  0  0  0  0  0  0  0  0  0
    2.5763  -17.7933    2.4848 O   0  0  0  0  0  0  0  0  0  0  0  0
    1.4900   -5.6689    2.6447 Cl  0  0  0  0  0  0  0  0  0  0  0  0
   -0.4944  -13.8081    2.1685 C   0  0  0  0  0  0  0  0  0  0  0  0
  2  7  1  0
  8  9  1  0
  3 10  1  0
  9 10  1  0
  9 11  1  0
 11 12  1  0
 12 13  2  3
 13 14  1  0
 10 15  2  0
 14 16  2  0
  6 17  1  0
 11 18  1  1
  7  8  1  0
  1  2  2  0
  2  3  1  0
  3  4  2  0
  4  5  1  0
  5  6  2  0
  1  6  1  0
M  END

$$$$
No_2452-/export/home/yangzhenyu/potential_scad_32_flow//YTHDC2/2024-12-06-03-22-00/
     RDKit          3D

 20 22  0  0  0  0  0  0  0  0999 V2000
    1.1787   -8.0297    3.5154 C   0  0  0  0  0  0  0  0  0  0  0  0
    1.1048   -9.2215    3.2892 N   0  0  0  0  0  0  0  0  0  0  0  0
    1.0346   -9.7785    2.1176 C   0  0  0  0  0  0  0  0  0  0  0  0
    1.2597   -9.0826    1.0431 C   0  0  0  0  0  0  0  0  0  0  0  0
    1.5546   -7.7201    1.2867 C   0  0  0  0  0  0  0  0  0  0  0  0
    1.5530   -7.1544    2.4219 C   0  0  0  0  0  0  0  0  0  0  0  0
    1.6198   -5.7505    2.6365 C   0  0  0  0  0  0  0  0  0  0  0  0
    0.9254  -11.3391    2.1350 C   0  0  0  0  0  0  0  0  0  0  0  0
    1.8698  -12.0520    2.5945 C   0  0  0  0  0  0  0  0  0  0  0  0
    1.7045  -13.4541    2.4859 C   0  0  0  0  0  0  0  0  0  0  0  0
    0.7521  -14.0006    1.8237 C   0  0  0  0  0  0  0  0  0  0  0  0
   -0.1880  -13.2638    1.2099 C   0  0  0  0  0  0  0  0  0  0  0  0
   -0.1402  -11.8574    1.3715 C   0  0  0  0  0  0  0  0  0  0  0  0
    0.6414   -4.8828    2.4330 C   0  0  0  0  0  0  0  0  0  0  0  0
    0.6290   -3.4791    2.6377 C   0  0  0  0  0  0  0  0  0  0  0  0
    0.6200  -15.4034    1.7347 C   0  0  0  0  0  0  0  0  0  0  0  0
   -0.3321  -16.0786    1.2980 C   0  0  0  0  0  0  0  0  0  0  0  0
   -1.5213  -15.3676    1.0972 C   0  0  0  0  0  0  0  0  0  0  0  0
   -1.3796  -13.9089    0.7696 C   0  0  0  0  0  0  0  0  0  0  0  0
    1.6551  -16.2591    2.4698 Cl  0  0  0  0  0  0  0  0  0  0  0  0
  6  7  1  0
  3  8  1  0
  7 14  2  3
 14 15  1  0
 16 20  1  0
  1  2  2  0
  2  3  1  0
  3  4  2  0
  4  5  1  0
  5  6  2  0
  1  6  1  0
 12 19  1  0
 18 19  2  0
 17 18  1  0
 16 17  2  0
 11 16  1  0
  8  9  2  0
  9 10  1  0
 10 11  2  0
 11 12  1  0
 12 13  2  0
  8 13  1  0
M  END

$$$$
No_2453-/export/home/yangzhenyu/potential_scad_32_flow//YTHDC2/2024-12-06-03-22-00/
     RDKit          3D

 18 18  0  0  1  0  0  0  0  0999 V2000
    1.1787   -8.0297    3.5154 C   0  0  0  0  0  0  0  0  0  0  0  0
    1.0491   -6.8434    2.9820 C   0  0  1  0  0  0  0  0  0  0  0  0
    1.9985   -8.9840    2.8958 C   0  0  0  0  0  0  0  0  0  0  0  0
    1.9135  -10.3404    3.6266 C   0  0  0  0  0  0  0  0  0  0  0  0
    1.3291  -11.3908    3.0222 C   0  0  0  0  0  0  0  0  0  0  0  0
    1.2749  -12.5326    3.7562 C   0  0  0  0  0  0  0  0  0  0  0  0
    1.8025   -5.7637    3.3237 N   0  0  0  0  0  0  0  0  0  0  0  0
    0.6991  -13.6790    3.1498 C   0  0  0  0  0  0  0  0  0  0  0  0
    0.4290  -13.6514    1.8452 C   0  0  0  0  0  0  0  0  0  0  0  0
    0.6495  -12.6294    1.0778 C   0  0  0  0  0  0  0  0  0  0  0  0
    1.1407  -11.4670    1.6131 C   0  0  0  0  0  0  0  0  0  0  0  0
    0.2226   -6.5654    1.9738 C   0  0  0  0  0  0  0  0  0  0  0  0
   -0.3670   -7.4622    1.3141 Cl  0  0  0  0  0  0  0  0  0  0  0  0
    0.2118   -5.1422    1.5927 O   0  0  0  0  0  0  0  0  0  0  0  0
    1.3925  -10.4181    0.7782 Cl  0  0  0  0  0  0  0  0  0  0  0  0
    3.1769  -10.5258    4.3160 O   0  0  0  0  0  0  0  0  0  0  0  0
    0.5409  -14.8744    3.8710 O   0  0  0  0  0  0  0  0  0  0  0  0
   -0.0840  -14.8894    1.2257 Cl  0  0  0  0  0  0  0  0  0  0  0  0
  1  2  1  0
  1  3  1  0
  3  4  1  0
  4  5  1  0
  2  7  1  6
  2 12  1  0
 12 13  1  0
 12 14  2  0
 11 15  1  0
  4 16  2  0
  8 17  1  0
  9 18  1  0
  5  6  2  0
  6  8  1  0
  8  9  2  0
  9 10  1  0
 10 11  2  0
  5 11  1  0
M  END

$$$$
No_2454-/export/home/yangzhenyu/potential_scad_32_flow//YTHDC2/2024-12-06-03-22-00/
     RDKit          3D

 19 20  0  0  0  0  0  0  0  0999 V2000
    1.1787   -8.0297    3.5154 C   0  0  0  0  0  0  0  0  0  0  0  0
    1.1048   -9.2215    3.2892 C   0  0  0  0  0  0  0  0  0  0  0  0
    1.2339   -9.7611    2.0189 C   0  0  0  0  0  0  0  0  0  0  0  0
    1.1954  -11.2312    1.8661 C   0  0  0  0  0  0  0  0  0  0  0  0
    1.5546  -12.1691    2.7931 C   0  0  0  0  0  0  0  0  0  0  0  0
    0.5849   -7.0929    2.5729 N   0  0  0  0  0  0  0  0  0  0  0  0
    1.4598  -11.6696    4.1523 C   0  0  0  0  0  0  0  0  0  0  0  0
    1.3112  -10.2083    4.3664 C   0  0  0  0  0  0  0  0  0  0  0  0
    1.4209   -6.0719    1.9537 C   0  0  0  0  0  0  0  0  0  0  0  0
    1.2427  -13.4783    2.5460 C   0  0  0  0  0  0  0  0  0  0  0  0
    0.0932  -13.7416    1.9426 C   0  0  0  0  0  0  0  0  0  0  0  0
   -1.0247  -13.2483    2.2564 C   0  0  0  0  0  0  0  0  0  0  0  0
   -2.2443  -13.6310    1.8921 C   0  0  0  0  0  0  0  0  0  0  0  0
   -2.2928  -14.5165    0.9185 C   0  0  0  0  0  0  0  0  0  0  0  0
   -1.1380  -15.0197    0.3894 C   0  0  0  0  0  0  0  0  0  0  0  0
    0.0593  -14.7474    0.8687 C   0  0  0  0  0  0  0  0  0  0  0  0
    0.7745   -4.9315    1.4180 C   0  0  0  0  0  0  0  0  0  0  0  0
   -0.3464   -5.2525    0.5787 C   0  0  0  0  0  0  0  0  0  0  0  0
   -1.1448   -5.8676    1.1455 C   0  0  0  0  0  0  0  0  0  0  0  0
  1  2  1  0
  1  6  1  0
  6  9  1  0
  5 10  1  0
 10 11  1  0
  9 17  1  0
 17 18  1  0
 18 19  1  0
 11 12  2  0
 12 13  1  0
 13 14  2  0
 14 15  1  0
 15 16  2  0
 11 16  1  0
  2  3  2  0
  3  4  1  0
  4  5  2  0
  5  7  1  0
  7  8  2  0
  2  8  1  0
M  END

$$$$
No_2455-/export/home/yangzhenyu/potential_scad_32_flow//YTHDC2/2024-12-06-03-22-00/
     RDKit          3D

 18 19  0  0  1  0  0  0  0  0999 V2000
    1.1787   -8.0297    3.5154 C   0  0  0  0  0  0  0  0  0  0  0  0
    1.0491   -6.8434    2.9820 C   0  0  0  0  0  0  0  0  0  0  0  0
    0.9905   -9.0774    2.6527 C   0  0  0  0  0  0  0  0  0  0  0  0
    0.7897   -8.9519    1.3691 C   0  0  0  0  0  0  0  0  0  0  0  0
    0.7018   -7.7198    0.7892 C   0  0  0  0  0  0  0  0  0  0  0  0
    0.8918   -6.5957    1.6117 C   0  0  0  0  0  0  0  0  0  0  0  0
    1.0998  -10.4710    3.2437 C   0  0  0  0  0  0  0  0  0  0  0  0
    0.0471  -11.2546    3.3963 C   0  0  0  0  0  0  0  0  0  0  0  0
    0.1622  -12.5732    3.4140 C   0  0  0  0  0  0  0  0  0  0  0  0
    1.4566  -13.0980    3.0551 C   0  0  0  0  0  0  0  0  0  0  0  0
    2.5435  -12.3437    2.8391 C   0  0  0  0  0  0  0  0  0  0  0  0
    2.3667  -11.0303    2.7911 C   0  0  0  0  0  0  0  0  0  0  0  0
    0.8959   -5.2544    1.1827 C   0  0  0  0  0  0  0  0  0  0  0  0
    1.4852  -14.5511    3.1250 C   0  0  1  0  0  0  0  0  0  0  0  0
    0.4707  -15.3166    3.6335 C   0  0  0  0  0  0  0  0  0  0  0  0
    2.5825  -15.1425    2.5423 C   0  0  0  0  0  0  0  0  0  0  0  0
    2.7046  -16.5157    2.5566 C   0  0  0  0  0  0  0  0  0  0  0  0
    1.8258  -17.3184    3.0963 C   0  0  0  0  0  0  0  0  0  0  0  0
  3  7  1  0
  6 13  1  0
 10 14  1  0
 14 15  1  6
 14 16  1  0
 16 17  2  3
 17 18  1  0
  1  2  2  0
  2  6  1  0
  5  6  2  0
  4  5  1  0
  3  4  2  0
  1  3  1  0
  7  8  2  0
  8  9  1  0
  9 10  2  0
 10 11  1  0
 11 12  2  0
  7 12  1  0
M  END

$$$$
No_2456-/export/home/yangzhenyu/potential_scad_32_flow//YTHDC2/2024-12-06-03-22-00/
     RDKit          3D

 19 20  0  0  1  0  0  0  0  0999 V2000
    1.1787   -8.0297    3.5154 C   0  0  0  0  0  0  0  0  0  0  0  0
    1.0491   -6.8434    2.9820 C   0  0  0  0  0  0  0  0  0  0  0  0
    0.2462   -8.9560    3.0873 C   0  0  0  0  0  0  0  0  0  0  0  0
    0.3295   -6.5187    1.9069 C   0  0  0  0  0  0  0  0  0  0  0  0
   -0.5260   -8.7862    2.1368 C   0  0  0  0  0  0  0  0  0  0  0  0
   -0.5458   -7.5614    1.5054 C   0  0  0  0  0  0  0  0  0  0  0  0
    0.4051  -10.4356    3.8147 C   0  0  1  0  0  0  0  0  0  0  0  0
    1.4760  -10.9959    4.0243 C   0  0  0  0  0  0  0  0  0  0  0  0
    1.6140  -12.3535    3.6608 N   0  0  0  0  0  0  0  0  0  0  0  0
    1.1294  -12.6352    2.4601 C   0  0  0  0  0  0  0  0  0  0  0  0
    1.1081  -14.0425    2.1895 C   0  0  0  0  0  0  0  0  0  0  0  0
    0.6652  -14.3725    0.9089 C   0  0  0  0  0  0  0  0  0  0  0  0
    0.0451  -13.4440    0.0941 C   0  0  0  0  0  0  0  0  0  0  0  0
    0.0399  -12.1466    0.3854 C   0  0  0  0  0  0  0  0  0  0  0  0
    0.5180  -11.7452    1.6511 C   0  0  0  0  0  0  0  0  0  0  0  0
    0.4030   -5.1142    1.2114 Cl  0  0  0  0  0  0  0  0  0  0  0  0
    1.7561  -15.0921    3.1268 Cl  0  0  0  0  0  0  0  0  0  0  0  0
   -0.6003  -11.0255   -0.6191 Cl  0  0  0  0  0  0  0  0  0  0  0  0
   -0.8587  -10.7842    4.3607 C   0  0  0  0  0  0  0  0  0  0  0  0
  3  7  1  0
  7  8  1  0
  8  9  1  0
  9 10  1  0
  4 16  1  0
 11 17  1  0
 14 18  1  0
  7 19  1  1
  1  2  2  0
  2  4  1  0
  4  6  2  0
  5  6  1  0
  3  5  2  0
  1  3  1  0
 10 11  2  0
 11 12  1  0
 12 13  2  0
 13 14  1  0
 14 15  2  0
 10 15  1  0
M  END

$$$$
No_2457-/export/home/yangzhenyu/potential_scad_32_flow//YTHDC2/2024-12-06-03-22-00/
     RDKit          3D

 14 14  0  0  1  0  0  0  0  0999 V2000
    1.1787   -8.0297    3.5154 C   0  0  0  0  0  0  0  0  0  0  0  0
    1.0491   -6.8434    2.9820 C   0  0  0  0  0  0  0  0  0  0  0  0
    0.0950   -8.8404    3.2292 C   0  0  0  0  0  0  0  0  0  0  0  0
   -0.9173   -8.4596    2.5152 C   0  0  0  0  0  0  0  0  0  0  0  0
   -1.0331   -7.2162    2.0653 C   0  0  0  0  0  0  0  0  0  0  0  0
   -0.0105   -6.3168    2.3081 C   0  0  0  0  0  0  0  0  0  0  0  0
    0.1935  -10.3737    3.7416 C   0  0  2  0  0  0  0  0  0  0  0  0
    0.3534  -11.4163    2.8027 Cl  0  0  0  0  0  0  0  0  0  0  0  0
    0.0416   -4.9601    1.8530 O   0  0  0  0  0  0  0  0  0  0  0  0
   -0.8125   -4.4637    1.0977 C   0  0  0  0  0  0  0  0  0  0  0  0
   -1.1311  -10.5378    4.6348 C   0  0  0  0  0  0  0  0  0  0  0  0
   -0.6740   -4.5383   -0.1853 C   0  0  0  0  0  0  0  0  0  0  0  0
   -1.0511   -3.3833   -0.9737 O   0  0  0  0  0  0  0  0  0  0  0  0
   -1.1403   -5.5371   -0.9111 O   0  0  0  0  0  0  0  0  0  0  0  0
  3  7  1  0
  7  8  1  0
  6  9  1  0
  9 10  1  0
  7 11  1  6
 10 12  1  0
 12 13  2  0
 12 14  1  0
  1  2  2  0
  2  6  1  0
  5  6  2  0
  4  5  1  0
  3  4  2  0
  1  3  1  0
M  END

$$$$
No_2458-/export/home/yangzhenyu/potential_scad_32_flow//YTHDC2/2024-12-06-03-22-00/
     RDKit          3D

 18 20  0  0  0  0  0  0  0  0999 V2000
    1.1787   -8.0297    3.5154 C   0  0  0  0  0  0  0  0  0  0  0  0
    1.1048   -9.2215    3.2892 C   0  0  0  0  0  0  0  0  0  0  0  0
    1.3627  -10.1721    4.3044 C   0  0  0  0  0  0  0  0  0  0  0  0
    1.0682  -11.5187    4.0618 C   0  0  0  0  0  0  0  0  0  0  0  0
    0.6332  -11.9655    2.9682 C   0  0  0  0  0  0  0  0  0  0  0  0
    0.4776  -11.1308    1.9203 C   0  0  0  0  0  0  0  0  0  0  0  0
    0.1540  -11.7530    0.6168 C   0  0  0  0  0  0  0  0  0  0  0  0
    0.7979   -9.8320    2.0306 C   0  0  0  0  0  0  0  0  0  0  0  0
   -0.1707  -12.9753    0.5936 C   0  0  0  0  0  0  0  0  0  0  0  0
   -0.6293  -13.4826   -0.7338 C   0  0  0  0  0  0  0  0  0  0  0  0
    0.8080   -8.8387    1.0681 Br  0  0  0  0  0  0  0  0  0  0  0  0
    2.4197   -7.2538    3.3527 N   0  0  0  0  0  0  0  0  0  0  0  0
   -0.5082  -14.8454   -0.9856 C   0  0  0  0  0  0  0  0  0  0  0  0
   -0.1589  -15.7323   -0.0375 C   0  0  0  0  0  0  0  0  0  0  0  0
    0.3119  -15.3546    1.1546 C   0  0  0  0  0  0  0  0  0  0  0  0
    0.3287  -14.0596    1.4769 C   0  0  0  0  0  0  0  0  0  0  0  0
    0.5351  -13.4155    2.6851 N   0  0  0  0  0  0  0  0  0  0  0  0
    0.6940  -16.2823    2.2537 F   0  0  0  0  0  0  0  0  0  0  0  0
  1  2  1  0
  8 11  1  0
  1 12  1  0
 15 18  1  0
  9 10  1  0
 10 13  2  0
 13 14  1  0
 14 15  2  0
 15 16  1  0
  2  3  2  0
  3  4  1  0
  4  5  2  0
  6  8  2  0
  2  8  1  0
  5  6  1  0
  6  7  1  0
  7  9  2  0
  9 16  1  0
 16 17  2  0
  5 17  1  0
M  END

$$$$
No_2459-/export/home/yangzhenyu/potential_scad_32_flow//YTHDC2/2024-12-06-03-22-00/
     RDKit          3D

 20 21  0  0  0  0  0  0  0  0999 V2000
    1.1787   -8.0297    3.5154 C   0  0  0  0  0  0  0  0  0  0  0  0
    1.1048   -9.2215    3.2892 C   0  0  0  0  0  0  0  0  0  0  0  0
    1.2339   -9.7611    2.0189 C   0  0  0  0  0  0  0  0  0  0  0  0
    1.3583   -9.0036    0.9764 C   0  0  0  0  0  0  0  0  0  0  0  0
    1.5996   -7.6362    1.1311 C   0  0  0  0  0  0  0  0  0  0  0  0
    1.4830   -7.0928    2.3626 C   0  0  0  0  0  0  0  0  0  0  0  0
    1.5395   -5.7300    2.6182 C   0  0  0  0  0  0  0  0  0  0  0  0
    1.1775  -11.2233    1.8407 C   0  0  0  0  0  0  0  0  0  0  0  0
    0.5085  -11.9762    2.1989 C   0  0  0  0  0  0  0  0  0  0  0  0
    0.4247  -13.3704    2.0465 C   0  0  0  0  0  0  0  0  0  0  0  0
    1.6054  -14.1557    2.4664 C   0  0  0  0  0  0  0  0  0  0  0  0
    1.8317  -15.3638    2.3262 N   0  0  0  0  0  0  0  0  0  0  0  0
    0.9406  -16.2477    2.2596 C   0  0  0  0  0  0  0  0  0  0  0  0
   -0.3047  -15.8028    1.8981 C   0  0  0  0  0  0  0  0  0  0  0  0
   -0.5334  -14.4556    1.8636 C   0  0  0  0  0  0  0  0  0  0  0  0
   -1.7878  -14.0464    1.5271 C   0  0  0  0  0  0  0  0  0  0  0  0
   -2.7821  -13.8751    2.2546 C   0  0  0  0  0  0  0  0  0  0  0  0
   -4.0377  -13.6316    2.0634 C   0  0  0  0  0  0  0  0  0  0  0  0
   -4.3354  -13.2087    0.8182 C   0  0  0  0  0  0  0  0  0  0  0  0
   -3.4017  -13.2389   -0.1902 C   0  0  0  0  0  0  0  0  0  0  0  0
  6  7  1  0
  3  8  1  0
  8  9  2  3
  9 10  1  0
 15 16  1  0
 16 17  1  0
 17 18  2  3
 18 19  1  0
 19 20  2  0
  1  2  2  0
  2  3  1  0
  3  4  2  0
  4  5  1  0
  5  6  2  0
  1  6  1  0
 10 11  2  0
 11 12  1  0
 12 13  2  0
 13 14  1  0
 14 15  2  0
 10 15  1  0
M  END

$$$$
No_2460-/export/home/yangzhenyu/potential_scad_32_flow//YTHDC2/2024-12-06-03-22-00/
     RDKit          3D

 19 20  0  0  1  0  0  0  0  0999 V2000
    1.1787   -8.0297    3.5154 C   0  0  0  0  0  0  0  0  0  0  0  0
    1.1048   -9.2215    3.2892 C   0  0  0  0  0  0  0  0  0  0  0  0
    1.2339   -9.7611    2.0189 C   0  0  0  0  0  0  0  0  0  0  0  0
    1.3583   -9.0036    0.9764 C   0  0  0  0  0  0  0  0  0  0  0  0
    1.5996   -7.6362    1.1311 C   0  0  0  0  0  0  0  0  0  0  0  0
    1.4830   -7.0928    2.3626 C   0  0  0  0  0  0  0  0  0  0  0  0
    1.1008  -11.2372    1.8542 C   0  0  1  0  0  0  0  0  0  0  0  0
    0.4812  -11.6084    0.6459 C   0  0  0  0  0  0  0  0  0  0  0  0
    0.5134  -13.0269    0.4830 C   0  0  0  0  0  0  0  0  0  0  0  0
    1.2057  -13.8685    1.2734 C   0  0  2  0  0  0  0  0  0  0  0  0
    1.9819  -13.3990    2.3594 C   0  0  1  0  0  0  0  0  0  0  0  0
    1.8610  -12.0988    2.6716 C   0  0  0  0  0  0  0  0  0  0  0  0
    2.4163  -11.5839    3.7861 O   0  0  0  0  0  0  0  0  0  0  0  0
    1.5574   -5.6480    2.6418 C   0  0  0  0  0  0  0  0  0  0  0  0
    1.7142   -5.1255    3.7666 N   0  0  0  0  0  0  0  0  0  0  0  0
    1.4482   -4.8341    1.5564 O   0  0  0  0  0  0  0  0  0  0  0  0
    2.5058  -14.3088    3.1808 O   0  0  0  0  0  0  0  0  0  0  0  0
    1.6216   -9.5046   -0.5863 O   0  0  0  0  0  0  0  0  0  0  0  0
    1.2600  -15.2063    0.9769 Cl  0  0  0  0  0  0  0  0  0  0  0  0
  7  3  1  6
  7  8  1  0
  9 10  1  0
  7 12  1  0
 11 12  1  0
 12 13  2  0
  6 14  1  0
 14 15  1  0
 14 16  2  0
 11 17  1  1
  4 18  1  0
 10 19  1  6
  8  9  1  0
 10 11  1  0
  1  2  2  0
  2  3  1  0
  3  4  2  0
  4  5  1  0
  5  6  2  0
  1  6  1  0
M  END

$$$$
No_2461-/export/home/yangzhenyu/potential_scad_32_flow//YTHDC2/2024-12-06-03-22-00/
     RDKit          3D

 18 19  0  0  1  0  0  0  0  0999 V2000
    1.1787   -8.0297    3.5154 C   0  0  0  0  0  0  0  0  0  0  0  0
    1.1048   -9.2215    3.2892 C   0  0  0  0  0  0  0  0  0  0  0  0
    1.0239   -9.7790    2.0239 C   0  0  0  0  0  0  0  0  0  0  0  0
    1.1393   -9.0211    0.9686 C   0  0  0  0  0  0  0  0  0  0  0  0
    1.4050   -7.6500    1.1251 C   0  0  0  0  0  0  0  0  0  0  0  0
    1.4868   -7.1041    2.3534 C   0  0  0  0  0  0  0  0  0  0  0  0
    1.5562   -5.7208    2.5782 C   0  0  0  0  0  0  0  0  0  0  0  0
    0.8782  -11.3633    1.9235 C   0  0  1  0  0  0  0  0  0  0  0  0
    1.9186  -12.0693    2.0412 N   0  0  0  0  0  0  0  0  0  0  0  0
    1.7553  -13.4307    1.9166 C   0  0  0  0  0  0  0  0  0  0  0  0
    0.6318  -13.9052    2.4848 C   0  0  1  0  0  0  0  0  0  0  0  0
   -0.4410  -13.1595    2.6699 C   0  0  0  0  0  0  0  0  0  0  0  0
   -0.2658  -11.7304    2.4743 C   0  0  0  0  0  0  0  0  0  0  0  0
    0.4581  -15.3739    2.6331 C   0  0  0  0  0  0  0  0  0  0  0  0
    1.5829  -16.0728    3.1107 C   0  0  0  0  0  0  0  0  0  0  0  0
    1.3909  -17.4954    3.4133 C   0  0  0  0  0  0  0  0  0  0  0  0
    0.3310  -18.1015    3.3387 C   0  0  0  0  0  0  0  0  0  0  0  0
   -0.8117  -17.4404    2.9819 C   0  0  0  0  0  0  0  0  0  0  0  0
  6  7  1  0
  8  3  1  1
  8  9  1  0
  9 10  1  0
 10 11  1  0
 11 12  1  0
  8 13  1  0
 12 13  1  0
 11 14  1  6
 14 15  1  0
 15 16  2  3
 16 17  1  0
 17 18  2  0
  1  2  2  0
  2  3  1  0
  3  4  2  0
  4  5  1  0
  5  6  2  0
  1  6  1  0
M  END

$$$$
No_2462-/export/home/yangzhenyu/potential_scad_32_flow//YTHDC2/2024-12-06-03-22-00/
     RDKit          3D

 18 18  0  0  1  0  0  0  0  0999 V2000
    1.1787   -8.0297    3.5154 C   0  0  0  0  0  0  0  0  0  0  0  0
    1.0491   -6.8434    2.9820 C   0  0  0  0  0  0  0  0  0  0  0  0
    0.9905   -9.0774    2.6527 C   0  0  0  0  0  0  0  0  0  0  0  0
    0.9687   -8.6883    1.3634 C   0  0  0  0  0  0  0  0  0  0  0  0
    1.0948   -6.3768    1.7686 C   0  0  0  0  0  0  0  0  0  0  0  0
    0.9504   -7.3975    0.8471 C   0  0  0  0  0  0  0  0  0  0  0  0
    1.0175  -10.5389    3.0735 C   0  0  1  0  0  0  0  0  0  0  0  0
    2.0625  -11.0809    3.4130 C   0  0  1  0  0  0  0  0  0  0  0  0
    2.9200  -10.4798    4.2224 N   0  0  0  0  0  0  0  0  0  0  0  0
    2.2656  -12.4013    3.2483 C   0  0  0  0  0  0  0  0  0  0  0  0
    2.1523  -13.2992    4.0927 O   0  0  0  0  0  0  0  0  0  0  0  0
    1.4612  -12.8998    2.0831 O   0  0  0  0  0  0  0  0  0  0  0  0
    1.0409   -5.0663    1.2617 Cl  0  0  0  0  0  0  0  0  0  0  0  0
    3.9486  -11.2456    5.0414 O   0  0  0  0  0  0  0  0  0  0  0  0
    0.9453   -9.9435    0.0845 Br  0  0  0  0  0  0  0  0  0  0  0  0
   -0.2815  -10.8255    3.4043 C   0  0  0  0  0  0  0  0  0  0  0  0
   -1.4223  -10.4754    2.8933 C   0  0  0  0  0  0  0  0  0  0  0  0
   -2.2078   -9.6116    3.3853 C   0  0  0  0  0  0  0  0  0  0  0  0
  3  7  1  0
  7  8  1  0
  8  9  1  1
  8 10  1  0
 10 11  1  0
 10 12  2  0
  5 13  1  0
  9 14  2  0
  4 15  1  0
  7 16  1  1
 16 17  1  0
 17 18  2  0
  1  2  2  0
  2  5  1  0
  5  6  2  0
  4  6  1  0
  3  4  2  0
  1  3  1  0
M  END

$$$$
No_2463-/export/home/yangzhenyu/potential_scad_32_flow//YTHDC2/2024-12-06-03-22-00/
     RDKit          3D

 17 17  0  0  0  0  0  0  0  0999 V2000
    1.1787   -8.0297    3.5154 C   0  0  0  0  0  0  0  0  0  0  0  0
    1.0491   -6.8434    2.9820 C   0  0  0  0  0  0  0  0  0  0  0  0
    1.9985   -8.9840    2.8958 C   0  0  0  0  0  0  0  0  0  0  0  0
    1.9135  -10.3404    3.6266 C   0  0  0  0  0  0  0  0  0  0  0  0
    1.3291  -11.3908    3.0222 C   0  0  0  0  0  0  0  0  0  0  0  0
    1.2749  -12.5326    3.7562 N   0  0  0  0  0  0  0  0  0  0  0  0
    1.2353   -6.5097    1.7970 C   0  0  0  0  0  0  0  0  0  0  0  0
    0.9639   -5.1123    1.3491 C   0  0  0  0  0  0  0  0  0  0  0  0
    0.9723  -11.4840    1.8077 O   0  0  0  0  0  0  0  0  0  0  0  0
    0.7847  -13.7372    3.1781 C   0  0  0  0  0  0  0  0  0  0  0  0
    1.5631   -3.8955    1.7681 C   0  0  0  0  0  0  0  0  0  0  0  0
    1.4974  -14.3078    2.3591 C   0  0  0  0  0  0  0  0  0  0  0  0
    1.0748  -15.6262    1.8832 C   0  0  0  0  0  0  0  0  0  0  0  0
   -0.0664  -16.0834    2.1892 C   0  0  0  0  0  0  0  0  0  0  0  0
   -0.8400  -15.4124    3.1222 C   0  0  0  0  0  0  0  0  0  0  0  0
   -0.3810  -14.2386    3.6627 C   0  0  0  0  0  0  0  0  0  0  0  0
    1.1862   -2.7106    1.4723 C   0  0  0  0  0  0  0  0  0  0  0  0
  1  2  1  0
  1  3  1  0
  3  4  1  0
  4  5  1  0
  5  6  1  0
  2  7  2  3
  7  8  1  0
  5  9  2  0
  6 10  1  0
  8 11  2  3
 11 17  1  0
 10 12  2  0
 12 13  1  0
 13 14  2  0
 14 15  1  0
 15 16  2  0
 10 16  1  0
M  END

$$$$
No_2464-/export/home/yangzhenyu/potential_scad_32_flow//YTHDC2/2024-12-06-03-22-00/
     RDKit          3D

 19 20  0  0  0  0  0  0  0  0999 V2000
    1.1787   -8.0297    3.5154 C   0  0  0  0  0  0  0  0  0  0  0  0
    1.1048   -9.2215    3.2892 C   0  0  0  0  0  0  0  0  0  0  0  0
    1.2339   -9.7611    2.0189 C   0  0  0  0  0  0  0  0  0  0  0  0
    1.3583   -9.0036    0.9764 C   0  0  0  0  0  0  0  0  0  0  0  0
    1.5996   -7.6362    1.1311 C   0  0  0  0  0  0  0  0  0  0  0  0
    1.4830   -7.0928    2.3626 C   0  0  0  0  0  0  0  0  0  0  0  0
    1.5395   -5.7300    2.6182 C   0  0  0  0  0  0  0  0  0  0  0  0
    1.1969  -11.3760    1.8433 C   0  0  0  0  0  0  0  0  0  0  0  0
    0.2951  -11.9827    2.0623 C   0  0  0  0  0  0  0  0  0  0  0  0
    0.2264  -13.3724    1.9493 C   0  0  0  0  0  0  0  0  0  0  0  0
   -0.6651  -14.1398    1.6389 C   0  0  0  0  0  0  0  0  0  0  0  0
   -1.9496  -13.5954    1.3434 C   0  0  0  0  0  0  0  0  0  0  0  0
   -2.0595  -12.1565    1.3693 C   0  0  0  0  0  0  0  0  0  0  0  0
   -0.9785  -11.3667    1.6865 C   0  0  0  0  0  0  0  0  0  0  0  0
    1.5855  -14.0233    2.1924 C   0  0  0  0  0  0  0  0  0  0  0  0
    1.7828  -14.6381    3.3781 C   0  0  0  0  0  0  0  0  0  0  0  0
    2.2117  -15.9755    3.2890 C   0  0  0  0  0  0  0  0  0  0  0  0
    1.6380  -17.1147    3.6132 N   0  0  0  0  0  0  0  0  0  0  0  0
    2.2660  -18.2667    3.3459 C   0  0  0  0  0  0  0  0  0  0  0  0
  6  7  1  0
  3  8  1  0
 10 15  1  0
 15 16  1  0
 16 17  1  0
 17 18  1  0
 18 19  1  0
  8  9  1  0
  1  2  2  0
  2  3  1  0
  3  4  2  0
  4  5  1  0
  5  6  2  0
  1  6  1  0
  9 10  2  0
 10 11  1  0
 11 12  2  0
 12 13  1  0
 13 14  2  0
  9 14  1  0
M  END

$$$$
No_2465-/export/home/yangzhenyu/potential_scad_32_flow//YTHDC2/2024-12-06-03-22-00/
     RDKit          3D

 18 19  0  0  1  0  0  0  0  0999 V2000
    1.1787   -8.0297    3.5154 C   0  0  0  0  0  0  0  0  0  0  0  0
    1.1048   -9.2215    3.2892 C   0  0  0  0  0  0  0  0  0  0  0  0
    1.2339   -9.7611    2.0189 C   0  0  0  0  0  0  0  0  0  0  0  0
    1.3583   -9.0036    0.9764 C   0  0  0  0  0  0  0  0  0  0  0  0
    1.5996   -7.6362    1.1311 C   0  0  0  0  0  0  0  0  0  0  0  0
    1.4830   -7.0928    2.3626 C   0  0  0  0  0  0  0  0  0  0  0  0
    1.5395   -5.7300    2.6182 C   0  0  0  0  0  0  0  0  0  0  0  0
    1.1969  -11.3760    1.8433 C   0  0  0  0  0  0  0  0  0  0  0  0
    0.2951  -11.9827    2.0623 C   0  0  1  0  0  0  0  0  0  0  0  0
   -0.9878  -11.4755    2.0049 C   0  0  0  0  0  0  0  0  0  0  0  0
   -1.7945  -11.4171    2.9577 C   0  0  0  0  0  0  0  0  0  0  0  0
   -3.0626  -11.1106    3.2010 C   0  0  0  0  0  0  0  0  0  0  0  0
   -3.6942  -10.8281    2.0019 C   0  0  0  0  0  0  0  0  0  0  0  0
   -3.0663  -10.7977    0.8145 C   0  0  0  0  0  0  0  0  0  0  0  0
   -1.7201  -11.1440    0.7219 C   0  0  0  0  0  0  0  0  0  0  0  0
    0.5363  -13.2971    2.1634 C   0  0  0  0  0  0  0  0  0  0  0  0
   -0.3933  -14.3063    1.9390 C   0  0  0  0  0  0  0  0  0  0  0  0
   -1.0256  -15.0030    2.8100 C   0  0  0  0  0  0  0  0  0  0  0  0
  6  7  1  0
  3  8  1  0
  9  8  1  6
  9 10  1  0
  9 16  1  0
 16 17  1  0
 17 18  1  0
  1  2  2  0
  2  3  1  0
  3  4  2  0
  4  5  1  0
  5  6  2  0
  1  6  1  0
 10 11  2  0
 11 12  1  0
 12 13  2  0
 13 14  1  0
 14 15  2  0
 10 15  1  0
M  END

$$$$
No_2466-/export/home/yangzhenyu/potential_scad_32_flow//YTHDC2/2024-12-06-03-22-00/
     RDKit          3D

 19 20  0  0  0  0  0  0  0  0999 V2000
    1.1787   -8.0297    3.5154 O   0  0  0  0  0  0  0  0  0  0  0  0
    0.9969   -8.9689    3.0048 C   0  0  0  0  0  0  0  0  0  0  0  0
    1.3055  -10.1056    3.6616 C   0  0  0  0  0  0  0  0  0  0  0  0
    1.1249  -11.3503    3.0941 C   0  0  0  0  0  0  0  0  0  0  0  0
    0.6932  -11.4484    1.8586 C   0  0  0  0  0  0  0  0  0  0  0  0
    0.5498  -10.3736    1.0579 C   0  0  0  0  0  0  0  0  0  0  0  0
    0.7643   -9.1185    1.6383 C   0  0  0  0  0  0  0  0  0  0  0  0
    0.5937   -7.8467    1.0482 C   0  0  0  0  0  0  0  0  0  0  0  0
    1.5294   -7.0230    1.0749 O   0  0  0  0  0  0  0  0  0  0  0  0
   -0.6365   -7.3369    0.8365 S   0  0  0  0  0  0  0  0  0  0  0  0
    1.1879  -12.6529    3.8218 C   0  0  0  0  0  0  0  0  0  0  0  0
    1.4055  -13.7488    2.9489 C   0  0  0  0  0  0  0  0  0  0  0  0
    0.4347  -14.8781    3.2066 C   0  0  0  0  0  0  0  0  0  0  0  0
    0.9249  -16.1648    2.7223 C   0  0  0  0  0  0  0  0  0  0  0  0
    2.1345  -16.3915    2.1863 C   0  0  0  0  0  0  0  0  0  0  0  0
    3.1425  -15.3618    2.1514 C   0  0  0  0  0  0  0  0  0  0  0  0
    2.7425  -14.1088    2.5128 N   0  0  0  0  0  0  0  0  0  0  0  0
    2.6196  -17.8285    1.7579 Cl  0  0  0  0  0  0  0  0  0  0  0  0
    0.0477  -17.2271    2.9306 S   0  0  0  0  0  0  0  0  0  0  0  0
  1  2  1  0
  7  8  1  0
  8  9  1  0
  8 10  2  0
  4 11  1  0
 11 12  1  0
 15 18  1  0
 14 19  1  0
 12 13  2  0
 13 14  1  0
 14 15  2  0
 15 16  1  0
 16 17  2  0
 12 17  1  0
  2  3  2  0
  3  4  1  0
  4  5  2  0
  5  6  1  0
  6  7  2  0
  2  7  1  0
M  END

$$$$
No_2467-/export/home/yangzhenyu/potential_scad_32_flow//YTHDC2/2024-12-06-03-22-00/
     RDKit          3D

 18 18  0  0  1  0  0  0  0  0999 V2000
    1.1787   -8.0297    3.5154 C   0  0  0  0  0  0  0  0  0  0  0  0
    1.0491   -6.8434    2.9820 C   0  0  0  0  0  0  0  0  0  0  0  0
    0.9905   -9.0774    2.6527 C   0  0  0  0  0  0  0  0  0  0  0  0
    0.9687   -8.6883    1.3634 C   0  0  0  0  0  0  0  0  0  0  0  0
    1.0948   -6.3768    1.7686 C   0  0  0  0  0  0  0  0  0  0  0  0
    0.9504   -7.3975    0.8471 C   0  0  0  0  0  0  0  0  0  0  0  0
    0.7712   -9.7492    0.3219 C   0  0  0  0  0  0  0  0  0  0  0  0
    1.2375  -10.9204    0.4464 O   0  0  0  0  0  0  0  0  0  0  0  0
    0.4436   -9.5262   -0.9896 N   0  0  0  0  0  0  0  0  0  0  0  0
    1.0713   -5.0380    1.3659 Cl  0  0  0  0  0  0  0  0  0  0  0  0
    1.1190  -10.4434    3.0832 C   0  0  2  0  0  0  0  0  0  0  0  0
    0.0625  -11.1052    3.4774 C   0  0  2  0  0  0  0  0  0  0  0  0
   -0.9972  -10.3428    3.9917 C   0  0  0  0  0  0  0  0  0  0  0  0
   -2.2313  -10.4710    3.5392 C   0  0  0  0  0  0  0  0  0  0  0  0
   -3.2965   -9.6289    4.0988 C   0  0  0  0  0  0  0  0  0  0  0  0
    0.1581  -12.4277    3.5996 C   0  0  0  0  0  0  0  0  0  0  0  0
    2.4617  -10.8482    3.2058 Cl  0  0  0  0  0  0  0  0  0  0  0  0
   -4.0580  -10.2155    5.1208 C   0  0  0  0  0  0  0  0  0  0  0  0
  4  7  1  0
  7  8  2  0
  7  9  1  0
  5 10  1  0
  3 11  1  0
 11 12  1  0
 12 13  1  0
 13 14  2  3
 14 15  1  0
 12 16  1  1
 11 17  1  1
 15 18  1  0
  1  2  2  0
  2  5  1  0
  5  6  2  0
  4  6  1  0
  3  4  2  0
  1  3  1  0
M  END

$$$$
No_2468-/export/home/yangzhenyu/potential_scad_32_flow//YTHDC2/2024-12-06-03-22-00/
     RDKit          3D

 20 22  0  0  0  0  0  0  0  0999 V2000
    1.1787   -8.0297    3.5154 C   0  0  0  0  0  0  0  0  0  0  0  0
    1.1048   -9.2215    3.2892 C   0  0  0  0  0  0  0  0  0  0  0  0
    1.3627  -10.1721    4.3044 C   0  0  0  0  0  0  0  0  0  0  0  0
    1.0682  -11.5187    4.0618 C   0  0  0  0  0  0  0  0  0  0  0  0
    0.6332  -11.9655    2.9682 C   0  0  0  0  0  0  0  0  0  0  0  0
    0.4776  -11.1308    1.9203 C   0  0  0  0  0  0  0  0  0  0  0  0
    0.7470   -9.8274    2.0368 C   0  0  0  0  0  0  0  0  0  0  0  0
    1.0387   -7.0301    2.5175 C   0  0  0  0  0  0  0  0  0  0  0  0
    0.9130   -7.5288    1.2013 C   0  0  0  0  0  0  0  0  0  0  0  0
    0.7893   -8.7979    0.9542 C   0  0  0  0  0  0  0  0  0  0  0  0
    0.5241   -9.2578   -0.2817 C   0  0  0  0  0  0  0  0  0  0  0  0
   -0.1121   -8.6523   -1.0898 O   0  0  0  0  0  0  0  0  0  0  0  0
    0.4916  -13.3676    2.6814 C   0  0  0  0  0  0  0  0  0  0  0  0
    0.8930  -13.9924    1.7241 C   0  0  0  0  0  0  0  0  0  0  0  0
    0.3070  -14.6610    0.9482 C   0  0  0  0  0  0  0  0  0  0  0  0
   -0.9539  -15.0964    1.1014 C   0  0  0  0  0  0  0  0  0  0  0  0
   -1.4456  -14.6119    2.4529 C   0  0  0  0  0  0  0  0  0  0  0  0
   -0.7078  -13.8631    3.1718 C   0  0  0  0  0  0  0  0  0  0  0  0
    1.4480   -9.9238   -0.9023 O   0  0  0  0  0  0  0  0  0  0  0  0
    1.2778   -5.4188    2.7306 C   0  0  0  0  0  0  0  0  0  0  0  0
 10 11  1  0
 11 12  2  0
  5 13  1  0
 11 19  1  0
  8 20  1  0
  2  3  1  0
  3  4  2  0
  4  5  1  0
  5  6  2  0
  6  7  1  0
 13 14  2  0
 14 15  1  0
 15 16  2  0
 16 17  1  0
 17 18  2  0
 13 18  1  0
  1  2  2  0
  2  7  1  0
  7 10  2  0
  9 10  1  0
  8  9  2  0
  1  8  1  0
M  END

$$$$
No_2469-/export/home/yangzhenyu/potential_scad_32_flow//YTHDC2/2024-12-06-03-22-00/
     RDKit          3D

 18 19  0  0  1  0  0  0  0  0999 V2000
    1.1787   -8.0297    3.5154 C   0  0  0  0  0  0  0  0  0  0  0  0
    1.0491   -6.8434    2.9820 C   0  0  0  0  0  0  0  0  0  0  0  0
    0.9905   -9.0774    2.6527 C   0  0  0  0  0  0  0  0  0  0  0  0
    0.7897   -8.9519    1.3691 C   0  0  0  0  0  0  0  0  0  0  0  0
    0.6550  -10.0985    0.4848 C   0  0  0  0  0  0  0  0  0  0  0  0
    0.7849   -6.5836    1.6043 C   0  0  0  0  0  0  0  0  0  0  0  0
    0.6652   -7.6671    0.8008 C   0  0  0  0  0  0  0  0  0  0  0  0
    1.2441  -11.1828    0.5777 O   0  0  0  0  0  0  0  0  0  0  0  0
   -0.7197  -10.3036    0.0501 O   0  0  0  0  0  0  0  0  0  0  0  0
    1.2016  -10.4369    3.2263 C   0  0  2  0  0  0  0  0  0  0  0  0
    2.5767  -10.8855    3.5503 C   0  0  0  0  0  0  0  0  0  0  0  0
    2.4627  -12.0963    4.2995 C   0  0  0  0  0  0  0  0  0  0  0  0
    1.3782  -12.7674    4.1990 C   0  0  1  0  0  0  0  0  0  0  0  0
    0.5393  -11.7297    3.4055 C   0  0  0  0  0  0  0  0  0  0  0  0
    0.7559   -5.2745    1.1032 O   0  0  0  0  0  0  0  0  0  0  0  0
    0.9287  -13.9331    4.2765 C   0  0  0  0  0  0  0  0  0  0  0  0
    1.2324   -4.1992    1.8287 C   0  0  0  0  0  0  0  0  0  0  0  0
    0.0062  -14.6039    3.3066 O   0  0  0  0  0  0  0  0  0  0  0  0
  4  5  1  0
  5  8  1  0
  5  9  2  0
 10  3  1  6
 10 11  1  0
 11 12  2  0
 12 13  1  0
 10 14  1  0
 13 14  1  0
  6 15  1  0
 13 16  1  6
 15 17  1  0
 16 18  2  0
  1  2  2  0
  2  6  1  0
  6  7  2  0
  4  7  1  0
  3  4  2  0
  1  3  1  0
M  END

$$$$
No_2470-/export/home/yangzhenyu/potential_scad_32_flow//YTHDC2/2024-12-06-03-22-00/
     RDKit          3D

 20 20  0  0  0  0  0  0  0  0999 V2000
    1.1787   -8.0297    3.5154 C   0  0  0  0  0  0  0  0  0  0  0  0
    1.1048   -9.2215    3.2892 C   0  0  0  0  0  0  0  0  0  0  0  0
    1.3627  -10.1721    4.3044 C   0  0  0  0  0  0  0  0  0  0  0  0
    1.7354  -11.4730    3.9023 C   0  0  0  0  0  0  0  0  0  0  0  0
    1.8080  -11.8127    2.7216 C   0  0  0  0  0  0  0  0  0  0  0  0
    1.5854  -11.0021    1.7249 C   0  0  0  0  0  0  0  0  0  0  0  0
    1.3573   -9.7389    1.9287 C   0  0  0  0  0  0  0  0  0  0  0  0
    1.1102   -8.8712    0.9017 C   0  0  0  0  0  0  0  0  0  0  0  0
    1.5724   -9.1697   -0.3048 C   0  0  0  0  0  0  0  0  0  0  0  0
    2.0008   -8.5407   -1.1008 O   0  0  0  0  0  0  0  0  0  0  0  0
    2.1139  -13.4153    2.3314 C   0  0  0  0  0  0  0  0  0  0  0  0
    1.2812  -10.3074   -0.7990 O   0  0  0  0  0  0  0  0  0  0  0  0
    1.0632  -14.1360    1.8096 O   0  0  0  0  0  0  0  0  0  0  0  0
    0.1201   -7.2129    3.3752 O   0  0  0  0  0  0  0  0  0  0  0  0
    3.1428  -13.9272    2.4966 O   0  0  0  0  0  0  0  0  0  0  0  0
    2.2777   -7.1464    3.4359 O   0  0  0  0  0  0  0  0  0  0  0  0
   -0.1174  -13.9336    1.9619 C   0  0  0  0  0  0  0  0  0  0  0  0
   -1.0106  -14.9204    1.4534 C   0  0  0  0  0  0  0  0  0  0  0  0
   -0.4018  -15.9546    1.3281 C   0  0  0  0  0  0  0  0  0  0  0  0
   -0.3338  -16.7317    2.4887 C   0  0  0  0  0  0  0  0  0  0  0  0
  1  2  1  0
  7  8  1  0
  8  9  1  0
  9 10  2  0
  5 11  1  0
  9 12  1  0
 11 13  1  0
  1 14  2  0
 11 15  2  0
  1 16  1  0
 13 17  1  0
 17 18  1  0
 18 19  1  0
 19 20  1  0
  2  3  2  0
  3  4  1  0
  4  5  2  0
  5  6  1  0
  6  7  2  0
  2  7  1  0
M  END

$$$$
No_2471-/export/home/yangzhenyu/potential_scad_32_flow//YTHDC2/2024-12-06-03-22-00/
     RDKit          3D

 20 21  0  0  1  0  0  0  0  0999 V2000
    1.1787   -8.0297    3.5154 C   0  0  0  0  0  0  0  0  0  0  0  0
    1.1048   -9.2215    3.2892 C   0  0  0  0  0  0  0  0  0  0  0  0
    1.3627  -10.1721    4.3044 C   0  0  0  0  0  0  0  0  0  0  0  0
    1.7354  -11.4730    3.9023 C   0  0  0  0  0  0  0  0  0  0  0  0
    1.6166  -11.5515    2.5159 C   0  0  1  0  0  0  0  0  0  0  0  0
    1.4080  -10.1475    2.0704 C   0  0  0  0  0  0  0  0  0  0  0  0
    0.6131   -7.0752    2.5759 C   0  0  0  0  0  0  0  0  0  0  0  0
    0.2423   -7.6345    1.3565 C   0  0  0  0  0  0  0  0  0  0  0  0
    0.7492   -9.0993    1.0947 C   0  0  0  0  0  0  0  0  0  0  0  0
    1.7198  -12.4113    1.6668 C   0  0  0  0  0  0  0  0  0  0  0  0
    2.0328  -13.7292    2.0052 C   0  0  0  0  0  0  0  0  0  0  0  0
    2.0720  -14.8740    1.1596 O   0  0  0  0  0  0  0  0  0  0  0  0
    0.4459   -5.4582    2.6925 C   0  0  1  0  0  0  0  0  0  0  0  0
    1.6217   -4.8679    3.0753 C   0  0  0  0  0  0  0  0  0  0  0  0
    2.0056  -14.1114    3.3315 O   0  0  0  0  0  0  0  0  0  0  0  0
   -0.2080   -4.9260    1.4755 C   0  0  0  0  0  0  0  0  0  0  0  0
   -1.5932   -4.8579    1.4851 C   0  0  0  0  0  0  0  0  0  0  0  0
   -2.2881   -5.0138    0.6394 C   0  0  0  0  0  0  0  0  0  0  0  0
   -3.6889   -5.0897    0.7217 C   0  0  0  0  0  0  0  0  0  0  0  0
   -4.1195   -4.8565    2.0035 C   0  0  0  0  0  0  0  0  0  0  0  0
  2  3  1  0
  3  4  2  0
  4  5  1  0
  5  6  1  0
  5 10  1  6
 10 11  2  3
 11 12  1  0
  7 13  1  0
 13 14  1  6
 11 15  1  0
 13 16  1  0
 16 17  1  0
 17 18  2  3
 18 19  1  0
 19 20  2  0
  1  2  2  0
  2  6  1  0
  6  9  2  0
  8  9  1  0
  7  8  2  0
  1  7  1  0
M  END

$$$$
No_2472-/export/home/yangzhenyu/potential_scad_32_flow//YTHDC2/2024-12-06-03-22-00/
     RDKit          3D

 18 20  0  0  0  0  0  0  0  0999 V2000
    1.1787   -8.0297    3.5154 C   0  0  0  0  0  0  0  0  0  0  0  0
    1.1048   -9.2215    3.2892 C   0  0  0  0  0  0  0  0  0  0  0  0
    1.3627  -10.1721    4.3044 C   0  0  0  0  0  0  0  0  0  0  0  0
    1.0682  -11.5187    4.0618 C   0  0  0  0  0  0  0  0  0  0  0  0
    0.6332  -11.9655    2.9682 C   0  0  0  0  0  0  0  0  0  0  0  0
    0.4719  -13.4293    2.7591 C   0  0  0  0  0  0  0  0  0  0  0  0
    1.1778  -13.9123    1.8627 C   0  0  0  0  0  0  0  0  0  0  0  0
    1.0139   -7.1500    2.3162 C   0  0  0  0  0  0  0  0  0  0  0  0
    0.9579   -7.5938    1.1197 C   0  0  0  0  0  0  0  0  0  0  0  0
    1.1526   -8.8632    0.8377 C   0  0  0  0  0  0  0  0  0  0  0  0
    1.2084   -9.8039    1.9137 C   0  0  0  0  0  0  0  0  0  0  0  0
    0.9618  -11.3216    1.7657 C   0  0  0  0  0  0  0  0  0  0  0  0
    1.8088  -14.8453    2.0275 C   0  0  0  0  0  0  0  0  0  0  0  0
    1.7065  -15.8069    3.2081 C   0  0  0  0  0  0  0  0  0  0  0  0
    0.6804  -15.3801    4.0381 C   0  0  0  0  0  0  0  0  0  0  0  0
    0.0673  -14.1617    3.8617 N   0  0  0  0  0  0  0  0  0  0  0  0
    1.0238   -5.6116    2.4627 Cl  0  0  0  0  0  0  0  0  0  0  0  0
    1.1422   -9.5040   -0.4011 C   0  0  0  0  0  0  0  0  0  0  0  0
  5  6  1  0
  8 17  1  0
 10 18  1  0
  1  2  2  0
 10 11  2  0
  9 10  1  0
  8  9  2  0
  1  8  1  0
  2  3  1  0
  3  4  2  0
  4  5  1  0
  5 12  2  0
 11 12  1  0
  2 11  1  0
  6  7  2  0
  7 13  1  0
 13 14  2  0
 14 15  1  0
 15 16  2  0
  6 16  1  0
M  END

$$$$
No_2473-/export/home/yangzhenyu/potential_scad_32_flow//YTHDC2/2024-12-06-03-22-00/
     RDKit          3D

 19 20  0  0  1  0  0  0  0  0999 V2000
    1.1787   -8.0297    3.5154 C   0  0  0  0  0  0  0  0  0  0  0  0
    1.0491   -6.8434    2.9820 C   0  0  0  0  0  0  0  0  0  0  0  0
    0.9905   -9.0774    2.6527 C   0  0  0  0  0  0  0  0  0  0  0  0
    0.7897   -8.9519    1.3691 C   0  0  0  0  0  0  0  0  0  0  0  0
    0.7018   -7.7198    0.7892 C   0  0  0  0  0  0  0  0  0  0  0  0
    0.8918   -6.5957    1.6117 C   0  0  0  0  0  0  0  0  0  0  0  0
    1.0998  -10.4710    3.2437 C   0  0  1  0  0  0  0  0  0  0  0  0
    1.3102  -11.5554    2.5214 C   0  0  0  0  0  0  0  0  0  0  0  0
    1.4257  -12.8124    3.1919 C   0  0  0  0  0  0  0  0  0  0  0  0
    0.9222  -13.9339    2.5039 C   0  0  0  0  0  0  0  0  0  0  0  0
    0.6525  -14.0547    1.2727 C   0  0  0  0  0  0  0  0  0  0  0  0
    0.6172  -12.8463    0.5151 C   0  0  0  0  0  0  0  0  0  0  0  0
    0.9198  -11.5792    1.1784 C   0  0  0  0  0  0  0  0  0  0  0  0
    0.8631   -5.2647    1.2098 N   0  0  0  0  0  0  0  0  0  0  0  0
    1.0477  -15.2149    3.2697 Cl  0  0  0  0  0  0  0  0  0  0  0  0
    0.9575   -4.3170    2.2106 N   0  0  0  0  0  0  0  0  0  0  0  0
    0.2593   -3.3079    2.0624 O   0  0  0  0  0  0  0  0  0  0  0  0
    0.5524  -15.1647    0.5161 O   0  0  0  0  0  0  0  0  0  0  0  0
    1.5485  -10.4958    4.5790 O   0  0  0  0  0  0  0  0  0  0  0  0
  3  7  1  0
 10 15  1  0
 14 16  1  0
 16 17  2  0
 11 18  1  0
  7 19  1  1
  7  8  1  0
  6 14  1  0
  1  2  2  0
  2  6  1  0
  5  6  2  0
  4  5  1  0
  3  4  2  0
  1  3  1  0
  8  9  2  0
  9 10  1  0
 10 11  2  0
 11 12  1  0
 12 13  2  0
  8 13  1  0
M  END

$$$$
No_2474-/export/home/yangzhenyu/potential_scad_32_flow//YTHDC2/2024-12-06-03-22-00/
     RDKit          3D

 19 21  0  0  1  0  0  0  0  0999 V2000
    1.1787   -8.0297    3.5154 C   0  0  0  0  0  0  0  0  0  0  0  0
    1.1048   -9.2215    3.2892 C   0  0  0  0  0  0  0  0  0  0  0  0
    1.3627  -10.1721    4.3044 C   0  0  0  0  0  0  0  0  0  0  0  0
    1.0682  -11.5187    4.0618 C   0  0  0  0  0  0  0  0  0  0  0  0
    0.6332  -11.9655    2.9682 C   0  0  0  0  0  0  0  0  0  0  0  0
    0.4776  -11.1308    1.9203 C   0  0  0  0  0  0  0  0  0  0  0  0
    0.7470   -9.8274    2.0368 C   0  0  0  0  0  0  0  0  0  0  0  0
    0.5535   -7.1314    2.6861 N   0  0  0  0  0  0  0  0  0  0  0  0
    0.4462   -7.5890    1.3163 C   0  0  0  0  0  0  0  0  0  0  0  0
    0.3167   -8.8396    1.0546 C   0  0  0  0  0  0  0  0  0  0  0  0
    0.0293   -9.1967   -0.1763 O   0  0  0  0  0  0  0  0  0  0  0  0
    0.5016  -13.3978    2.6818 Cl  0  0  0  0  0  0  0  0  0  0  0  0
   -0.1138   -6.5895    0.5220 O   0  0  0  0  0  0  0  0  0  0  0  0
    0.8741   -5.6456    2.8949 C   0  0  1  0  0  0  0  0  0  0  0  0
    2.1823   -5.1283    3.0276 C   0  0  0  0  0  0  0  0  0  0  0  0
    2.0541   -3.6718    2.8827 C   0  0  0  0  0  0  0  0  0  0  0  0
    0.8069   -3.0319    2.8418 C   0  0  0  0  0  0  0  0  0  0  0  0
   -0.0316   -4.4197    2.8295 C   0  0  2  0  0  0  0  0  0  0  0  0
   -1.0078   -4.4196    3.6261 C   0  0  0  0  0  0  0  0  0  0  0  0
  1  2  1  0
  1  8  1  0
  8  9  1  0
  7 10  1  0
  9 10  1  0
 10 11  2  0
  5 12  1  0
  9 13  2  0
 14  8  1  6
 14 15  1  0
 15 16  2  0
 16 17  1  0
 14 18  1  0
 17 18  1  0
 18 19  1  1
  2  3  2  0
  3  4  1  0
  4  5  2  0
  5  6  1  0
  6  7  2  0
  2  7  1  0
M  END

$$$$
No_2475-/export/home/yangzhenyu/potential_scad_32_flow//YTHDC2/2024-12-06-03-22-00/
     RDKit          3D

 19 20  0  0  0  0  0  0  0  0999 V2000
    1.1787   -8.0297    3.5154 C   0  0  0  0  0  0  0  0  0  0  0  0
    1.1048   -9.2215    3.2892 C   0  0  0  0  0  0  0  0  0  0  0  0
    1.2339   -9.7611    2.0189 C   0  0  0  0  0  0  0  0  0  0  0  0
    1.1954  -11.2312    1.8661 C   0  0  0  0  0  0  0  0  0  0  0  0
    1.2996  -11.5815    0.5387 C   0  0  0  0  0  0  0  0  0  0  0  0
    1.3263   -7.1208    2.3229 C   0  0  0  0  0  0  0  0  0  0  0  0
    1.3693   -7.6408    1.0625 C   0  0  0  0  0  0  0  0  0  0  0  0
    1.4358   -8.9950    0.8622 C   0  0  0  0  0  0  0  0  0  0  0  0
    1.1800  -13.0763    0.6448 C   0  0  0  0  0  0  0  0  0  0  0  0
    1.0518  -12.1823    2.6382 C   0  0  0  0  0  0  0  0  0  0  0  0
    0.9955  -13.4284    2.1805 C   0  0  0  0  0  0  0  0  0  0  0  0
    0.8687  -14.5796    2.7066 C   0  0  0  0  0  0  0  0  0  0  0  0
    0.7600  -14.8349    3.8654 O   0  0  0  0  0  0  0  0  0  0  0  0
    0.4299  -15.6326    1.9173 N   0  0  0  0  0  0  0  0  0  0  0  0
    1.3182   -5.6268    2.5212 C   0  0  0  0  0  0  0  0  0  0  0  0
    0.9910   -4.8385    1.5490 O   0  0  0  0  0  0  0  0  0  0  0  0
    1.7412   -5.1266    3.6293 O   0  0  0  0  0  0  0  0  0  0  0  0
    1.4770   -9.3543   -0.3589 C   0  0  0  0  0  0  0  0  0  0  0  0
    0.5044   -9.5618   -1.1065 O   0  0  0  0  0  0  0  0  0  0  0  0
  3  4  1  0
  4  5  1  0
  5  9  2  0
  4 10  1  0
  9 11  1  0
 10 11  1  0
 11 12  1  0
 12 13  2  0
 12 14  1  0
  6 15  1  0
 15 16  1  0
 15 17  2  0
  8 18  1  0
 18 19  2  0
  1  2  2  0
  2  3  1  0
  3  8  2  0
  7  8  1  0
  6  7  2  0
  1  6  1  0
M  END

$$$$
No_2476-/export/home/yangzhenyu/potential_scad_32_flow//YTHDC2/2024-12-06-03-22-00/
     RDKit          3D

 20 21  0  0  1  0  0  0  0  0999 V2000
    1.1787   -8.0297    3.5154 C   0  0  0  0  0  0  0  0  0  0  0  0
    1.0491   -6.8434    2.9820 C   0  0  0  0  0  0  0  0  0  0  0  0
    0.9905   -9.0774    2.6527 C   0  0  0  0  0  0  0  0  0  0  0  0
    0.7897   -8.9519    1.3691 C   0  0  0  0  0  0  0  0  0  0  0  0
    0.7018   -7.7198    0.7892 C   0  0  0  0  0  0  0  0  0  0  0  0
    0.8918   -6.5957    1.6117 C   0  0  0  0  0  0  0  0  0  0  0  0
    1.0998  -10.4710    3.2437 C   0  0  1  0  0  0  0  0  0  0  0  0
    0.0472  -11.2546    3.3963 C   0  0  0  0  0  0  0  0  0  0  0  0
   -1.1989  -10.6161    3.7011 C   0  0  0  0  0  0  0  0  0  0  0  0
    0.8958   -5.2750    1.1754 C   0  0  0  0  0  0  0  0  0  0  0  0
   -2.3154  -10.8612    3.0663 C   0  0  0  0  0  0  0  0  0  0  0  0
   -3.5219  -10.1511    3.4190 C   0  0  0  0  0  0  0  0  0  0  0  0
   -3.6906   -9.5516    4.2481 C   0  0  0  0  0  0  0  0  0  0  0  0
   -2.4950   -9.0632    5.1424 C   0  0  0  0  0  0  0  0  0  0  0  0
   -1.2396   -9.6813    4.8744 C   0  0  0  0  0  0  0  0  0  0  0  0
    2.3953  -10.9297    3.3793 Cl  0  0  0  0  0  0  0  0  0  0  0  0
    0.1063  -12.4993    3.5193 O   0  0  0  0  0  0  0  0  0  0  0  0
   -0.1783   -4.7336    0.7050 N   0  0  0  0  0  0  0  0  0  0  0  0
   -0.2128   -3.4639    0.3063 C   0  0  0  0  0  0  0  0  0  0  0  0
    0.6645   -2.5763    0.9217 C   0  0  0  0  0  0  0  0  0  0  0  0
  3  7  1  0
  7  8  1  0
  8  9  1  0
  6 10  1  0
  7 16  1  6
  8 17  2  0
 10 18  1  0
 18 19  1  0
 19 20  1  0
  1  2  2  0
  2  6  1  0
  5  6  2  0
  4  5  1  0
  3  4  2  0
  1  3  1  0
  9 11  2  0
 11 12  1  0
 12 13  2  0
 13 14  1  0
 14 15  2  0
  9 15  1  0
M  END

$$$$
No_2477-/export/home/yangzhenyu/potential_scad_32_flow//YTHDC2/2024-12-06-03-22-00/
     RDKit          3D

 20 22  0  0  0  0  0  0  0  0999 V2000
    1.1787   -8.0297    3.5154 C   0  0  0  0  0  0  0  0  0  0  0  0
    1.1048   -9.2215    3.2892 C   0  0  0  0  0  0  0  0  0  0  0  0
    1.2339   -9.7611    2.0189 C   0  0  0  0  0  0  0  0  0  0  0  0
    1.1954  -11.2312    1.8661 C   0  0  0  0  0  0  0  0  0  0  0  0
    1.5546  -12.1691    2.7931 C   0  0  0  0  0  0  0  0  0  0  0  0
    0.9527   -7.0669    2.3918 C   0  0  0  0  0  0  0  0  0  0  0  0
    1.0618   -7.6392    1.0692 C   0  0  0  0  0  0  0  0  0  0  0  0
    1.2060   -8.9530    0.8578 C   0  0  0  0  0  0  0  0  0  0  0  0
    1.5110  -13.5006    2.3856 C   0  0  0  0  0  0  0  0  0  0  0  0
    1.1461  -13.9087    1.2014 C   0  0  0  0  0  0  0  0  0  0  0  0
    0.9324  -13.0660    0.2177 C   0  0  0  0  0  0  0  0  0  0  0  0
    0.9275  -11.6786    0.5224 C   0  0  0  0  0  0  0  0  0  0  0  0
    1.0249   -5.4090    2.5055 C   0  0  0  0  0  0  0  0  0  0  0  0
    1.9100  -14.4144    3.4308 Cl  0  0  0  0  0  0  0  0  0  0  0  0
    0.4416   -4.8347    1.6013 C   0  0  0  0  0  0  0  0  0  0  0  0
    0.0430   -3.6157    1.9432 C   0  0  0  0  0  0  0  0  0  0  0  0
    0.6432   -2.9459    3.1090 C   0  0  0  0  0  0  0  0  0  0  0  0
    1.3534   -3.7281    4.0326 C   0  0  0  0  0  0  0  0  0  0  0  0
    1.5701   -5.0659    3.7452 N   0  0  0  0  0  0  0  0  0  0  0  0
   -0.5682   -2.7272    0.9594 C   0  0  0  0  0  0  0  0  0  0  0  0
  3  4  1  0
  6 13  1  0
  9 14  1  0
 16 20  1  0
 13 15  2  0
 15 16  1  0
 16 17  2  0
 17 18  1  0
 18 19  2  0
 13 19  1  0
  1  2  2  0
  2  3  1  0
  3  8  2  0
  7  8  1  0
  6  7  2  0
  1  6  1  0
  4  5  2  0
  5  9  1  0
  9 10  2  0
 10 11  1  0
 11 12  2  0
  4 12  1  0
M  END

$$$$
No_2478-/export/home/yangzhenyu/potential_scad_32_flow//YTHDC2/2024-12-06-03-22-00/
     RDKit          3D

 18 19  0  0  0  0  0  0  0  0999 V2000
    1.1787   -8.0297    3.5154 C   0  0  0  0  0  0  0  0  0  0  0  0
    1.1048   -9.2215    3.2892 C   0  0  0  0  0  0  0  0  0  0  0  0
    1.2339   -9.7611    2.0189 C   0  0  0  0  0  0  0  0  0  0  0  0
    1.3583   -9.0036    0.9764 C   0  0  0  0  0  0  0  0  0  0  0  0
    1.5996   -7.6362    1.1311 C   0  0  0  0  0  0  0  0  0  0  0  0
    1.4830   -7.0928    2.3626 C   0  0  0  0  0  0  0  0  0  0  0  0
    1.1171  -11.3311    1.8661 C   0  0  0  0  0  0  0  0  0  0  0  0
    1.9975  -12.1095    2.2478 C   0  0  0  0  0  0  0  0  0  0  0  0
    1.7697  -13.4418    1.9079 C   0  0  0  0  0  0  0  0  0  0  0  0
    0.8824  -13.8563    1.1154 C   0  0  0  0  0  0  0  0  0  0  0  0
   -0.0664  -12.9335    0.5986 C   0  0  0  0  0  0  0  0  0  0  0  0
    0.1158  -11.5559    0.9634 C   0  0  0  0  0  0  0  0  0  0  0  0
    1.5514   -5.6395    2.6394 C   0  0  0  0  0  0  0  0  0  0  0  0
   -0.8269  -10.6579    0.5192 C   0  0  0  0  0  0  0  0  0  0  0  0
   -1.9101  -10.3443    1.3694 C   0  0  0  0  0  0  0  0  0  0  0  0
   -2.9295   -9.4271    0.8752 N   0  0  0  0  0  0  0  0  0  0  0  0
   -2.5303   -9.1158   -0.3924 C   0  0  0  0  0  0  0  0  0  0  0  0
   -3.1475   -8.1351   -1.1317 N   0  0  0  0  0  0  0  0  0  0  0  0
  3  7  1  0
  6 13  1  0
 12 14  1  0
 14 15  2  3
 15 16  1  0
 16 17  2  3
 17 18  1  0
  1  2  2  0
  2  3  1  0
  3  4  2  0
  4  5  1  0
  5  6  2  0
  1  6  1  0
  7  8  2  0
  8  9  1  0
  9 10  2  0
 10 11  1  0
 11 12  2  0
  7 12  1  0
M  END

$$$$
No_2479-/export/home/yangzhenyu/potential_scad_32_flow//YTHDC2/2024-12-06-03-22-00/
     RDKit          3D

 17 18  0  0  1  0  0  0  0  0999 V2000
    1.1787   -8.0297    3.5154 C   0  0  0  0  0  0  0  0  0  0  0  0
    1.0491   -6.8434    2.9820 C   0  0  0  0  0  0  0  0  0  0  0  0
    0.9905   -9.0774    2.6527 C   0  0  1  0  0  0  0  0  0  0  0  0
    0.7897   -8.9519    1.3691 C   0  0  0  0  0  0  0  0  0  0  0  0
    0.7018   -7.7198    0.7892 C   0  0  0  0  0  0  0  0  0  0  0  0
    0.8918   -6.5957    1.6117 C   0  0  0  0  0  0  0  0  0  0  0  0
    1.0998  -10.4710    3.2437 C   0  0  0  0  0  0  0  0  0  0  0  0
    0.0472  -11.2546    3.3963 C   0  0  0  0  0  0  0  0  0  0  0  0
    0.1622  -12.5732    3.4140 C   0  0  0  0  0  0  0  0  0  0  0  0
    1.4182  -13.1957    3.4048 C   0  0  0  0  0  0  0  0  0  0  0  0
    2.5550  -12.3947    3.0877 C   0  0  0  0  0  0  0  0  0  0  0  0
    2.4166  -11.0849    2.9699 C   0  0  0  0  0  0  0  0  0  0  0  0
    0.8666   -5.2662    1.1708 O   0  0  0  0  0  0  0  0  0  0  0  0
    1.4152  -14.5597    3.3707 Cl  0  0  0  0  0  0  0  0  0  0  0  0
    0.6238   -9.9619    0.3444 Cl  0  0  0  0  0  0  0  0  0  0  0  0
    1.2969   -5.6522    3.7696 O   0  0  0  0  0  0  0  0  0  0  0  0
   -1.1522  -10.6146    3.6763 Cl  0  0  0  0  0  0  0  0  0  0  0  0
  1  2  1  0
  3  4  1  0
  2  6  1  0
  5  6  1  0
  3  7  1  6
  6 13  2  0
 10 14  1  0
  4 15  1  0
  2 16  2  0
  8 17  1  0
  1  3  1  0
  4  5  1  0
  7  8  2  0
  8  9  1  0
  9 10  2  0
 10 11  1  0
 11 12  2  0
  7 12  1  0
M  END

$$$$
No_2480-/export/home/yangzhenyu/potential_scad_32_flow//YTHDC2/2024-12-06-03-22-00/
     RDKit          3D

 18 19  0  0  0  0  0  0  0  0999 V2000
    1.1787   -8.0297    3.5154 C   0  0  0  0  0  0  0  0  0  0  0  0
    1.0491   -6.8434    2.9820 C   0  0  0  0  0  0  0  0  0  0  0  0
    0.9905   -9.0774    2.6527 C   0  0  0  0  0  0  0  0  0  0  0  0
    0.7897   -8.9519    1.3691 C   0  0  0  0  0  0  0  0  0  0  0  0
    0.7018   -7.7198    0.7892 C   0  0  0  0  0  0  0  0  0  0  0  0
    0.8918   -6.5957    1.6117 C   0  0  0  0  0  0  0  0  0  0  0  0
    1.0774  -10.6059    3.3145 C   0  0  0  0  0  0  0  0  0  0  0  0
   -0.1032  -11.1934    3.4585 C   0  0  0  0  0  0  0  0  0  0  0  0
   -0.6526  -11.6596    2.5137 C   0  0  0  0  0  0  0  0  0  0  0  0
    0.0987  -12.0995    1.4264 C   0  0  0  0  0  0  0  0  0  0  0  0
    1.4570  -11.6566    1.3384 C   0  0  0  0  0  0  0  0  0  0  0  0
    1.9230  -10.8772    2.2941 C   0  0  0  0  0  0  0  0  0  0  0  0
   -0.4334  -12.8295    0.3837 C   0  0  0  0  0  0  0  0  0  0  0  0
   -1.0481  -12.3448   -0.7005 C   0  0  0  0  0  0  0  0  0  0  0  0
   -1.0799  -10.9820   -0.9181 C   0  0  0  0  0  0  0  0  0  0  0  0
   -1.9590  -10.5369   -1.7847 C   0  0  0  0  0  0  0  0  0  0  0  0
   -2.6158  -11.3584   -2.6332 C   0  0  0  0  0  0  0  0  0  0  0  0
   -2.5715  -12.6505   -2.4233 C   0  0  0  0  0  0  0  0  0  0  0  0
  3  7  1  0
 10 13  1  0
 13 14  1  0
 14 15  2  3
 15 16  1  0
 16 17  2  3
 17 18  1  0
  1  2  2  0
  2  6  1  0
  5  6  2  0
  4  5  1  0
  3  4  2  0
  1  3  1  0
  7  8  2  0
  8  9  1  0
  9 10  2  0
 10 11  1  0
 11 12  2  0
  7 12  1  0
M  END

$$$$
No_2481-/export/home/yangzhenyu/potential_scad_32_flow//YTHDC2/2024-12-06-03-22-00/
     RDKit          3D

 18 19  0  0  1  0  0  0  0  0999 V2000
    1.1787   -8.0297    3.5154 C   0  0  0  0  0  0  0  0  0  0  0  0
    1.0491   -6.8434    2.9820 C   0  0  0  0  0  0  0  0  0  0  0  0
    0.9905   -9.0774    2.6527 C   0  0  0  0  0  0  0  0  0  0  0  0
    0.7897   -8.9519    1.3691 C   0  0  0  0  0  0  0  0  0  0  0  0
    0.7018   -7.7198    0.7892 C   0  0  0  0  0  0  0  0  0  0  0  0
    0.8918   -6.5957    1.6117 C   0  0  0  0  0  0  0  0  0  0  0  0
    1.0711  -10.4814    3.2282 C   0  0  1  0  0  0  0  0  0  0  0  0
   -0.1055  -11.1328    3.5223 C   0  0  0  0  0  0  0  0  0  0  0  0
   -1.2061  -10.3495    3.8837 C   0  0  0  0  0  0  0  0  0  0  0  0
   -2.3575  -10.4930    3.2158 C   0  0  0  0  0  0  0  0  0  0  0  0
   -3.4916   -9.6901    3.6596 C   0  0  0  0  0  0  0  0  0  0  0  0
    2.2850  -11.1179    3.2983 C   0  0  0  0  0  0  0  0  0  0  0  0
   -0.1397  -12.3905    3.6000 O   0  0  0  0  0  0  0  0  0  0  0  0
   -3.5116   -8.3495    3.8924 C   0  0  0  0  0  0  0  0  0  0  0  0
   -4.4187   -7.6130    4.4785 C   0  0  0  0  0  0  0  0  0  0  0  0
   -5.7076   -8.1366    4.1906 C   0  0  0  0  0  0  0  0  0  0  0  0
   -5.8789   -9.3782    3.9432 C   0  0  0  0  0  0  0  0  0  0  0  0
   -4.8272  -10.1643    3.5728 C   0  0  0  0  0  0  0  0  0  0  0  0
  3  7  1  0
  7  8  1  0
  8  9  1  0
  9 10  2  3
 10 11  1  0
  7 12  1  6
  8 13  2  0
  1  2  2  0
  2  6  1  0
  5  6  2  0
  4  5  1  0
  3  4  2  0
  1  3  1  0
 11 14  2  0
 14 15  1  0
 15 16  2  0
 16 17  1  0
 17 18  2  0
 11 18  1  0
M  END

$$$$
No_2482-/export/home/yangzhenyu/potential_scad_32_flow//YTHDC2/2024-12-06-03-22-00/
     RDKit          3D

 19 19  0  0  0  0  0  0  0  0999 V2000
    1.1787   -8.0297    3.5154 N   0  0  0  0  0  0  0  0  0  0  0  0
    1.0818   -9.0751    3.2053 C   0  0  0  0  0  0  0  0  0  0  0  0
    0.7576   -9.3725    1.9159 C   0  0  0  0  0  0  0  0  0  0  0  0
    1.2780   -8.6457    1.1231 C   0  0  0  0  0  0  0  0  0  0  0  0
    1.8257   -7.4190    1.2668 C   0  0  0  0  0  0  0  0  0  0  0  0
    1.7766   -6.9690    2.5491 C   0  0  0  0  0  0  0  0  0  0  0  0
    1.2424   -8.9778   -0.3991 C   0  0  0  0  0  0  0  0  0  0  0  0
   -0.0129   -9.3015   -0.8042 O   0  0  0  0  0  0  0  0  0  0  0  0
    2.1508   -8.8361   -1.2104 O   0  0  0  0  0  0  0  0  0  0  0  0
    0.5327  -10.0210    4.4177 C   0  0  0  0  0  0  0  0  0  0  0  0
   -0.1803  -11.1564    3.9590 O   0  0  0  0  0  0  0  0  0  0  0  0
    2.0570   -5.7034    3.0372 C   0  0  0  0  0  0  0  0  0  0  0  0
    1.8804   -5.3256    4.2500 O   0  0  0  0  0  0  0  0  0  0  0  0
    2.1960   -4.7248    2.1454 O   0  0  0  0  0  0  0  0  0  0  0  0
    0.8570   -9.9448    5.5073 O   0  0  0  0  0  0  0  0  0  0  0  0
    1.2347   -3.5924    2.0765 C   0  0  0  0  0  0  0  0  0  0  0  0
    1.1468   -3.0925    1.1572 C   0  0  0  0  0  0  0  0  0  0  0  0
   -0.0409   -2.2638    0.8119 C   0  0  0  0  0  0  0  0  0  0  0  0
   -1.1364   -2.7068    1.3474 C   0  0  0  0  0  0  0  0  0  0  0  0
  4  7  1  0
  7  8  2  0
  7  9  1  0
  2 10  1  0
 10 11  2  0
  6 12  1  0
 12 13  2  0
 12 14  1  0
 10 15  1  0
 14 16  1  0
 16 17  1  0
 17 18  1  0
 18 19  1  0
  1  2  2  0
  2  3  1  0
  3  4  2  0
  4  5  1  0
  5  6  2  0
  1  6  1  0
M  END

$$$$
No_2483-/export/home/yangzhenyu/potential_scad_32_flow//YTHDC2/2024-12-06-03-22-00/
     RDKit          3D

 18 19  0  0  0  0  0  0  0  0999 V2000
    1.1787   -8.0297    3.5154 C   0  0  0  0  0  0  0  0  0  0  0  0
    1.1048   -9.2215    3.2892 C   0  0  0  0  0  0  0  0  0  0  0  0
    1.2339   -9.7611    2.0189 C   0  0  0  0  0  0  0  0  0  0  0  0
    1.3583   -9.0036    0.9764 C   0  0  0  0  0  0  0  0  0  0  0  0
    1.5996   -7.6362    1.1311 C   0  0  0  0  0  0  0  0  0  0  0  0
    1.4830   -7.0928    2.3626 C   0  0  0  0  0  0  0  0  0  0  0  0
    1.4898   -5.7274    2.6199 C   0  0  0  0  0  0  0  0  0  0  0  0
    1.1681  -11.2222    1.8390 C   0  0  0  0  0  0  0  0  0  0  0  0
    0.5014  -11.9760    2.2068 C   0  0  0  0  0  0  0  0  0  0  0  0
    0.4167  -13.3685    2.0527 C   0  0  0  0  0  0  0  0  0  0  0  0
   -0.6161  -14.0718    1.8701 C   0  0  0  0  0  0  0  0  0  0  0  0
   -0.5561  -15.5453    1.8466 C   0  0  0  0  0  0  0  0  0  0  0  0
    0.7310  -16.1377    2.1551 C   0  0  0  0  0  0  0  0  0  0  0  0
    1.8180  -15.4300    2.5124 C   0  0  0  0  0  0  0  0  0  0  0  0
    1.7507  -14.0019    2.4628 C   0  0  0  0  0  0  0  0  0  0  0  0
    0.6670   -4.9772    2.7273 N   0  0  0  0  0  0  0  0  0  0  0  0
    0.7677   -3.5395    3.1277 C   0  0  0  0  0  0  0  0  0  0  0  0
    0.8366  -17.5181    2.2497 C   0  0  0  0  0  0  0  0  0  0  0  0
  6  7  1  0
  3  8  1  0
  8  9  2  3
  9 10  1  0
  7 16  1  0
 16 17  1  0
 13 18  1  0
  1  2  2  0
  2  3  1  0
  3  4  2  0
  4  5  1  0
  5  6  2  0
  1  6  1  0
 10 11  2  0
 11 12  1  0
 12 13  2  0
 13 14  1  0
 14 15  2  0
 10 15  1  0
M  END

$$$$
No_2484-/export/home/yangzhenyu/potential_scad_32_flow//YTHDC2/2024-12-06-03-22-00/
     RDKit          3D

 20 21  0  0  1  0  0  0  0  0999 V2000
    1.1787   -8.0297    3.5154 C   0  0  0  0  0  0  0  0  0  0  0  0
    1.1048   -9.2215    3.2892 C   0  0  0  0  0  0  0  0  0  0  0  0
    1.4683  -10.2314    4.1915 C   0  0  0  0  0  0  0  0  0  0  0  0
    0.8445   -6.9865    2.5175 C   0  0  0  0  0  0  0  0  0  0  0  0
    0.3587   -7.3973    1.3953 C   0  0  0  0  0  0  0  0  0  0  0  0
    0.1901   -8.6971    1.0711 C   0  0  0  0  0  0  0  0  0  0  0  0
    0.5759   -9.6648    1.9442 C   0  0  0  0  0  0  0  0  0  0  0  0
    1.8402  -11.5521    3.5557 C   0  0  0  0  0  0  0  0  0  0  0  0
    1.4228  -11.9086    2.4385 C   0  0  0  0  0  0  0  0  0  0  0  0
    0.9898  -10.9113    1.5071 C   0  0  0  0  0  0  0  0  0  0  0  0
    1.6284  -13.2354    1.9369 I   0  0  0  0  0  0  0  0  0  0  0  0
    0.9664   -5.5349    2.8890 C   0  0  1  0  0  0  0  0  0  0  0  0
    1.7180   -5.2687    3.8977 N   0  0  0  0  0  0  0  0  0  0  0  0
    0.4994   -4.6667    2.0800 C   0  0  0  0  0  0  0  0  0  0  0  0
   -0.3498   -4.5268    1.3601 O   0  0  0  0  0  0  0  0  0  0  0  0
    1.6848   -3.7920    1.5355 O   0  0  0  0  0  0  0  0  0  0  0  0
   -0.1373   -9.0997   -0.2622 C   0  0  0  0  0  0  0  0  0  0  0  0
    0.4165   -8.8719   -1.3178 N   0  0  0  0  0  0  0  0  0  0  0  0
   -1.3458   -9.7117   -0.4168 O   0  0  0  0  0  0  0  0  0  0  0  0
   -0.1036   -9.2522   -2.5342 O   0  0  0  0  0  0  0  0  0  0  0  0
  9 11  1  0
  4 12  1  0
 12 13  1  6
 12 14  1  0
 14 15  2  0
 14 16  1  0
  6 17  1  0
 17 18  1  0
 17 19  2  0
 18 20  2  0
  1  2  2  0
  6  7  2  0
  5  6  1  0
  4  5  2  0
  1  4  1  0
  2  3  1  0
  3  8  2  0
  8  9  1  0
  9 10  2  0
  7 10  1  0
  2  7  1  0
M  END

$$$$
No_2485-/export/home/yangzhenyu/potential_scad_32_flow//YTHDC2/2024-12-06-03-22-00/
     RDKit          3D

 19 19  0  0  1  0  0  0  0  0999 V2000
    1.1787   -8.0297    3.5154 C   0  0  0  0  0  0  0  0  0  0  0  0
    1.0491   -6.8434    2.9820 C   0  0  0  0  0  0  0  0  0  0  0  0
    0.0950   -8.8404    3.2292 C   0  0  0  0  0  0  0  0  0  0  0  0
   -0.9173   -8.4596    2.5152 C   0  0  0  0  0  0  0  0  0  0  0  0
   -1.0331   -7.2162    2.0653 C   0  0  0  0  0  0  0  0  0  0  0  0
   -0.0105   -6.3168    2.3081 C   0  0  0  0  0  0  0  0  0  0  0  0
    0.1150   -4.9910    1.8495 C   0  0  0  0  0  0  0  0  0  0  0  0
   -0.5774   -4.1593    2.0596 O   0  0  0  0  0  0  0  0  0  0  0  0
    1.1226   -4.6805    0.9513 O   0  0  0  0  0  0  0  0  0  0  0  0
    0.1816  -10.2865    3.6380 C   0  0  0  0  0  0  0  0  0  0  0  0
    0.3143  -11.3472    2.7939 C   0  0  1  0  0  0  0  0  0  0  0  0
    0.5329  -12.6172    3.3652 C   0  0  0  0  0  0  0  0  0  0  0  0
    1.7743  -13.0409    3.4999 C   0  0  0  0  0  0  0  0  0  0  0  0
    1.8093  -14.5073    2.9488 C   0  0  0  0  0  0  0  0  0  0  0  0
    0.9137  -15.3859    3.3529 O   0  0  0  0  0  0  0  0  0  0  0  0
    2.5467  -14.7544    1.8249 O   0  0  0  0  0  0  0  0  0  0  0  0
   -0.8556  -11.4049    1.8313 C   0  0  0  0  0  0  0  0  0  0  0  0
   -2.0535  -11.9536    2.2402 C   0  0  0  0  0  0  0  0  0  0  0  0
   -3.0709  -11.9020    1.5176 C   0  0  0  0  0  0  0  0  0  0  0  0
  6  7  1  0
  7  8  2  0
  7  9  1  0
  3 10  1  0
 11 10  1  1
 11 12  1  0
 12 13  1  0
 13 14  1  0
 14 15  1  0
 14 16  2  0
 11 17  1  0
 17 18  1  0
 18 19  2  0
  1  2  2  0
  2  6  1  0
  5  6  2  0
  4  5  1  0
  3  4  2  0
  1  3  1  0
M  END

$$$$
No_2486-/export/home/yangzhenyu/potential_scad_32_flow//YTHDC2/2024-12-06-03-22-00/
     RDKit          3D

 19 20  0  0  0  0  0  0  0  0999 V2000
    1.1787   -8.0297    3.5154 C   0  0  0  0  0  0  0  0  0  0  0  0
    1.1048   -9.2215    3.2892 C   0  0  0  0  0  0  0  0  0  0  0  0
    1.4683  -10.2314    4.1915 N   0  0  0  0  0  0  0  0  0  0  0  0
    0.9665   -7.0192    2.6137 C   0  0  0  0  0  0  0  0  0  0  0  0
    0.6665   -7.3684    1.3640 C   0  0  0  0  0  0  0  0  0  0  0  0
    0.4631   -8.6445    1.0286 C   0  0  0  0  0  0  0  0  0  0  0  0
    0.7568   -9.6540    1.9106 C   0  0  0  0  0  0  0  0  0  0  0  0
    1.1163  -11.5384    4.0284 C   0  0  0  0  0  0  0  0  0  0  0  0
    0.6583  -11.9251    2.8375 C   0  0  0  0  0  0  0  0  0  0  0  0
    0.4649  -10.9645    1.8005 C   0  0  0  0  0  0  0  0  0  0  0  0
    0.4436  -13.3123    2.6705 C   0  0  0  0  0  0  0  0  0  0  0  0
    0.7794  -13.8575    1.6605 O   0  0  0  0  0  0  0  0  0  0  0  0
   -0.2143  -14.0227    3.5403 O   0  0  0  0  0  0  0  0  0  0  0  0
    1.2799   -5.5967    2.9152 C   0  0  0  0  0  0  0  0  0  0  0  0
    1.6941   -5.2729    4.0572 O   0  0  0  0  0  0  0  0  0  0  0  0
    1.2869   -4.7314    1.9263 O   0  0  0  0  0  0  0  0  0  0  0  0
    0.1377   -9.0388   -0.2926 C   0  0  0  0  0  0  0  0  0  0  0  0
    0.9427   -8.9614   -1.3348 C   0  0  0  0  0  0  0  0  0  0  0  0
    2.3698   -9.0045   -0.9232 O   0  0  0  0  0  0  0  0  0  0  0  0
  9 11  1  0
 11 12  2  0
 11 13  1  0
  4 14  1  0
 14 15  1  0
 14 16  2  0
  6 17  1  0
 17 18  1  0
 18 19  1  0
  1  2  2  0
  6  7  2  0
  5  6  1  0
  4  5  2  0
  1  4  1  0
  2  3  1  0
  3  8  2  0
  8  9  1  0
  9 10  2  0
  7 10  1  0
  2  7  1  0
M  END

$$$$
No_2487-/export/home/yangzhenyu/potential_scad_32_flow//YTHDC2/2024-12-06-03-22-00/
     RDKit          3D

 18 18  0  0  0  0  0  0  0  0999 V2000
    1.1787   -8.0297    3.5154 C   0  0  0  0  0  0  0  0  0  0  0  0
    1.1048   -9.2215    3.2892 C   0  0  0  0  0  0  0  0  0  0  0  0
    1.3627  -10.1721    4.3044 C   0  0  0  0  0  0  0  0  0  0  0  0
    2.3720  -10.8948    4.2468 C   0  0  0  0  0  0  0  0  0  0  0  0
    1.0579   -7.0441    2.4219 C   0  0  0  0  0  0  0  0  0  0  0  0
    0.8578   -7.4970    1.1686 C   0  0  0  0  0  0  0  0  0  0  0  0
    0.7382   -8.7683    0.8754 C   0  0  0  0  0  0  0  0  0  0  0  0
    0.8882   -9.7347    1.9238 C   0  0  0  0  0  0  0  0  0  0  0  0
    0.9437  -11.0299    1.7005 C   0  0  0  0  0  0  0  0  0  0  0  0
    0.4602  -11.5370    0.8140 O   0  0  0  0  0  0  0  0  0  0  0  0
    1.8018  -11.8887    2.3914 O   0  0  0  0  0  0  0  0  0  0  0  0
    3.5246  -10.0935    4.5918 C   0  0  0  0  0  0  0  0  0  0  0  0
    4.6250  -11.0417    4.9598 O   0  0  0  0  0  0  0  0  0  0  0  0
    1.1711   -5.3648    2.7480 Cl  0  0  0  0  0  0  0  0  0  0  0  0
    0.5073  -10.0707    5.3116 O   0  0  0  0  0  0  0  0  0  0  0  0
    0.5968   -9.2347   -0.4208 O   0  0  0  0  0  0  0  0  0  0  0  0
    0.0580   -8.3436   -1.4884 C   0  0  0  0  0  0  0  0  0  0  0  0
   -0.5609   -8.8544   -2.4509 C   0  0  0  0  0  0  0  0  0  0  0  0
  2  3  1  0
  3  4  1  0
  8  9  1  0
  9 10  2  0
  9 11  1  0
  4 12  1  0
 12 13  1  0
  5 14  1  0
  3 15  2  0
  7 16  1  0
 16 17  1  0
 17 18  1  0
  1  2  2  0
  2  8  1  0
  7  8  2  0
  6  7  1  0
  5  6  2  0
  1  5  1  0
M  END

$$$$
No_2488-/export/home/yangzhenyu/potential_scad_32_flow//YTHDC2/2024-12-06-03-22-00/
     RDKit          3D

 19 20  0  0  1  0  0  0  0  0999 V2000
    1.1787   -8.0297    3.5154 N   0  0  0  0  0  0  0  0  0  0  0  0
    0.8669   -7.0905    2.8589 C   0  0  0  0  0  0  0  0  0  0  0  0
    1.0447   -7.3244    1.4123 C   0  0  0  0  0  0  0  0  0  0  0  0
    1.3746   -8.4389    1.0864 C   0  0  2  0  0  0  0  0  0  0  0  0
    1.6686   -9.1952    2.5608 C   0  0  2  0  0  0  0  0  0  0  0  0
    2.0713  -10.3591    2.6852 C   0  0  0  0  0  0  0  0  0  0  0  0
    1.6566   -9.1179    0.0408 C   0  0  0  0  0  0  0  0  0  0  0  0
    1.4760  -10.3805   -0.1226 O   0  0  0  0  0  0  0  0  0  0  0  0
    1.9876   -8.4788   -1.0845 O   0  0  0  0  0  0  0  0  0  0  0  0
    1.3096  -11.2938    3.4005 C   0  0  0  0  0  0  0  0  0  0  0  0
    0.2796  -11.9081    2.9391 N   0  0  0  0  0  0  0  0  0  0  0  0
    0.4193  -13.2172    2.6725 C   0  0  0  0  0  0  0  0  0  0  0  0
   -0.6612  -13.8677    2.1265 C   0  0  0  0  0  0  0  0  0  0  0  0
   -0.5370  -15.3106    1.9996 N   0  0  0  0  0  0  0  0  0  0  0  0
    1.6452  -14.0497    2.8871 C   0  0  0  0  0  0  0  0  0  0  0  0
    1.7070  -15.3634    2.8101 C   0  0  0  0  0  0  0  0  0  0  0  0
    0.6021  -15.9728    2.3353 C   0  0  0  0  0  0  0  0  0  0  0  0
    1.6034  -11.3194    4.7492 O   0  0  0  0  0  0  0  0  0  0  0  0
   -1.7889  -13.4133    1.6303 C   0  0  0  0  0  0  0  0  0  0  0  0
  1  2  1  0
  2  3  2  0
  3  4  1  0
  1  5  1  0
  4  5  1  0
  5  6  1  6
  4  7  1  6
  7  8  2  0
  7  9  1  0
  6 10  1  0
 10 11  1  0
 11 12  1  0
 10 18  2  0
 13 19  1  0
 12 13  2  0
 13 14  1  0
 14 17  2  0
 16 17  1  0
 15 16  2  0
 12 15  1  0
M  END

$$$$
No_2489-/export/home/yangzhenyu/potential_scad_32_flow//YTHDC2/2024-12-06-03-22-00/
     RDKit          3D

 19 20  0  0  1  0  0  0  0  0999 V2000
    1.1787   -8.0297    3.5154 C   0  0  0  0  0  0  0  0  0  0  0  0
    1.0491   -6.8434    2.9820 C   0  0  0  0  0  0  0  0  0  0  0  0
    0.9905   -9.0774    2.6527 C   0  0  0  0  0  0  0  0  0  0  0  0
    0.7897   -8.9519    1.3691 C   0  0  0  0  0  0  0  0  0  0  0  0
    0.7018   -7.7198    0.7892 C   0  0  0  0  0  0  0  0  0  0  0  0
    0.8918   -6.5957    1.6117 C   0  0  0  0  0  0  0  0  0  0  0  0
    1.0711  -10.4814    3.2282 C   0  0  0  0  0  0  0  0  0  0  0  0
    1.1227  -11.5770    2.4616 C   0  0  0  0  0  0  0  0  0  0  0  0
    1.1500  -12.9052    3.0782 C   0  0  0  0  0  0  0  0  0  0  0  0
    1.2520  -13.9470    2.2846 C   0  0  2  0  0  0  0  0  0  0  0  0
    1.7273  -15.2693    2.8138 C   0  0  0  0  0  0  0  0  0  0  0  0
    0.9190  -16.0148    3.4725 C   0  0  0  0  0  0  0  0  0  0  0  0
    0.8453   -5.2737    1.1536 O   0  0  0  0  0  0  0  0  0  0  0  0
    1.1861  -17.3122    3.9011 C   0  0  0  0  0  0  0  0  0  0  0  0
    2.4516  -17.7743    3.4693 C   0  0  0  0  0  0  0  0  0  0  0  0
    3.3680  -17.0880    2.6374 C   0  0  0  0  0  0  0  0  0  0  0  0
    2.9641  -15.8104    2.2595 C   0  0  0  0  0  0  0  0  0  0  0  0
    1.0591  -13.8847    0.9728 C   0  0  0  0  0  0  0  0  0  0  0  0
    0.9236  -12.6892    0.3850 C   0  0  0  0  0  0  0  0  0  0  0  0
  3  7  1  0
  7  8  2  3
  8  9  1  0
 10  9  1  6
 10 11  1  0
  6 13  1  0
 10 18  1  0
 18 19  1  0
 11 12  2  0
 12 14  1  0
 14 15  2  0
 15 16  1  0
 16 17  2  0
 11 17  1  0
  1  2  2  0
  2  6  1  0
  5  6  2  0
  4  5  1  0
  3  4  2  0
  1  3  1  0
M  END

$$$$
No_2490-/export/home/yangzhenyu/potential_scad_32_flow//YTHDC2/2024-12-06-03-22-00/
     RDKit          3D

 17 19  0  0  0  0  0  0  0  0999 V2000
    1.1787   -8.0297    3.5154 C   0  0  0  0  0  0  0  0  0  0  0  0
    1.1048   -9.2215    3.2892 C   0  0  0  0  0  0  0  0  0  0  0  0
    1.2339   -9.7611    2.0189 C   0  0  0  0  0  0  0  0  0  0  0  0
    1.3583   -9.0036    0.9764 C   0  0  0  0  0  0  0  0  0  0  0  0
    1.5996   -7.6362    1.1311 C   0  0  0  0  0  0  0  0  0  0  0  0
    1.4830   -7.0928    2.3626 C   0  0  0  0  0  0  0  0  0  0  0  0
    1.1008  -11.2372    1.8542 C   0  0  0  0  0  0  0  0  0  0  0  0
    0.4812  -11.6084    0.6459 C   0  0  0  0  0  0  0  0  0  0  0  0
   -0.6166  -12.2864    0.7859 C   0  0  0  0  0  0  0  0  0  0  0  0
   -0.7300  -13.0625    1.9848 C   0  0  0  0  0  0  0  0  0  0  0  0
   -1.8137  -14.0948    2.0703 C   0  0  0  0  0  0  0  0  0  0  0  0
   -3.0528  -13.6359    2.0344 C   0  0  0  0  0  0  0  0  0  0  0  0
   -3.2648  -12.6376    1.0667 C   0  0  0  0  0  0  0  0  0  0  0  0
   -2.0690  -11.9259    0.5262 C   0  0  0  0  0  0  0  0  0  0  0  0
    0.5757  -13.2440    2.5420 N   0  0  0  0  0  0  0  0  0  0  0  0
    1.3780  -12.2320    2.6294 C   0  0  0  0  0  0  0  0  0  0  0  0
    1.5960   -5.6623    2.6800 C   0  0  0  0  0  0  0  0  0  0  0  0
  3  7  1  0
  6 17  1  0
  1  2  2  0
  2  3  1  0
  3  4  2  0
  4  5  1  0
  5  6  2  0
  1  6  1  0
  7  8  2  0
  8  9  1  0
 10 15  1  0
 15 16  2  0
  7 16  1  0
  9 10  2  0
 10 11  1  0
 11 12  2  0
 12 13  1  0
 13 14  2  0
  9 14  1  0
M  END

$$$$
No_2491-/export/home/yangzhenyu/potential_scad_32_flow//YTHDC2/2024-12-06-03-22-00/
     RDKit          3D

 19 21  0  0  1  0  0  0  0  0999 V2000
    1.1787   -8.0297    3.5154 N   0  0  0  0  0  0  0  0  0  0  0  0
    1.0818   -9.0751    3.2053 C   0  0  0  0  0  0  0  0  0  0  0  0
    1.5216  -10.1164    3.9747 C   0  0  0  0  0  0  0  0  0  0  0  0
    1.4420  -11.4363    3.6461 C   0  0  0  0  0  0  0  0  0  0  0  0
    0.5969  -11.7648    2.6785 C   0  0  0  0  0  0  0  0  0  0  0  0
    0.0096  -10.8332    1.9506 C   0  0  0  0  0  0  0  0  0  0  0  0
    0.3359   -9.5186    2.1388 C   0  0  0  0  0  0  0  0  0  0  0  0
    0.8819   -6.9011    2.6487 C   0  0  2  0  0  0  0  0  0  0  0  0
    0.4076   -7.2265    1.4607 C   0  0  0  0  0  0  0  0  0  0  0  0
    0.0604   -8.4780    1.1746 C   0  0  0  0  0  0  0  0  0  0  0  0
   -0.5471   -8.7214    0.0063 O   0  0  0  0  0  0  0  0  0  0  0  0
    1.3200   -5.5677    3.1055 C   0  0  0  0  0  0  0  0  0  0  0  0
    0.0301   -6.2207    0.7116 O   0  0  0  0  0  0  0  0  0  0  0  0
    0.3215  -13.4154    2.3352 C   0  0  0  0  0  0  0  0  0  0  0  0
    1.2987  -14.1986    2.8446 C   0  0  0  0  0  0  0  0  0  0  0  0
    0.9518  -15.5931    2.7965 C   0  0  0  0  0  0  0  0  0  0  0  0
   -0.2084  -15.7534    2.2046 C   0  0  0  0  0  0  0  0  0  0  0  0
   -1.0187  -14.8940    1.7467 C   0  0  0  0  0  0  0  0  0  0  0  0
   -0.7140  -13.5829    1.8413 C   0  0  0  0  0  0  0  0  0  0  0  0
  1  2  1  0
  8  9  1  0
  7 10  1  0
  9 10  1  0
 10 11  2  0
  8 12  1  6
  9 13  2  0
  5 14  1  0
  1  8  1  0
  2  3  2  0
  3  4  1  0
  4  5  2  0
  5  6  1  0
  6  7  2  0
  2  7  1  0
 14 15  2  0
 15 16  1  0
 16 17  2  0
 17 18  1  0
 18 19  2  0
 14 19  1  0
M  END

$$$$
No_2492-/export/home/yangzhenyu/potential_scad_32_flow//YTHDC2/2024-12-06-03-22-00/
     RDKit          3D

 17 17  0  0  1  0  0  0  0  0999 V2000
    1.1787   -8.0297    3.5154 C   0  0  0  0  0  0  0  0  0  0  0  0
    1.1048   -9.2215    3.2892 C   0  0  0  0  0  0  0  0  0  0  0  0
    1.3627  -10.1721    4.3044 C   0  0  0  0  0  0  0  0  0  0  0  0
    1.0682  -11.5187    4.0618 C   0  0  0  0  0  0  0  0  0  0  0  0
    0.6332  -11.9655    2.9682 C   0  0  0  0  0  0  0  0  0  0  0  0
    0.4776  -11.1308    1.9203 C   0  0  0  0  0  0  0  0  0  0  0  0
    0.7470   -9.8274    2.0368 C   0  0  0  0  0  0  0  0  0  0  0  0
    0.5535   -7.1314    2.6861 N   0  0  0  0  0  0  0  0  0  0  0  0
    0.8108   -5.6615    2.8397 C   0  0  1  0  0  0  0  0  0  0  0  0
    1.5892   -5.3057    3.8099 C   0  0  0  0  0  0  0  0  0  0  0  0
    0.3885   -4.8768    1.8708 C   0  0  0  0  0  0  0  0  0  0  0  0
   -0.2251   -5.3601    0.8717 C   0  0  0  0  0  0  0  0  0  0  0  0
    0.3303  -13.4895    2.7102 C   0  0  0  0  0  0  0  0  0  0  0  0
    1.3173  -14.3655    3.1851 N   0  0  0  0  0  0  0  0  0  0  0  0
    1.1205  -15.6841    3.0123 C   0  0  0  0  0  0  0  0  0  0  0  0
    0.0524  -16.2300    3.6034 C   0  0  0  0  0  0  0  0  0  0  0  0
    2.1007  -16.4732    2.4535 C   0  0  0  0  0  0  0  0  0  0  0  0
  1  2  1  0
  1  8  1  0
  8  9  1  0
  9 10  1  6
  9 11  1  0
 11 12  1  0
  5 13  1  0
 13 14  1  0
 14 15  1  0
 15 16  1  0
 15 17  1  0
  2  3  2  0
  3  4  1  0
  4  5  2  0
  5  6  1  0
  6  7  2  0
  2  7  1  0
M  END

$$$$
No_2493-/export/home/yangzhenyu/potential_scad_32_flow//YTHDC2/2024-12-06-03-22-00/
     RDKit          3D

 17 18  0  0  1  0  0  0  0  0999 V2000
    1.1787   -8.0297    3.5154 C   0  0  0  0  0  0  0  0  0  0  0  0
    1.1048   -9.2215    3.2892 C   0  0  0  0  0  0  0  0  0  0  0  0
    1.3627  -10.1721    4.3044 C   0  0  0  0  0  0  0  0  0  0  0  0
    1.7354  -11.4730    3.9023 C   0  0  0  0  0  0  0  0  0  0  0  0
    1.8080  -11.8127    2.7216 C   0  0  0  0  0  0  0  0  0  0  0  0
    1.5854  -11.0021    1.7249 C   0  0  0  0  0  0  0  0  0  0  0  0
    1.3573   -9.7389    1.9287 C   0  0  0  0  0  0  0  0  0  0  0  0
    1.1102   -8.8712    0.9017 C   0  0  0  0  0  0  0  0  0  0  0  0
    1.5724   -9.1697   -0.3048 O   0  0  0  0  0  0  0  0  0  0  0  0
    0.8071   -7.5472    0.9953 N   0  0  0  0  0  0  0  0  0  0  0  0
    0.8171   -7.0593    2.3461 C   0  0  2  0  0  0  0  0  0  0  0  0
    0.5906   -5.6259    2.4473 C   0  0  0  0  0  0  0  0  0  0  0  0
    2.0625  -13.2205    2.3670 C   0  0  0  0  0  0  0  0  0  0  0  0
    2.4166  -13.5848    1.0891 O   0  0  0  0  0  0  0  0  0  0  0  0
    2.0219  -14.1859    3.2265 O   0  0  0  0  0  0  0  0  0  0  0  0
   -0.5826   -5.0841    2.1215 C   0  0  0  0  0  0  0  0  0  0  0  0
   -0.6541   -3.6723    2.0476 C   0  0  0  0  0  0  0  0  0  0  0  0
  1  2  1  0
  7  8  1  0
  8  9  2  0
  8 10  1  0
 10 11  1  0
 11 12  1  6
  5 13  1  0
 13 14  2  0
 13 15  1  0
 12 16  1  0
 16 17  2  0
  1 11  1  0
  2  3  2  0
  3  4  1  0
  4  5  2  0
  5  6  1  0
  6  7  2  0
  2  7  1  0
M  END

$$$$
No_2494-/export/home/yangzhenyu/potential_scad_32_flow//YTHDC2/2024-12-06-03-22-00/
     RDKit          3D

 19 20  0  0  0  0  0  0  0  0999 V2000
    1.1787   -8.0297    3.5154 C   0  0  0  0  0  0  0  0  0  0  0  0
    1.1048   -9.2215    3.2892 C   0  0  0  0  0  0  0  0  0  0  0  0
    1.3627  -10.1721    4.3044 C   0  0  0  0  0  0  0  0  0  0  0  0
    1.7354  -11.4730    3.9023 C   0  0  0  0  0  0  0  0  0  0  0  0
    1.8080  -11.8127    2.7216 N   0  0  0  0  0  0  0  0  0  0  0  0
    1.6163  -11.0258    1.7554 C   0  0  0  0  0  0  0  0  0  0  0  0
    1.3973   -9.7755    1.9269 C   0  0  0  0  0  0  0  0  0  0  0  0
    1.3839   -8.9010    0.8794 C   0  0  0  0  0  0  0  0  0  0  0  0
    1.9218   -9.2238   -0.2442 O   0  0  0  0  0  0  0  0  0  0  0  0
    0.9119   -7.6365    0.9769 O   0  0  0  0  0  0  0  0  0  0  0  0
    0.0936   -7.2198    3.5205 O   0  0  0  0  0  0  0  0  0  0  0  0
    2.2203   -7.0449    3.7415 O   0  0  0  0  0  0  0  0  0  0  0  0
    1.8683  -11.6280    0.4918 N   0  0  0  0  0  0  0  0  0  0  0  0
    1.3177  -12.8713    0.2856 C   0  0  0  0  0  0  0  0  0  0  0  0
    1.9133  -14.0318    0.5699 C   0  0  0  0  0  0  0  0  0  0  0  0
    1.3461  -15.1418    0.5498 C   0  0  0  0  0  0  0  0  0  0  0  0
    0.1352  -15.2795    0.0688 C   0  0  0  0  0  0  0  0  0  0  0  0
   -0.5378  -14.2603   -0.4174 C   0  0  0  0  0  0  0  0  0  0  0  0
    0.0353  -12.9553   -0.2631 C   0  0  0  0  0  0  0  0  0  0  0  0
  1  2  1  0
  7  8  1  0
  8  9  2  0
  8 10  1  0
  1 11  1  0
  1 12  2  0
  6 13  1  0
 13 14  1  0
  2  3  2  0
  3  4  1  0
  4  5  2  0
  5  6  1  0
  6  7  2  0
  2  7  1  0
 14 15  2  0
 15 16  1  0
 16 17  2  0
 17 18  1  0
 18 19  2  0
 14 19  1  0
M  END

$$$$
No_2495-/export/home/yangzhenyu/potential_scad_32_flow//YTHDC2/2024-12-06-03-22-00/
     RDKit          3D

 14 14  0  0  0  0  0  0  0  0999 V2000
    1.1787   -8.0297    3.5154 C   0  0  0  0  0  0  0  0  0  0  0  0
    1.0491   -6.8434    2.9820 C   0  0  0  0  0  0  0  0  0  0  0  0
    0.0950   -8.8404    3.2292 C   0  0  0  0  0  0  0  0  0  0  0  0
   -0.9173   -8.4596    2.5152 C   0  0  0  0  0  0  0  0  0  0  0  0
   -1.0331   -7.2162    2.0653 C   0  0  0  0  0  0  0  0  0  0  0  0
   -0.0105   -6.3168    2.3081 C   0  0  0  0  0  0  0  0  0  0  0  0
    0.0485   -4.9783    1.8782 C   0  0  0  0  0  0  0  0  0  0  0  0
   -0.6974   -4.6139    0.8644 O   0  0  0  0  0  0  0  0  0  0  0  0
    1.1359   -4.1341    2.1672 O   0  0  0  0  0  0  0  0  0  0  0  0
    0.1546  -10.2873    3.6345 C   0  0  0  0  0  0  0  0  0  0  0  0
   -1.0540  -10.9691    3.7847 C   0  0  0  0  0  0  0  0  0  0  0  0
    1.2735  -10.7801    4.5017 C   0  0  0  0  0  0  0  0  0  0  0  0
    1.3508  -12.1458    4.6091 O   0  0  0  0  0  0  0  0  0  0  0  0
    2.5162  -10.2275    4.5829 N   0  0  0  0  0  0  0  0  0  0  0  0
  6  7  1  0
  7  8  2  0
  7  9  1  0
  3 10  1  0
 10 11  2  0
 10 12  1  0
 12 13  2  0
 12 14  1  0
  1  2  2  0
  2  6  1  0
  5  6  2  0
  4  5  1  0
  3  4  2  0
  1  3  1  0
M  END

$$$$
No_2496-/export/home/yangzhenyu/potential_scad_32_flow//YTHDC2/2024-12-06-03-22-00/
     RDKit          3D

 17 18  0  0  1  0  0  0  0  0999 V2000
    1.1787   -8.0297    3.5154 C   0  0  0  0  0  0  0  0  0  0  0  0
    1.0491   -6.8434    2.9820 C   0  0  0  0  0  0  0  0  0  0  0  0
    1.9985   -8.9840    2.8958 C   0  0  2  0  0  0  0  0  0  0  0  0
    1.7297   -9.2108    1.6335 C   0  0  1  0  0  0  0  0  0  0  0  0
    1.7343   -8.0566    0.8408 C   0  0  0  0  0  0  0  0  0  0  0  0
    1.0269   -6.8892    1.4456 C   0  0  0  0  0  0  0  0  0  0  0  0
    2.0740   -7.9416   -0.3682 O   0  0  0  0  0  0  0  0  0  0  0  0
    2.2757  -10.2253    3.6437 C   0  0  0  0  0  0  0  0  0  0  0  0
    1.5555  -11.3890    3.5635 N   0  0  0  0  0  0  0  0  0  0  0  0
    0.2519  -11.2594    3.8454 C   0  0  0  0  0  0  0  0  0  0  0  0
   -0.6889  -12.0226    3.3631 C   0  0  0  0  0  0  0  0  0  0  0  0
   -2.0207  -11.7074    3.4695 C   0  0  0  0  0  0  0  0  0  0  0  0
   -2.2959  -10.4538    4.1911 C   0  0  0  0  0  0  0  0  0  0  0  0
   -1.3366   -9.6339    4.7739 C   0  0  0  0  0  0  0  0  0  0  0  0
   -0.0150  -10.0422    4.5958 C   0  0  0  0  0  0  0  0  0  0  0  0
    1.9317  -10.2483    0.9207 C   0  0  0  0  0  0  0  0  0  0  0  0
    0.9000  -10.8986    0.3066 O   0  0  0  0  0  0  0  0  0  0  0  0
  1  2  1  0
  1  3  1  0
  3  4  1  0
  4  5  1  0
  2  6  1  0
  5  6  1  0
  5  7  2  0
  3  8  1  1
  8  9  1  0
  9 10  1  0
  4 16  1  6
 16 17  2  0
 10 11  2  0
 11 12  1  0
 12 13  2  0
 13 14  1  0
 14 15  2  0
 10 15  1  0
M  END

$$$$
No_2497-/export/home/yangzhenyu/potential_scad_32_flow//YTHDC2/2024-12-06-03-22-00/
     RDKit          3D

 19 19  0  0  0  0  0  0  0  0999 V2000
    1.1787   -8.0297    3.5154 C   0  0  0  0  0  0  0  0  0  0  0  0
    1.1048   -9.2215    3.2892 C   0  0  0  0  0  0  0  0  0  0  0  0
    1.3627  -10.1721    4.3044 C   0  0  0  0  0  0  0  0  0  0  0  0
    2.3720  -10.8948    4.2468 C   0  0  0  0  0  0  0  0  0  0  0  0
    0.8234   -7.0464    2.5717 C   0  0  0  0  0  0  0  0  0  0  0  0
    0.5566   -7.7497    1.3036 C   0  0  0  0  0  0  0  0  0  0  0  0
    0.4982   -8.9229    0.9641 C   0  0  0  0  0  0  0  0  0  0  0  0
    0.8209   -9.8272    2.0146 C   0  0  0  0  0  0  0  0  0  0  0  0
    0.9698  -11.1122    1.7864 C   0  0  0  0  0  0  0  0  0  0  0  0
    2.0476  -11.6129    1.2835 O   0  0  0  0  0  0  0  0  0  0  0  0
   -0.0851  -11.9367    1.8690 O   0  0  0  0  0  0  0  0  0  0  0  0
    0.9250   -5.4134    2.7533 C   0  0  0  0  0  0  0  0  0  0  0  0
    3.5591  -10.3287    5.0503 O   0  0  0  0  0  0  0  0  0  0  0  0
    1.7862   -5.2131    3.6976 O   0  0  0  0  0  0  0  0  0  0  0  0
    0.3241   -4.7569    2.0506 O   0  0  0  0  0  0  0  0  0  0  0  0
    2.6077  -12.0079    3.8599 O   0  0  0  0  0  0  0  0  0  0  0  0
    0.3448   -9.3889   -0.4994 C   0  0  0  0  0  0  0  0  0  0  0  0
   -0.4458   -8.6264   -1.1317 O   0  0  0  0  0  0  0  0  0  0  0  0
    0.4801  -10.4814   -0.8781 O   0  0  0  0  0  0  0  0  0  0  0  0
  2  3  1  0
  3  4  1  0
  8  9  1  0
  9 10  1  0
  9 11  2  0
  5 12  1  0
  4 13  1  0
 12 14  1  0
 12 15  2  0
  4 16  2  0
  7 17  1  0
 17 18  2  0
 17 19  1  0
  1  2  2  0
  2  8  1  0
  7  8  2  0
  6  7  1  0
  5  6  2  0
  1  5  1  0
M  END

$$$$
No_2498-/export/home/yangzhenyu/potential_scad_32_flow//YTHDC2/2024-12-06-03-22-00/
     RDKit          3D

 15 16  0  0  0  0  0  0  0  0999 V2000
    1.1787   -8.0297    3.5154 C   0  0  0  0  0  0  0  0  0  0  0  0
    1.1048   -9.2215    3.2892 C   0  0  0  0  0  0  0  0  0  0  0  0
    1.3627  -10.1721    4.3044 C   0  0  0  0  0  0  0  0  0  0  0  0
    1.0682  -11.5187    4.0618 C   0  0  0  0  0  0  0  0  0  0  0  0
    0.6332  -11.9655    2.9682 C   0  0  0  0  0  0  0  0  0  0  0  0
    0.4776  -11.1308    1.9203 C   0  0  0  0  0  0  0  0  0  0  0  0
    0.7470   -9.8274    2.0368 C   0  0  0  0  0  0  0  0  0  0  0  0
    1.0387   -7.0301    2.5175 N   0  0  0  0  0  0  0  0  0  0  0  0
    1.0482   -5.6912    2.8349 O   0  0  0  0  0  0  0  0  0  0  0  0
    0.4216  -13.4229    2.7917 C   0  0  0  0  0  0  0  0  0  0  0  0
    1.3971  -14.3313    3.1183 C   0  0  0  0  0  0  0  0  0  0  0  0
    1.4745  -15.5529    2.4728 C   0  0  0  0  0  0  0  0  0  0  0  0
    0.4329  -15.8982    1.7314 C   0  0  0  0  0  0  0  0  0  0  0  0
   -0.4750  -15.0474    1.3256 C   0  0  0  0  0  0  0  0  0  0  0  0
   -0.4491  -13.7173    1.8260 C   0  0  0  0  0  0  0  0  0  0  0  0
  1  2  1  0
  1  8  1  0
  8  9  2  0
  5 10  1  0
  2  3  2  0
  3  4  1  0
  4  5  2  0
  5  6  1  0
  6  7  2  0
  2  7  1  0
 10 11  2  0
 11 12  1  0
 12 13  2  0
 13 14  1  0
 14 15  2  0
 10 15  1  0
M  END

$$$$
No_2499-/export/home/yangzhenyu/potential_scad_32_flow//YTHDC2/2024-12-06-03-22-00/
     RDKit          3D

 19 19  0  0  0  0  0  0  0  0999 V2000
    1.1787   -8.0297    3.5154 O   0  0  0  0  0  0  0  0  0  0  0  0
    0.6747   -7.4019    2.7838 C   0  0  0  0  0  0  0  0  0  0  0  0
    0.7594   -8.0032    1.4295 C   0  0  0  0  0  0  0  0  0  0  0  0
    0.3459   -9.1500    1.3581 C   0  0  0  0  0  0  0  0  0  0  0  0
    0.9462   -9.9230    0.3351 C   0  0  0  0  0  0  0  0  0  0  0  0
    1.6884   -9.1549   -0.6693 C   0  0  0  0  0  0  0  0  0  0  0  0
    2.0524   -8.0315   -0.3557 C   0  0  0  0  0  0  0  0  0  0  0  0
    1.7059   -7.2327    0.6718 C   0  0  0  0  0  0  0  0  0  0  0  0
    0.5434  -11.1466    0.0192 C   0  0  0  0  0  0  0  0  0  0  0  0
   -0.4713  -11.3353   -0.8363 O   0  0  0  0  0  0  0  0  0  0  0  0
    1.1319  -12.2514    0.5244 O   0  0  0  0  0  0  0  0  0  0  0  0
   -0.5093   -7.0435    3.2110 O   0  0  0  0  0  0  0  0  0  0  0  0
    0.7034  -13.5056    0.6810 C   0  0  0  0  0  0  0  0  0  0  0  0
    0.5581  -13.6847    2.1662 C   0  0  0  0  0  0  0  0  0  0  0  0
   -0.1269  -14.7440    2.6189 C   0  0  0  0  0  0  0  0  0  0  0  0
   -1.2345  -15.0361    2.0680 C   0  0  0  0  0  0  0  0  0  0  0  0
   -1.9052  -16.2362    2.6527 C   0  0  0  0  0  0  0  0  0  0  0  0
   -1.2940  -17.0465    3.6104 Cl  0  0  0  0  0  0  0  0  0  0  0  0
   -3.1673  -16.7295    2.0930 C   0  0  0  0  0  0  0  0  0  0  0  0
  1  2  1  0
  2  3  1  0
  5  9  1  0
  9 10  2  0
  9 11  1  0
  2 12  2  0
 11 13  1  0
 13 14  1  0
 14 15  1  0
 15 16  1  0
 16 17  2  3
 17 18  1  0
 17 19  1  0
  3  4  2  0
  4  5  1  0
  5  6  2  0
  6  7  1  0
  7  8  2  0
  3  8  1  0
M  END

$$$$
No_2500-/export/home/yangzhenyu/potential_scad_32_flow//YTHDC2/2024-12-06-03-22-00/
     RDKit          3D

 19 20  0  0  1  0  0  0  0  0999 V2000
    1.1787   -8.0297    3.5154 C   0  0  0  0  0  0  0  0  0  0  0  0
    1.0491   -6.8434    2.9820 C   0  0  0  0  0  0  0  0  0  0  0  0
    1.9985   -8.9840    2.8958 C   0  0  0  0  0  0  0  0  0  0  0  0
    1.9135  -10.3404    3.6266 C   0  0  0  0  0  0  0  0  0  0  0  0
    0.7479  -10.9191    3.7202 C   0  0  2  0  0  0  0  0  0  0  0  0
    0.2782   -6.7158    1.8352 C   0  0  0  0  0  0  0  0  0  0  0  0
    0.1051   -7.5857    1.1024 C   0  0  0  0  0  0  0  0  0  0  0  0
    0.2716  -11.5576    2.5838 C   0  0  2  0  0  0  0  0  0  0  0  0
   -0.9771  -11.3457    2.3128 C   0  0  0  0  0  0  0  0  0  0  0  0
   -1.7392  -10.4655    3.0883 C   0  0  0  0  0  0  0  0  0  0  0  0
   -3.1463  -10.2689    2.8665 C   0  0  0  0  0  0  0  0  0  0  0  0
   -3.7976   -9.3147    3.7849 C   0  0  0  0  0  0  0  0  0  0  0  0
   -2.9760   -8.5742    4.7295 C   0  0  0  0  0  0  0  0  0  0  0  0
   -1.6595   -8.6842    4.9129 C   0  0  0  0  0  0  0  0  0  0  0  0
   -0.9340   -9.5942    4.0857 C   0  0  0  0  0  0  0  0  0  0  0  0
    0.3117  -10.0991    4.3533 N   0  0  0  0  0  0  0  0  0  0  0  0
    1.0001  -12.5474    1.9604 C   0  0  0  0  0  0  0  0  0  0  0  0
    1.4453  -13.7395    2.7157 C   0  0  0  0  0  0  0  0  0  0  0  0
    2.2447  -14.8051    2.1258 C   0  0  0  0  0  0  0  0  0  0  0  0
  1  2  1  0
  1  3  1  0
  3  4  1  0
  5  4  1  6
  2  6  1  0
  6  7  1  0
  5  8  1  0
  8  9  1  0
  9 10  1  0
  5 16  1  0
 15 16  1  0
  8 17  1  1
 17 18  1  0
 18 19  1  0
 10 11  2  0
 11 12  1  0
 12 13  2  0
 13 14  1  0
 14 15  2  0
 10 15  1  0
M  END

$$$$
No_2501-/export/home/yangzhenyu/potential_scad_32_flow//YTHDC2/2024-12-06-03-22-00/
     RDKit          3D

 19 21  0  0  0  0  0  0  0  0999 V2000
    1.1787   -8.0297    3.5154 C   0  0  0  0  0  0  0  0  0  0  0  0
    1.1048   -9.2215    3.2892 C   0  0  0  0  0  0  0  0  0  0  0  0
    1.3627  -10.1721    4.3044 C   0  0  0  0  0  0  0  0  0  0  0  0
    1.0682  -11.5187    4.0618 C   0  0  0  0  0  0  0  0  0  0  0  0
    0.6332  -11.9655    2.9682 C   0  0  0  0  0  0  0  0  0  0  0  0
    0.4776  -11.1308    1.9203 C   0  0  0  0  0  0  0  0  0  0  0  0
    0.7470   -9.8274    2.0368 C   0  0  0  0  0  0  0  0  0  0  0  0
    0.5535   -7.1314    2.6861 N   0  0  0  0  0  0  0  0  0  0  0  0
    0.3069   -7.6119    1.3920 C   0  0  0  0  0  0  0  0  0  0  0  0
    0.2579   -8.8240    1.1187 C   0  0  0  0  0  0  0  0  0  0  0  0
    0.4765  -13.3941    2.7003 C   0  0  0  0  0  0  0  0  0  0  0  0
   -0.7375  -13.8687    2.3187 C   0  0  0  0  0  0  0  0  0  0  0  0
   -0.9141  -15.2526    2.2189 C   0  0  0  0  0  0  0  0  0  0  0  0
    0.4713  -15.9229    2.5727 C   0  0  0  0  0  0  0  0  0  0  0  0
    1.5213  -15.3395    2.9060 C   0  0  0  0  0  0  0  0  0  0  0  0
    1.6215  -14.0357    3.0431 C   0  0  0  0  0  0  0  0  0  0  0  0
   -0.1528   -9.1943   -0.1823 C   0  0  0  0  0  0  0  0  0  0  0  0
   -0.8770   -8.5022   -0.8656 O   0  0  0  0  0  0  0  0  0  0  0  0
    0.3995  -10.1756   -0.8663 O   0  0  0  0  0  0  0  0  0  0  0  0
  5 11  1  0
 10 17  1  0
 17 18  2  0
 17 19  1  0
 11 12  2  0
 12 13  1  0
 13 14  2  0
 14 15  1  0
 15 16  2  0
 11 16  1  0
  2  3  1  0
  3  4  2  0
  4  5  1  0
  5  6  2  0
  6  7  1  0
  1  2  2  0
  2  7  1  0
  7 10  2  0
  9 10  1  0
  8  9  2  0
  1  8  1  0
M  END

$$$$
No_2502-/export/home/yangzhenyu/potential_scad_32_flow//YTHDC2/2024-12-06-03-22-00/
     RDKit          3D

 18 18  0  0  0  0  0  0  0  0999 V2000
    1.1787   -8.0297    3.5154 O   0  0  0  0  0  0  0  0  0  0  0  0
    0.9969   -8.9689    3.0048 C   0  0  0  0  0  0  0  0  0  0  0  0
    1.3055  -10.1056    3.6616 C   0  0  0  0  0  0  0  0  0  0  0  0
    1.1249  -11.3503    3.0941 C   0  0  0  0  0  0  0  0  0  0  0  0
    0.6932  -11.4484    1.8586 C   0  0  0  0  0  0  0  0  0  0  0  0
    0.5498  -10.3736    1.0579 C   0  0  0  0  0  0  0  0  0  0  0  0
    0.7643   -9.1185    1.6383 C   0  0  0  0  0  0  0  0  0  0  0  0
    0.4151   -7.8542    1.0784 C   0  0  0  0  0  0  0  0  0  0  0  0
    1.2617   -6.9596    0.8839 O   0  0  0  0  0  0  0  0  0  0  0  0
   -0.7681   -7.5590    0.5014 N   0  0  0  0  0  0  0  0  0  0  0  0
    1.2347  -12.6434    3.8278 C   0  0  0  0  0  0  0  0  0  0  0  0
    0.4216  -13.7417    3.2213 N   0  0  0  0  0  0  0  0  0  0  0  0
    1.2470  -14.8817    3.1316 C   0  0  0  0  0  0  0  0  0  0  0  0
    2.5348  -15.0161    2.9464 O   0  0  0  0  0  0  0  0  0  0  0  0
    0.5655  -16.1182    2.5805 C   0  0  0  0  0  0  0  0  0  0  0  0
   -1.8972   -8.4308    0.8248 C   0  0  0  0  0  0  0  0  0  0  0  0
   -3.0915   -7.8965    0.1849 C   0  0  0  0  0  0  0  0  0  0  0  0
   -4.2250   -8.6285    0.5626 C   0  0  0  0  0  0  0  0  0  0  0  0
  1  2  1  0
  7  8  1  0
  8  9  2  0
  8 10  1  0
  4 11  1  0
 11 12  1  0
 12 13  1  0
 13 14  2  0
 13 15  1  0
 10 16  1  0
 16 17  2  3
 17 18  1  0
  2  3  2  0
  3  4  1  0
  4  5  2  0
  5  6  1  0
  6  7  2  0
  2  7  1  0
M  END

$$$$
No_2503-/export/home/yangzhenyu/potential_scad_32_flow//YTHDC2/2024-12-06-03-22-00/
     RDKit          3D

 20 20  0  0  0  0  0  0  0  0999 V2000
    1.1787   -8.0297    3.5154 C   0  0  0  0  0  0  0  0  0  0  0  0
    1.1048   -9.2215    3.2892 C   0  0  0  0  0  0  0  0  0  0  0  0
    1.2339   -9.7611    2.0189 C   0  0  0  0  0  0  0  0  0  0  0  0
    1.3583   -9.0036    0.9764 C   0  0  0  0  0  0  0  0  0  0  0  0
    1.5996   -7.6362    1.1311 C   0  0  0  0  0  0  0  0  0  0  0  0
    1.4830   -7.0928    2.3626 C   0  0  0  0  0  0  0  0  0  0  0  0
    1.4898   -5.7274    2.6199 C   0  0  0  0  0  0  0  0  0  0  0  0
    1.1681  -11.2222    1.8390 C   0  0  0  0  0  0  0  0  0  0  0  0
    0.7145  -11.5870    0.5424 O   0  0  0  0  0  0  0  0  0  0  0  0
    1.6537  -12.0580    2.6183 N   0  0  0  0  0  0  0  0  0  0  0  0
    1.6651  -13.4392    2.3517 C   0  0  0  0  0  0  0  0  0  0  0  0
    0.4982  -14.0351    2.8975 C   0  0  0  0  0  0  0  0  0  0  0  0
   -0.5431  -13.6292    2.9701 N   0  0  0  0  0  0  0  0  0  0  0  0
    0.8873  -15.3902    3.3830 C   0  0  0  0  0  0  0  0  0  0  0  0
    2.1092  -16.0200    3.0458 O   0  0  0  0  0  0  0  0  0  0  0  0
    0.0684  -16.1222    4.0704 O   0  0  0  0  0  0  0  0  0  0  0  0
    1.2426   -4.8549    1.6247 C   0  0  0  0  0  0  0  0  0  0  0  0
    1.1649   -3.3958    1.8575 C   0  0  0  0  0  0  0  0  0  0  0  0
    0.6861   -2.5298    1.0576 C   0  0  0  0  0  0  0  0  0  0  0  0
    0.7657   -1.1309    1.3667 C   0  0  0  0  0  0  0  0  0  0  0  0
  6  7  1  0
  3  8  1  0
  8  9  2  0
  8 10  1  0
 10 11  1  0
 11 12  1  0
 12 13  1  0
 12 14  1  0
 14 15  2  0
 14 16  1  0
  7 17  2  3
 17 18  1  0
 18 19  2  3
 19 20  1  0
  1  2  2  0
  2  3  1  0
  3  4  2  0
  4  5  1  0
  5  6  2  0
  1  6  1  0
M  END

$$$$
No_2504-/export/home/yangzhenyu/potential_scad_32_flow//YTHDC2/2024-12-06-03-22-00/
     RDKit          3D

 18 18  0  0  1  0  0  0  0  0999 V2000
    1.1787   -8.0297    3.5154 C   0  0  0  0  0  0  0  0  0  0  0  0
    1.0491   -6.8434    2.9820 C   0  0  0  0  0  0  0  0  0  0  0  0
    0.9905   -9.0774    2.6527 C   0  0  0  0  0  0  0  0  0  0  0  0
    0.7897   -8.9519    1.3691 C   0  0  0  0  0  0  0  0  0  0  0  0
    0.7018   -7.7198    0.7892 C   0  0  0  0  0  0  0  0  0  0  0  0
    0.8918   -6.5957    1.6117 C   0  0  0  0  0  0  0  0  0  0  0  0
    1.0998  -10.4710    3.2437 C   0  0  1  0  0  0  0  0  0  0  0  0
    2.1917  -10.8879    3.7399 C   0  0  0  0  0  0  0  0  0  0  0  0
    0.7258   -5.2808    1.3133 C   0  0  0  0  0  0  0  0  0  0  0  0
   -0.0161  -11.2304    3.3724 C   0  0  0  0  0  0  0  0  0  0  0  0
   -1.1390  -10.5488    3.9479 C   0  0  0  0  0  0  0  0  0  0  0  0
   -2.3738  -10.5255    3.5590 C   0  0  0  0  0  0  0  0  0  0  0  0
   -3.2713   -9.5863    4.1607 C   0  0  0  0  0  0  0  0  0  0  0  0
   -0.1743  -12.4067    2.9250 O   0  0  0  0  0  0  0  0  0  0  0  0
   -2.9390   -8.2041    4.1360 C   0  0  0  0  0  0  0  0  0  0  0  0
   -2.8046   -7.4853    5.3977 C   0  0  0  0  0  0  0  0  0  0  0  0
   -0.4178   -4.8531    0.7426 N   0  0  0  0  0  0  0  0  0  0  0  0
   -0.6526   -3.6299    0.3872 C   0  0  0  0  0  0  0  0  0  0  0  0
  3  7  1  0
  7  8  1  1
  6  9  1  0
  7 10  1  0
 10 11  1  0
 11 12  2  3
 12 13  1  0
 10 14  2  0
 13 15  1  0
 15 16  1  0
  9 17  1  0
 17 18  1  0
  1  2  2  0
  2  6  1  0
  5  6  2  0
  4  5  1  0
  3  4  2  0
  1  3  1  0
M  END

$$$$
No_2505-/export/home/yangzhenyu/potential_scad_32_flow//YTHDC2/2024-12-06-03-22-00/
     RDKit          3D

 18 18  0  0  0  0  0  0  0  0999 V2000
    1.1787   -8.0297    3.5154 C   0  0  0  0  0  0  0  0  0  0  0  0
    1.1048   -9.2215    3.2892 C   0  0  0  0  0  0  0  0  0  0  0  0
    1.2339   -9.7611    2.0189 C   0  0  0  0  0  0  0  0  0  0  0  0
    1.3583   -9.0036    0.9764 C   0  0  0  0  0  0  0  0  0  0  0  0
    1.7077   -9.6100   -0.3010 C   0  0  0  0  0  0  0  0  0  0  0  0
    1.3637   -7.1087    2.3226 C   0  0  0  0  0  0  0  0  0  0  0  0
    1.4257   -7.6645    1.0231 C   0  0  0  0  0  0  0  0  0  0  0  0
    1.6722  -10.7840   -0.4044 O   0  0  0  0  0  0  0  0  0  0  0  0
    1.7049   -8.9062   -1.4410 O   0  0  0  0  0  0  0  0  0  0  0  0
    1.1254  -10.1830    4.3846 Cl  0  0  0  0  0  0  0  0  0  0  0  0
    1.3192   -5.5874    2.5324 Br  0  0  0  0  0  0  0  0  0  0  0  0
    1.3123  -11.3587    1.9386 O   0  0  0  0  0  0  0  0  0  0  0  0
    1.0317  -12.2147    2.5437 C   0  0  0  0  0  0  0  0  0  0  0  0
    1.8755  -13.2247    2.9113 C   0  0  0  0  0  0  0  0  0  0  0  0
    1.2343  -14.5772    3.0879 C   0  0  0  0  0  0  0  0  0  0  0  0
    0.6720  -15.0487    1.9087 C   0  0  0  0  0  0  0  0  0  0  0  0
   -0.4396  -14.0845    1.5097 C   0  0  0  0  0  0  0  0  0  0  0  0
   -1.1306  -14.5112    0.3634 C   0  0  0  0  0  0  0  0  0  0  0  0
  4  5  1  0
  5  8  2  0
  5  9  1  0
  2 10  1  0
  6 11  1  0
  3 12  1  0
 12 13  1  0
 13 14  1  0
 14 15  1  0
 15 16  1  0
 16 17  1  0
 17 18  1  0
  1  2  2  0
  2  3  1  0
  3  4  2  0
  4  7  1  0
  6  7  2  0
  1  6  1  0
M  END

$$$$
No_2506-/export/home/yangzhenyu/potential_scad_32_flow//YTHDC2/2024-12-06-03-22-00/
     RDKit          3D

 19 20  0  0  1  0  0  0  0  0999 V2000
    1.1787   -8.0297    3.5154 C   0  0  0  0  0  0  0  0  0  0  0  0
    1.1048   -9.2215    3.2892 C   0  0  0  0  0  0  0  0  0  0  0  0
    1.0239   -9.7790    2.0239 C   0  0  0  0  0  0  0  0  0  0  0  0
    1.1393   -9.0211    0.9686 C   0  0  0  0  0  0  0  0  0  0  0  0
    1.4051   -7.6500    1.1251 C   0  0  0  0  0  0  0  0  0  0  0  0
    1.4868   -7.1041    2.3534 C   0  0  0  0  0  0  0  0  0  0  0  0
    1.5885   -5.7190    2.5687 C   0  0  0  0  0  0  0  0  0  0  0  0
    0.8747  -11.3633    1.9261 C   0  0  0  0  0  0  0  0  0  0  0  0
   -0.2067  -11.6965    1.2277 C   0  0  0  0  0  0  0  0  0  0  0  0
   -1.2501  -10.8146    0.8045 C   0  0  0  0  0  0  0  0  0  0  0  0
   -2.2614  -11.3992    0.2624 C   0  0  0  0  0  0  0  0  0  0  0  0
   -2.4239  -12.6892   -0.0303 C   0  0  0  0  0  0  0  0  0  0  0  0
   -1.4488  -13.6118    0.5634 C   0  0  0  0  0  0  0  0  0  0  0  0
   -0.3060  -13.1085    1.1434 C   0  0  0  0  0  0  0  0  0  0  0  0
    0.6865  -13.9746    1.5837 C   0  0  1  0  0  0  0  0  0  0  0  0
    1.7899  -14.2416    0.9447 C   0  0  0  0  0  0  0  0  0  0  0  0
    2.8095  -14.9896    1.5010 C   0  0  0  0  0  0  0  0  0  0  0  0
    0.5257  -14.5018    2.9583 C   0  0  0  0  0  0  0  0  0  0  0  0
    2.6062  -15.6241    2.7158 Cl  0  0  0  0  0  0  0  0  0  0  0  0
  6  7  1  0
  3  8  1  0
 14 15  1  0
 15 16  1  0
 16 17  2  3
 15 18  1  1
 17 19  1  0
  8  9  1  0
  1  2  2  0
  2  3  1  0
  3  4  2  0
  4  5  1  0
  5  6  2  0
  1  6  1  0
  9 10  2  0
 10 11  1  0
 11 12  2  0
 12 13  1  0
 13 14  2  0
  9 14  1  0
M  END

$$$$
No_2507-/export/home/yangzhenyu/potential_scad_32_flow//YTHDC2/2024-12-06-03-22-00/
     RDKit          3D

 18 18  0  0  0  0  0  0  0  0999 V2000
    1.1787   -8.0297    3.5154 C   0  0  0  0  0  0  0  0  0  0  0  0
    1.1048   -9.2215    3.2892 C   0  0  0  0  0  0  0  0  0  0  0  0
    1.2339   -9.7611    2.0189 C   0  0  0  0  0  0  0  0  0  0  0  0
    1.3583   -9.0036    0.9764 C   0  0  0  0  0  0  0  0  0  0  0  0
    1.5996   -7.6362    1.1311 C   0  0  0  0  0  0  0  0  0  0  0  0
    1.4830   -7.0928    2.3626 C   0  0  0  0  0  0  0  0  0  0  0  0
    1.5395   -5.7300    2.6182 C   0  0  0  0  0  0  0  0  0  0  0  0
    1.1969  -11.3760    1.8433 C   0  0  0  0  0  0  0  0  0  0  0  0
    1.0771  -11.6644    0.5388 O   0  0  0  0  0  0  0  0  0  0  0  0
    1.3241  -12.0792    2.7409 O   0  0  0  0  0  0  0  0  0  0  0  0
    1.6554   -5.1782    3.8808 O   0  0  0  0  0  0  0  0  0  0  0  0
    1.6971   -4.8514    1.6100 O   0  0  0  0  0  0  0  0  0  0  0  0
    1.5423   -9.4541   -0.5173 C   0  0  0  0  0  0  0  0  0  0  0  0
    2.5827   -9.6115   -0.9118 O   0  0  0  0  0  0  0  0  0  0  0  0
    0.5241   -9.0624   -1.2801 O   0  0  0  0  0  0  0  0  0  0  0  0
    0.8972  -10.1446    4.4075 C   0  0  0  0  0  0  0  0  0  0  0  0
    1.6919  -10.5767    5.2874 C   0  0  0  0  0  0  0  0  0  0  0  0
    3.0622  -10.1775    5.1980 C   0  0  0  0  0  0  0  0  0  0  0  0
  6  7  1  0
  3  8  1  0
  8  9  1  0
  8 10  2  0
  7 11  1  0
  7 12  2  0
  4 13  1  0
 13 14  2  0
 13 15  1  0
  2 16  1  0
 16 17  1  0
 17 18  1  0
  1  2  2  0
  2  3  1  0
  3  4  2  0
  4  5  1  0
  5  6  2  0
  1  6  1  0
M  END

$$$$
No_2508-/export/home/yangzhenyu/potential_scad_32_flow//YTHDC2/2024-12-06-03-22-00/
     RDKit          3D

 18 19  0  0  0  0  0  0  0  0999 V2000
    1.1787   -8.0297    3.5154 Cl  0  0  0  0  0  0  0  0  0  0  0  0
    0.6122   -7.9650    2.5747 C   0  0  0  0  0  0  0  0  0  0  0  0
    0.4809   -9.1882    1.8138 C   0  0  0  0  0  0  0  0  0  0  0  0
    0.7467  -10.3320    2.4096 C   0  0  0  0  0  0  0  0  0  0  0  0
    0.5573  -11.4169    1.6406 C   0  0  0  0  0  0  0  0  0  0  0  0
    0.3318  -11.0577    0.2452 C   0  0  0  0  0  0  0  0  0  0  0  0
   -0.0086   -9.8022   -0.1302 C   0  0  0  0  0  0  0  0  0  0  0  0
    0.1462   -8.7766    0.6444 C   0  0  0  0  0  0  0  0  0  0  0  0
    0.0709   -6.7692    2.1951 C   0  0  0  0  0  0  0  0  0  0  0  0
    0.3431   -5.4887    2.6453 C   0  0  0  0  0  0  0  0  0  0  0  0
    1.6720   -5.0062    2.3785 C   0  0  0  0  0  0  0  0  0  0  0  0
    1.7971   -3.5983    2.6578 C   0  0  0  0  0  0  0  0  0  0  0  0
    0.7142   -2.8497    3.1069 C   0  0  0  0  0  0  0  0  0  0  0  0
   -0.5080   -3.3604    3.3066 C   0  0  0  0  0  0  0  0  0  0  0  0
   -0.7541   -4.6500    3.0067 C   0  0  0  0  0  0  0  0  0  0  0  0
   -0.8689   -6.7544    1.1068 O   0  0  0  0  0  0  0  0  0  0  0  0
    0.8257  -12.7430    2.0464 C   0  0  0  0  0  0  0  0  0  0  0  0
    1.9243  -13.2251    2.3824 C   0  0  0  0  0  0  0  0  0  0  0  0
  1  2  1  0
  2  3  1  0
  2  9  1  0
  9 10  1  0
  9 16  2  0
  5 17  1  0
 17 18  1  0
  3  4  2  0
  4  5  1  0
  5  6  2  0
  6  7  1  0
  7  8  2  0
  3  8  1  0
 10 11  2  0
 11 12  1  0
 12 13  2  0
 13 14  1  0
 14 15  2  0
 10 15  1  0
M  END

$$$$
No_2509-/export/home/yangzhenyu/potential_scad_32_flow//YTHDC2/2024-12-06-03-22-00/
     RDKit          3D

 19 20  0  0  0  0  0  0  0  0999 V2000
    1.1787   -8.0297    3.5154 C   0  0  0  0  0  0  0  0  0  0  0  0
    1.1048   -9.2215    3.2892 C   0  0  0  0  0  0  0  0  0  0  0  0
    1.2339   -9.7611    2.0189 C   0  0  0  0  0  0  0  0  0  0  0  0
    1.3583   -9.0036    0.9764 C   0  0  0  0  0  0  0  0  0  0  0  0
    1.5996   -7.6362    1.1311 C   0  0  0  0  0  0  0  0  0  0  0  0
    1.4830   -7.0928    2.3626 C   0  0  0  0  0  0  0  0  0  0  0  0
    1.1008  -11.2372    1.8542 C   0  0  0  0  0  0  0  0  0  0  0  0
    0.4812  -11.6084    0.6459 C   0  0  0  0  0  0  0  0  0  0  0  0
   -0.6166  -12.2864    0.7859 C   0  0  0  0  0  0  0  0  0  0  0  0
   -0.7300  -13.0625    1.9848 C   0  0  0  0  0  0  0  0  0  0  0  0
    0.1540  -12.9133    3.0511 C   0  0  0  0  0  0  0  0  0  0  0  0
    1.1516  -11.9685    2.9361 C   0  0  0  0  0  0  0  0  0  0  0  0
    1.5872   -5.4428    2.7210 Cl  0  0  0  0  0  0  0  0  0  0  0  0
    2.0784  -11.7511    3.9347 C   0  0  0  0  0  0  0  0  0  0  0  0
   -1.7262  -14.4465    2.1180 C   0  0  0  0  0  0  0  0  0  0  0  0
   -1.1544  -15.5308    2.3853 C   0  0  0  0  0  0  0  0  0  0  0  0
   -1.9491  -16.3846    3.1656 C   0  0  0  0  0  0  0  0  0  0  0  0
   -3.2724  -16.0784    3.2896 C   0  0  0  0  0  0  0  0  0  0  0  0
   -3.7792  -14.8813    3.0462 C   0  0  0  0  0  0  0  0  0  0  0  0
  3  7  1  0
  6 13  1  0
 12 14  1  0
 10 15  1  0
 15 16  1  0
 16 17  2  3
 17 18  1  0
 18 19  2  0
  1  2  2  0
  2  3  1  0
  3  4  2  0
  4  5  1  0
  5  6  2  0
  1  6  1  0
  7  8  2  0
  8  9  1  0
  9 10  2  0
 10 11  1  0
 11 12  2  0
  7 12  1  0
M  END

$$$$
No_2510-/export/home/yangzhenyu/potential_scad_32_flow//YTHDC2/2024-12-06-03-22-00/
     RDKit          3D

 19 19  0  0  0  0  0  0  0  0999 V2000
    1.1787   -8.0297    3.5154 C   0  0  0  0  0  0  0  0  0  0  0  0
    1.0491   -6.8434    2.9820 C   0  0  0  0  0  0  0  0  0  0  0  0
    0.0950   -8.8404    3.2292 C   0  0  0  0  0  0  0  0  0  0  0  0
    0.0602  -10.1764    3.8231 C   0  0  0  0  0  0  0  0  0  0  0  0
    0.2248   -6.3830    2.0648 C   0  0  0  0  0  0  0  0  0  0  0  0
   -0.6745   -7.2322    1.6857 C   0  0  0  0  0  0  0  0  0  0  0  0
   -0.7374   -8.4992    2.1291 C   0  0  0  0  0  0  0  0  0  0  0  0
    1.0201  -10.8960    4.1038 C   0  0  0  0  0  0  0  0  0  0  0  0
    2.3488  -10.7084    3.6077 C   0  0  0  0  0  0  0  0  0  0  0  0
    0.3489   -5.1069    1.4213 O   0  0  0  0  0  0  0  0  0  0  0  0
   -1.5001   -6.9878    0.6380 C   0  0  0  0  0  0  0  0  0  0  0  0
    3.3795  -10.8261    4.4475 O   0  0  0  0  0  0  0  0  0  0  0  0
    2.7445  -10.5663    2.3792 O   0  0  0  0  0  0  0  0  0  0  0  0
   -2.2964   -7.5244    0.2488 C   0  0  0  0  0  0  0  0  0  0  0  0
   -3.1221   -7.2485   -1.0696 C   0  0  0  0  0  0  0  0  0  0  0  0
   -3.5003   -8.1130   -1.8676 C   0  0  0  0  0  0  0  0  0  0  0  0
   -3.5624   -9.4585   -1.5447 C   0  0  0  0  0  0  0  0  0  0  0  0
   -3.9721  -10.3310   -2.4963 C   0  0  0  0  0  0  0  0  0  0  0  0
   -4.2596   -9.9724   -3.6990 C   0  0  0  0  0  0  0  0  0  0  0  0
  3  4  1  0
  4  8  2  3
  8  9  1  0
  5 10  1  0
  6 11  1  0
  9 12  1  0
  9 13  2  0
 11 14  2  3
 14 15  1  0
 15 16  2  3
 16 17  1  0
 17 18  1  0
 18 19  1  0
  1  2  2  0
  2  5  1  0
  5  6  2  0
  6  7  1  0
  3  7  2  0
  1  3  1  0
M  END

$$$$
No_2511-/export/home/yangzhenyu/potential_scad_32_flow//YTHDC2/2024-12-06-03-22-00/
     RDKit          3D

 19 19  0  0  1  0  0  0  0  0999 V2000
    1.1787   -8.0297    3.5154 C   0  0  0  0  0  0  0  0  0  0  0  0
    1.0491   -6.8434    2.9820 C   0  0  0  0  0  0  0  0  0  0  0  0
    1.0690   -9.1150    2.7206 C   0  0  0  0  0  0  0  0  0  0  0  0
    0.9689   -6.6391    1.6260 C   0  0  0  0  0  0  0  0  0  0  0  0
    0.9670   -9.0334    1.3824 C   0  0  0  0  0  0  0  0  0  0  0  0
    0.8189   -7.7113    0.8022 C   0  0  0  0  0  0  0  0  0  0  0  0
    1.2185  -10.5958    3.3076 C   0  0  0  0  0  0  0  0  0  0  0  0
    1.4310  -11.6383    2.5943 C   0  0  0  0  0  0  0  0  0  0  0  0
    1.4739  -12.9473    3.0741 C   0  0  0  0  0  0  0  0  0  0  0  0
    0.9500  -14.0081    2.2588 C   0  0  1  0  0  0  0  0  0  0  0  0
    1.2774  -15.3838    2.6731 C   0  0  0  0  0  0  0  0  0  0  0  0
    0.8717   -5.3223    1.1589 O   0  0  0  0  0  0  0  0  0  0  0  0
    0.8908  -16.4799    2.0876 C   0  0  0  0  0  0  0  0  0  0  0  0
    1.5723  -17.6748    2.3873 C   0  0  0  0  0  0  0  0  0  0  0  0
    1.0978  -18.6120    3.0794 O   0  0  0  0  0  0  0  0  0  0  0  0
    2.9996  -17.6143    2.5341 O   0  0  0  0  0  0  0  0  0  0  0  0
   -0.2904  -13.9763    1.7377 C   0  0  0  0  0  0  0  0  0  0  0  0
   -1.5644  -13.9592    2.3061 C   0  0  0  0  0  0  0  0  0  0  0  0
   -2.6422  -14.2276    1.8443 C   0  0  0  0  0  0  0  0  0  0  0  0
  1  3  1  0
  2  4  1  0
  4  6  1  0
  5  6  1  0
  3  7  1  0
  7  8  2  3
  8  9  1  0
 10  9  1  1
 10 11  1  0
  4 12  2  0
 11 13  1  0
 13 14  1  0
 14 15  2  0
 14 16  1  0
 10 17  1  0
 17 18  1  0
 18 19  2  0
  1  2  1  0
  3  5  1  0
M  END

$$$$
No_2512-/export/home/yangzhenyu/potential_scad_32_flow//YTHDC2/2024-12-06-03-22-00/
     RDKit          3D

 18 18  0  0  1  0  0  0  0  0999 V2000
    1.1787   -8.0297    3.5154 C   0  0  0  0  0  0  0  0  0  0  0  0
    1.0491   -6.8434    2.9820 C   0  0  2  0  0  0  0  0  0  0  0  0
    1.9985   -8.9840    2.8958 C   0  0  0  0  0  0  0  0  0  0  0  0
    1.7297   -9.2108    1.6335 C   0  0  2  0  0  0  0  0  0  0  0  0
    2.1788  -10.5482    1.1239 C   0  0  0  0  0  0  0  0  0  0  0  0
    0.8226   -6.9903    1.4377 C   0  0  2  0  0  0  0  0  0  0  0  0
    1.5914   -8.1153    0.8208 C   0  0  0  0  0  0  0  0  0  0  0  0
    2.0956  -11.5558    1.8651 O   0  0  0  0  0  0  0  0  0  0  0  0
    2.4381  -10.7048   -0.0726 O   0  0  0  0  0  0  0  0  0  0  0  0
    1.6406   -8.0779   -0.4705 O   0  0  0  0  0  0  0  0  0  0  0  0
    2.1087   -5.8485    3.2434 O   0  0  0  0  0  0  0  0  0  0  0  0
    1.3866   -4.5466    3.6276 C   0  0  0  0  0  0  0  0  0  0  0  0
    0.2071   -6.0581    0.8938 C   0  0  0  0  0  0  0  0  0  0  0  0
   -1.0866   -5.7344    1.2595 C   0  0  0  0  0  0  0  0  0  0  0  0
   -1.8036   -5.2412    0.6229 C   0  0  0  0  0  0  0  0  0  0  0  0
   -1.5802   -4.6653   -0.6840 C   0  0  0  0  0  0  0  0  0  0  0  0
   -1.3620   -3.4994   -0.8211 C   0  0  0  0  0  0  0  0  0  0  0  0
   -0.5839   -2.7847    0.2463 C   0  0  0  0  0  0  0  0  0  0  0  0
  1  2  1  0
  1  3  1  0
  3  4  1  0
  4  5  1  6
  2  6  1  0
  4  7  1  0
  6  7  1  0
  5  8  1  0
  5  9  2  0
  7 10  2  0
  2 11  1  6
 11 12  1  0
  6 13  1  6
 13 14  1  0
 14 15  2  3
 15 16  1  0
 16 17  1  0
 17 18  1  0
M  END

$$$$
No_2513-/export/home/yangzhenyu/potential_scad_32_flow//YTHDC2/2024-12-06-03-22-00/
     RDKit          3D

 20 21  0  0  0  0  0  0  0  0999 V2000
    1.1787   -8.0297    3.5154 N   0  0  0  0  0  0  0  0  0  0  0  0
    1.0818   -9.0751    3.2053 C   0  0  0  0  0  0  0  0  0  0  0  0
    1.5216  -10.1164    3.9747 C   0  0  0  0  0  0  0  0  0  0  0  0
    1.4823  -11.4258    3.6006 C   0  0  0  0  0  0  0  0  0  0  0  0
    0.7594  -11.7488    2.5365 C   0  0  0  0  0  0  0  0  0  0  0  0
    0.1233  -10.8366    1.8408 C   0  0  0  0  0  0  0  0  0  0  0  0
    0.4160   -9.5408    2.0369 C   0  0  0  0  0  0  0  0  0  0  0  0
    0.9875   -6.8088    2.7355 C   0  0  0  0  0  0  0  0  0  0  0  0
    1.2099   -5.5366    3.2470 N   0  0  0  0  0  0  0  0  0  0  0  0
    0.8379   -6.8744    1.3170 N   0  0  0  0  0  0  0  0  0  0  0  0
    0.5336  -13.2068    2.3901 C   0  0  0  0  0  0  0  0  0  0  0  0
   -0.6993  -13.7422    2.2274 C   0  0  0  0  0  0  0  0  0  0  0  0
   -0.7166  -15.2345    2.3410 C   0  0  0  0  0  0  0  0  0  0  0  0
    0.3542  -16.0373    2.5142 C   0  0  0  0  0  0  0  0  0  0  0  0
    1.6470  -15.4121    2.6924 C   0  0  0  0  0  0  0  0  0  0  0  0
    1.7329  -14.0115    2.7230 C   0  0  0  0  0  0  0  0  0  0  0  0
    0.2599  -17.3615    2.6191 O   0  0  0  0  0  0  0  0  0  0  0  0
   -0.3988  -18.0536    2.1039 C   0  0  0  0  0  0  0  0  0  0  0  0
    1.0886   -4.4257    2.5135 C   0  0  0  0  0  0  0  0  0  0  0  0
    0.7768   -5.6887    0.6039 C   0  0  0  0  0  0  0  0  0  0  0  0
  1  2  1  0
  1  8  2  3
  8  9  1  0
  8 10  1  0
  5 11  1  0
 14 17  1  0
 17 18  1  0
  9 19  1  0
 10 20  2  0
 11 12  2  0
 12 13  1  0
 13 14  2  0
 14 15  1  0
 15 16  2  0
 11 16  1  0
  2  3  2  0
  3  4  1  0
  4  5  2  0
  5  6  1  0
  6  7  2  0
  2  7  1  0
M  END

$$$$
No_2514-/export/home/yangzhenyu/potential_scad_32_flow//YTHDC2/2024-12-06-03-22-00/
     RDKit          3D

 19 20  0  0  1  0  0  0  0  0999 V2000
    1.1787   -8.0297    3.5154 C   0  0  0  0  0  0  0  0  0  0  0  0
    1.1048   -9.2215    3.2892 C   0  0  2  0  0  0  0  0  0  0  0  0
    1.3627  -10.1721    4.3044 C   0  0  0  0  0  0  0  0  0  0  0  0
    1.7354  -11.4730    3.9023 C   0  0  0  0  0  0  0  0  0  0  0  0
    1.6166  -11.5515    2.5159 C   0  0  1  0  0  0  0  0  0  0  0  0
    1.4080  -10.1475    2.0704 C   0  0  0  0  0  0  0  0  0  0  0  0
    0.6131   -7.0752    2.5759 C   0  0  0  0  0  0  0  0  0  0  0  0
    0.7591   -5.6024    2.7315 C   0  0  0  0  0  0  0  0  0  0  0  0
    0.2741   -4.7382    1.8620 C   0  0  0  0  0  0  0  0  0  0  0  0
   -0.8026   -5.0706    1.2283 C   0  0  0  0  0  0  0  0  0  0  0  0
   -1.1003   -6.4820    0.9472 C   0  0  0  0  0  0  0  0  0  0  0  0
   -0.4107   -7.4207    1.6071 C   0  0  0  0  0  0  0  0  0  0  0  0
    1.8217  -12.4883    1.6628 C   0  0  0  0  0  0  0  0  0  0  0  0
    1.7694  -12.2572    0.2897 O   0  0  0  0  0  0  0  0  0  0  0  0
    2.2042  -13.6931    2.0787 N   0  0  0  0  0  0  0  0  0  0  0  0
   -2.0165   -6.8722    0.0356 C   0  0  0  0  0  0  0  0  0  0  0  0
   -2.6262   -8.0953    0.1244 O   0  0  0  0  0  0  0  0  0  0  0  0
   -2.3232   -6.0401   -0.9800 N   0  0  0  0  0  0  0  0  0  0  0  0
   -3.1491   -6.4718   -2.0447 C   0  0  0  0  0  0  0  0  0  0  0  0
  2  1  1  1
  2  3  1  0
  3  4  2  0
  4  5  1  0
  2  6  1  0
  5  6  1  0
  5 13  1  6
 13 14  2  0
 13 15  1  0
 11 16  1  0
 16 17  2  0
 16 18  1  0
 18 19  1  0
  1  7  1  0
  7  8  2  0
  8  9  1  0
  9 10  2  0
 10 11  1  0
 11 12  2  0
  7 12  1  0
M  END

$$$$
No_2515-/export/home/yangzhenyu/potential_scad_32_flow//YTHDC2/2024-12-06-03-22-00/
     RDKit          3D

 19 21  0  0  0  0  0  0  0  0999 V2000
    1.1787   -8.0297    3.5154 C   0  0  0  0  0  0  0  0  0  0  0  0
    1.1048   -9.2215    3.2892 C   0  0  0  0  0  0  0  0  0  0  0  0
    1.3627  -10.1721    4.3044 C   0  0  0  0  0  0  0  0  0  0  0  0
    1.0682  -11.5187    4.0618 C   0  0  0  0  0  0  0  0  0  0  0  0
    0.7653  -11.7320    2.7387 C   0  0  0  0  0  0  0  0  0  0  0  0
    0.5661  -10.9730    1.8367 C   0  0  0  0  0  0  0  0  0  0  0  0
    0.7745   -9.6758    2.0361 C   0  0  0  0  0  0  0  0  0  0  0  0
    0.4411   -6.9477    3.0544 N   0  0  0  0  0  0  0  0  0  0  0  0
    0.7394   -8.7029    1.0520 C   0  0  0  0  0  0  0  0  0  0  0  0
    0.2482   -7.2720    1.5275 C   0  0  0  0  0  0  0  0  0  0  0  0
   -0.1652   -6.4381    0.7459 C   0  0  0  0  0  0  0  0  0  0  0  0
   -0.7985   -6.7817   -0.3803 C   0  0  0  0  0  0  0  0  0  0  0  0
   -0.5190   -8.1236   -0.8299 C   0  0  0  0  0  0  0  0  0  0  0  0
    0.1134   -9.0322   -0.1061 C   0  0  0  0  0  0  0  0  0  0  0  0
    0.6254  -13.3172    2.5040 C   0  0  0  0  0  0  0  0  0  0  0  0
    1.4695  -14.2446    2.9483 C   0  0  0  0  0  0  0  0  0  0  0  0
    1.5857  -15.4805    2.3156 C   0  0  0  0  0  0  0  0  0  0  0  0
    0.7378  -15.7945    1.4170 C   0  0  0  0  0  0  0  0  0  0  0  0
   -0.1358  -14.9505    0.9098 C   0  0  0  0  0  0  0  0  0  0  0  0
  1  2  1  0
  1  8  1  0
  7  9  1  0
  8 10  1  0
  5 15  1  0
 15 16  1  0
 16 17  2  3
 17 18  1  0
 18 19  2  0
  2  3  2  0
  3  4  1  0
  4  5  2  0
  5  6  1  0
  6  7  2  0
  2  7  1  0
  9 10  2  0
 10 11  1  0
 11 12  2  0
 12 13  1  0
 13 14  2  0
  9 14  1  0
M  END

$$$$
No_2516-/export/home/yangzhenyu/potential_scad_32_flow//YTHDC2/2024-12-06-03-22-00/
     RDKit          3D

 20 21  0  0  1  0  0  0  0  0999 V2000
    1.1787   -8.0297    3.5154 C   0  0  0  0  0  0  0  0  0  0  0  0
    1.0491   -6.8434    2.9820 C   0  0  0  0  0  0  0  0  0  0  0  0
    2.0004   -8.9805    3.0498 C   0  0  1  0  0  0  0  0  0  0  0  0
    1.9318  -10.3260    3.8082 C   0  0  0  0  0  0  0  0  0  0  0  0
    1.5629   -6.7698    1.6212 C   0  0  1  0  0  0  0  0  0  0  0  0
    2.0874   -7.7993    0.9845 C   0  0  0  0  0  0  0  0  0  0  0  0
    2.2492   -9.0232    1.6778 C   0  0  0  0  0  0  0  0  0  0  0  0
    1.0062  -11.2026    3.6470 C   0  0  0  0  0  0  0  0  0  0  0  0
    0.9017  -11.7975    2.4572 F   0  0  0  0  0  0  0  0  0  0  0  0
    0.2654  -11.4454    4.5050 F   0  0  0  0  0  0  0  0  0  0  0  0
    2.9047   -9.9557    0.9998 O   0  0  0  0  0  0  0  0  0  0  0  0
    1.3260   -5.5803    0.9057 O   0  0  0  0  0  0  0  0  0  0  0  0
    0.0945   -4.9621    1.0222 C   0  0  1  0  0  0  0  0  0  0  0  0
    0.1182   -3.5611    1.1246 C   0  0  0  0  0  0  0  0  0  0  0  0
   -0.6636   -3.0899    2.0732 C   0  0  0  0  0  0  0  0  0  0  0  0
   -1.1634   -5.5234    0.9942 C   0  0  1  0  0  0  0  0  0  0  0  0
   -1.3004   -6.9353    0.6941 C   0  0  0  0  0  0  0  0  0  0  0  0
   -2.0681   -4.6869    1.5601 C   0  0  0  0  0  0  0  0  0  0  0  0
   -1.9057   -3.5349    1.9809 C   0  0  0  0  0  0  0  0  0  0  0  0
   -3.3579   -5.3205    1.6554 O   0  0  0  0  0  0  0  0  0  0  0  0
  1  3  1  0
  3  4  1  6
  2  5  1  0
  3  7  1  0
  6  7  1  0
  4  8  1  0
  8  9  1  0
  8 10  1  0
  7 11  2  0
  5 12  1  6
 13 12  1  6
 13 14  1  0
 14 15  1  0
 13 16  1  0
 16 17  1  1
 16 18  1  0
 15 19  1  0
 18 19  1  0
 18 20  2  0
  1  2  1  0
  5  6  1  0
M  END

$$$$
No_2517-/export/home/yangzhenyu/potential_scad_32_flow//YTHDC2/2024-12-06-03-22-00/
     RDKit          3D

 19 21  0  0  1  0  0  0  0  0999 V2000
    1.1787   -8.0297    3.5154 C   0  0  0  0  0  0  0  0  0  0  0  0
    1.1048   -9.2215    3.2892 C   0  0  0  0  0  0  0  0  0  0  0  0
    1.3627  -10.1721    4.3044 C   0  0  0  0  0  0  0  0  0  0  0  0
    1.0682  -11.5187    4.0618 C   0  0  0  0  0  0  0  0  0  0  0  0
    0.6332  -11.9655    2.9682 C   0  0  0  0  0  0  0  0  0  0  0  0
    0.4776  -11.1308    1.9203 C   0  0  0  0  0  0  0  0  0  0  0  0
    0.7470   -9.8274    2.0368 C   0  0  0  0  0  0  0  0  0  0  0  0
    0.5535   -7.1314    2.6861 C   0  0  0  0  0  0  0  0  0  0  0  0
    0.2950   -7.6000    1.3275 C   0  0  0  0  0  0  0  0  0  0  0  0
    0.2693   -8.8631    1.0973 C   0  0  1  0  0  0  0  0  0  0  0  0
   -0.0069   -6.7080    0.3888 O   0  0  0  0  0  0  0  0  0  0  0  0
    0.4773  -13.6209    2.7227 C   0  0  0  0  0  0  0  0  0  0  0  0
    1.5327  -14.3822    3.1595 C   0  0  0  0  0  0  0  0  0  0  0  0
    1.2517  -15.7394    3.0020 C   0  0  0  0  0  0  0  0  0  0  0  0
    0.2305  -16.2128    2.5138 C   0  0  0  0  0  0  0  0  0  0  0  0
   -0.7093  -15.3839    1.9306 C   0  0  0  0  0  0  0  0  0  0  0  0
   -0.5252  -14.0405    2.1088 C   0  0  0  0  0  0  0  0  0  0  0  0
    0.0233   -9.3209   -0.1691 C   0  0  0  0  0  0  0  0  0  0  0  0
    0.8350   -9.2515   -1.2407 P   0  0  0  0  0  0  0  0  0  0  0  0
  1  2  1  0
  8  9  1  0
  7 10  1  0
  9 10  1  0
  9 11  2  0
  5 12  1  0
 10 18  1  6
 18 19  1  0
  1  8  1  0
 12 13  2  0
 13 14  1  0
 14 15  2  0
 15 16  1  0
 16 17  2  0
 12 17  1  0
  2  3  2  0
  3  4  1  0
  4  5  2  0
  5  6  1  0
  6  7  2  0
  2  7  1  0
M  END

$$$$
No_2518-/export/home/yangzhenyu/potential_scad_32_flow//YTHDC2/2024-12-06-03-22-00/
     RDKit          3D

 17 17  0  0  1  0  0  0  0  0999 V2000
    1.1787   -8.0297    3.5154 O   0  0  0  0  0  0  0  0  0  0  0  0
    0.6747   -7.4019    2.7838 C   0  0  0  0  0  0  0  0  0  0  0  0
    0.7594   -8.0032    1.4295 C   0  0  0  0  0  0  0  0  0  0  0  0
    0.3459   -9.1500    1.3581 C   0  0  2  0  0  0  0  0  0  0  0  0
    0.9462   -9.9231    0.3351 C   0  0  0  0  0  0  0  0  0  0  0  0
    1.6884   -9.1549   -0.6693 O   0  0  0  0  0  0  0  0  0  0  0  0
    0.9152  -11.1257    0.1085 O   0  0  0  0  0  0  0  0  0  0  0  0
   -0.5608   -7.0896    3.1436 O   0  0  0  0  0  0  0  0  0  0  0  0
   -1.1767   -9.2241    1.0352 C   0  0  1  0  0  0  0  0  0  0  0  0
   -1.9266   -9.9599    1.9096 C   0  0  2  0  0  0  0  0  0  0  0  0
   -3.1291   -9.8942    2.1964 C   0  0  0  0  0  0  0  0  0  0  0  0
   -3.8826   -8.9870    1.4338 C   0  0  0  0  0  0  0  0  0  0  0  0
   -3.3046   -8.2440    0.4337 C   0  0  0  0  0  0  0  0  0  0  0  0
   -1.9167   -8.2919    0.2392 C   0  0  0  0  0  0  0  0  0  0  0  0
   -1.2744   -7.3772   -0.5416 O   0  0  0  0  0  0  0  0  0  0  0  0
   -1.1527  -10.8854    2.8764 O   0  0  0  0  0  0  0  0  0  0  0  0
   -0.6117  -10.6171    4.1272 C   0  0  0  0  0  0  0  0  0  0  0  0
  1  2  1  0
  2  3  1  0
  4  3  1  6
  4  5  1  0
  5  6  1  0
  5  7  2  0
  2  8  2  0
  4  9  1  0
  9 10  1  0
 11 12  1  0
  9 14  1  1
 13 14  1  0
 14 15  2  0
 10 16  1  1
 16 17  1  0
 10 11  1  0
 12 13  1  0
M  END

$$$$
No_2519-/export/home/yangzhenyu/potential_scad_32_flow//YTHDC2/2024-12-06-03-22-00/
     RDKit          3D

 20 21  0  0  0  0  0  0  0  0999 V2000
    1.1787   -8.0297    3.5154 C   0  0  0  0  0  0  0  0  0  0  0  0
    1.0491   -6.8434    2.9820 C   0  0  0  0  0  0  0  0  0  0  0  0
    0.9905   -9.0774    2.6527 C   0  0  0  0  0  0  0  0  0  0  0  0
    0.7897   -8.9519    1.3691 C   0  0  0  0  0  0  0  0  0  0  0  0
    0.7018   -7.7198    0.7892 C   0  0  0  0  0  0  0  0  0  0  0  0
    0.8918   -6.5957    1.6117 C   0  0  0  0  0  0  0  0  0  0  0  0
    1.0600  -10.5680    3.3321 C   0  0  0  0  0  0  0  0  0  0  0  0
    1.1634  -11.6086    2.5010 C   0  0  0  0  0  0  0  0  0  0  0  0
    1.3344  -12.8974    3.1596 C   0  0  0  0  0  0  0  0  0  0  0  0
    1.1071  -14.0522    2.4564 C   0  0  0  0  0  0  0  0  0  0  0  0
    0.5921  -14.1376    1.2908 C   0  0  0  0  0  0  0  0  0  0  0  0
    0.4587  -12.8895    0.5875 C   0  0  0  0  0  0  0  0  0  0  0  0
    0.6790  -11.6930    1.1895 C   0  0  0  0  0  0  0  0  0  0  0  0
    0.8555   -5.2725    1.1602 C   0  0  0  0  0  0  0  0  0  0  0  0
    1.2467  -15.3279    3.2447 O   0  0  0  0  0  0  0  0  0  0  0  0
    1.8663  -16.3921    2.7018 C   0  0  0  0  0  0  0  0  0  0  0  0
   -0.2238   -4.8070    0.6627 C   0  0  0  0  0  0  0  0  0  0  0  0
   -0.3589   -3.4441    0.2708 C   0  0  0  0  0  0  0  0  0  0  0  0
   -0.9956   -3.0418   -0.7551 C   0  0  0  0  0  0  0  0  0  0  0  0
   -1.9211   -3.9676   -1.2915 C   0  0  0  0  0  0  0  0  0  0  0  0
  3  7  1  0
  6 14  1  0
 10 15  1  0
 15 16  1  0
 14 17  2  3
 17 18  1  0
 18 19  2  3
 19 20  1  0
  7  8  1  0
  1  2  2  0
  2  6  1  0
  5  6  2  0
  4  5  1  0
  3  4  2  0
  1  3  1  0
  8  9  2  0
  9 10  1  0
 10 11  2  0
 11 12  1  0
 12 13  2  0
  8 13  1  0
M  END

$$$$
No_2520-/export/home/yangzhenyu/potential_scad_32_flow//YTHDC2/2024-12-06-03-22-00/
     RDKit          3D

 12 12  0  0  0  0  0  0  0  0999 V2000
    1.1787   -8.0297    3.5154 C   0  0  0  0  0  0  0  0  0  0  0  0
    1.1048   -9.2215    3.2892 C   0  0  0  0  0  0  0  0  0  0  0  0
    1.0239   -9.7790    2.0239 C   0  0  0  0  0  0  0  0  0  0  0  0
    1.1393   -9.0211    0.9686 C   0  0  0  0  0  0  0  0  0  0  0  0
    1.4562   -7.5068    1.4720 C   0  0  0  0  0  0  0  0  0  0  0  0
    1.5110   -7.1181    2.4816 C   0  0  0  0  0  0  0  0  0  0  0  0
    1.6153   -5.6943    2.7215 C   0  0  0  0  0  0  0  0  0  0  0  0
    0.8268  -11.1965    1.8945 C   0  0  0  0  0  0  0  0  0  0  0  0
    1.8431  -12.0335    2.0116 C   0  0  0  0  0  0  0  0  0  0  0  0
    1.6422  -13.4191    1.7804 C   0  0  0  0  0  0  0  0  0  0  0  0
    0.5196  -13.8586    1.3735 C   0  0  0  0  0  0  0  0  0  0  0  0
   -0.3737  -12.5007    1.2816 C   0  0  0  0  0  0  0  0  0  0  0  0
  6  7  1  0
  3  8  1  0
  8  9  1  0
  9 10  2  3
 10 11  1  0
 11 12  2  0
  1  2  2  0
  2  3  1  0
  3  4  2  0
  4  5  1  0
  5  6  2  0
  1  6  1  0
M  END

$$$$
No_2521-/export/home/yangzhenyu/potential_scad_32_flow//YTHDC2/2024-12-06-03-22-00/
     RDKit          3D

 19 20  0  0  1  0  0  0  0  0999 V2000
    1.1787   -8.0297    3.5154 C   0  0  0  0  0  0  0  0  0  0  0  0
    1.0491   -6.8434    2.9820 C   0  0  0  0  0  0  0  0  0  0  0  0
    0.0950   -8.8404    3.2292 C   0  0  0  0  0  0  0  0  0  0  0  0
   -0.7663   -8.2602    2.4375 C   0  0  0  0  0  0  0  0  0  0  0  0
   -0.7437   -6.9718    1.9778 C   0  0  0  0  0  0  0  0  0  0  0  0
    0.2554   -6.2202    2.2855 C   0  0  0  0  0  0  0  0  0  0  0  0
    0.4072   -4.8741    1.9191 C   0  0  1  0  0  0  0  0  0  0  0  0
    0.0471  -10.3897    3.6456 C   0  0  0  0  0  0  0  0  0  0  0  0
    1.0957  -10.9773    4.0947 C   0  0  0  0  0  0  0  0  0  0  0  0
    1.1563  -12.3278    3.8189 C   0  0  0  0  0  0  0  0  0  0  0  0
    0.0597  -12.9862    3.4190 C   0  0  0  0  0  0  0  0  0  0  0  0
   -0.9761  -12.3130    2.9741 C   0  0  0  0  0  0  0  0  0  0  0  0
   -1.0572  -10.9634    3.1399 C   0  0  0  0  0  0  0  0  0  0  0  0
    0.1791  -14.4225    3.3182 O   0  0  0  0  0  0  0  0  0  0  0  0
    0.9837   -3.9374    2.6259 C   0  0  0  0  0  0  0  0  0  0  0  0
   -0.6078  -15.1580    2.6330 C   0  0  0  0  0  0  0  0  0  0  0  0
   -0.0033   -4.4402    0.6730 C   0  0  0  0  0  0  0  0  0  0  0  0
    0.1231   -2.9918    0.4374 C   0  0  0  0  0  0  0  0  0  0  0  0
    0.7523   -2.1768    1.2585 C   0  0  0  0  0  0  0  0  0  0  0  0
  6  7  1  0
  3  8  1  0
 11 14  1  0
  7 15  1  6
 14 16  1  0
  7 17  1  0
 17 18  2  3
 18 19  1  0
  1  2  2  0
  2  6  1  0
  5  6  2  0
  4  5  1  0
  3  4  2  0
  1  3  1  0
  8  9  2  0
  9 10  1  0
 10 11  2  0
 11 12  1  0
 12 13  2  0
  8 13  1  0
M  END

$$$$
No_2522-/export/home/yangzhenyu/potential_scad_32_flow//YTHDC2/2024-12-06-03-22-00/
     RDKit          3D

 19 20  0  0  1  0  0  0  0  0999 V2000
    1.1787   -8.0297    3.5154 C   0  0  0  0  0  0  0  0  0  0  0  0
    1.1048   -9.2215    3.2892 C   0  0  0  0  0  0  0  0  0  0  0  0
    1.3627  -10.1721    4.3044 C   0  0  0  0  0  0  0  0  0  0  0  0
    1.0682  -11.5187    4.0618 C   0  0  0  0  0  0  0  0  0  0  0  0
    0.6332  -11.9655    2.9682 C   0  0  0  0  0  0  0  0  0  0  0  0
    0.4776  -11.1308    1.9203 C   0  0  0  0  0  0  0  0  0  0  0  0
    0.7470   -9.8274    2.0368 C   0  0  0  0  0  0  0  0  0  0  0  0
    1.0387   -7.0301    2.5175 C   0  0  2  0  0  0  0  0  0  0  0  0
    0.9130   -7.5288    1.2013 C   0  0  0  0  0  0  0  0  0  0  0  0
    0.7893   -8.7979    0.9542 C   0  0  2  0  0  0  0  0  0  0  0  0
    0.5241   -9.2578   -0.2817 C   0  0  0  0  0  0  0  0  0  0  0  0
    1.2450   -9.2169   -1.2769 O   0  0  0  0  0  0  0  0  0  0  0  0
   -0.8706   -9.3448   -0.6392 O   0  0  0  0  0  0  0  0  0  0  0  0
    0.5164  -13.3827    2.7090 C   0  0  0  0  0  0  0  0  0  0  0  0
    1.4534  -14.3432    3.2591 O   0  0  0  0  0  0  0  0  0  0  0  0
   -0.3723  -13.8535    1.9326 N   0  0  0  0  0  0  0  0  0  0  0  0
    1.3174   -5.4444    2.7391 C   0  0  0  0  0  0  0  0  0  0  0  0
    0.8401   -6.6768    0.2783 O   0  0  0  0  0  0  0  0  0  0  0  0
   -1.4877  -13.1032    1.5004 C   0  0  0  0  0  0  0  0  0  0  0  0
  1  2  1  0
  8  9  1  0
  7 10  1  0
  9 10  1  0
 10 11  1  1
 11 12  2  0
 11 13  1  0
  5 14  1  0
 14 15  2  0
 14 16  1  0
  8 17  1  6
  9 18  2  0
 16 19  1  0
  1  8  1  0
  2  3  2  0
  3  4  1  0
  4  5  2  0
  5  6  1  0
  6  7  2  0
  2  7  1  0
M  END

$$$$
No_2523-/export/home/yangzhenyu/potential_scad_32_flow//YTHDC2/2024-12-06-03-22-00/
     RDKit          3D

 17 18  0  0  1  0  0  0  0  0999 V2000
    1.1787   -8.0297    3.5154 N   0  0  0  0  0  0  0  0  0  0  0  0
    0.8669   -7.0905    2.8589 C   0  0  0  0  0  0  0  0  0  0  0  0
    1.0447   -7.3244    1.4123 C   0  0  0  0  0  0  0  0  0  0  0  0
    1.3746   -8.4389    1.0864 N   0  0  0  0  0  0  0  0  0  0  0  0
    1.6283   -9.0103    2.4785 C   0  0  2  0  0  0  0  0  0  0  0  0
    1.9712  -10.2926    2.6924 C   0  0  0  0  0  0  0  0  0  0  0  0
    2.1742  -11.2254    1.7385 C   0  0  0  0  0  0  0  0  0  0  0  0
    2.2160  -10.7195    4.0817 C   0  0  0  0  0  0  0  0  0  0  0  0
    2.3634  -12.5077    1.9095 C   0  0  0  0  0  0  0  0  0  0  0  0
    1.7486  -13.1869    2.6218 C   0  0  0  0  0  0  0  0  0  0  0  0
    1.5731  -12.9387    4.1063 C   0  0  0  0  0  0  0  0  0  0  0  0
    1.6891  -11.7888    4.6590 C   0  0  0  0  0  0  0  0  0  0  0  0
    1.7570  -14.7306    2.4978 O   0  0  0  0  0  0  0  0  0  0  0  0
    1.6267   -8.9580   -0.1254 C   0  0  0  0  0  0  0  0  0  0  0  0
    2.9643   -9.3088   -0.4849 O   0  0  0  0  0  0  0  0  0  0  0  0
    0.8605   -8.4588   -1.1289 O   0  0  0  0  0  0  0  0  0  0  0  0
    0.6318  -15.3377    2.7327 C   0  0  0  0  0  0  0  0  0  0  0  0
  1  2  1  0
  2  3  2  0
  3  4  1  0
  1  5  1  0
  4  5  1  0
  5  6  1  6
  6  7  2  0
  6  8  1  0
  7  9  1  0
  9 10  2  0
 10 11  1  0
  8 12  1  0
 11 12  2  0
 10 13  1  0
  4 14  1  0
 14 15  1  0
 14 16  2  0
 13 17  1  0
M  END

$$$$
No_2524-/export/home/yangzhenyu/potential_scad_32_flow//YTHDC2/2024-12-06-03-22-00/
     RDKit          3D

 20 21  0  0  0  0  0  0  0  0999 V2000
    1.1787   -8.0297    3.5154 C   0  0  0  0  0  0  0  0  0  0  0  0
    1.0491   -6.8434    2.9820 O   0  0  0  0  0  0  0  0  0  0  0  0
    1.9898   -8.9833    2.9120 C   0  0  0  0  0  0  0  0  0  0  0  0
    1.9301  -10.2956    3.6452 C   0  0  0  0  0  0  0  0  0  0  0  0
    1.0625  -10.5355    4.6754 C   0  0  0  0  0  0  0  0  0  0  0  0
    0.0507   -9.6413    4.8216 C   0  0  0  0  0  0  0  0  0  0  0  0
   -1.1550   -9.9416    5.2233 C   0  0  0  0  0  0  0  0  0  0  0  0
    0.0169   -8.3283    4.2157 N   0  0  0  0  0  0  0  0  0  0  0  0
    0.9259   -6.6082    1.6438 C   0  0  0  0  0  0  0  0  0  0  0  0
   -0.1879   -6.4664    1.3182 C   0  0  0  0  0  0  0  0  0  0  0  0
   -0.6920   -7.4394    0.5069 C   0  0  0  0  0  0  0  0  0  0  0  0
   -2.0118   -7.4598    0.1005 C   0  0  0  0  0  0  0  0  0  0  0  0
   -2.7880   -6.3720    0.2770 C   0  0  0  0  0  0  0  0  0  0  0  0
   -2.2984   -5.2337    0.8789 C   0  0  0  0  0  0  0  0  0  0  0  0
   -0.9736   -5.2369    1.3664 C   0  0  0  0  0  0  0  0  0  0  0  0
    2.0155   -6.3699    0.9613 O   0  0  0  0  0  0  0  0  0  0  0  0
   -0.4601   -4.1770    2.2310 C   0  0  0  0  0  0  0  0  0  0  0  0
    0.3119   -3.2412    1.6265 C   0  0  0  0  0  0  0  0  0  0  0  0
    0.1362   -2.8570    0.3158 C   0  0  0  0  0  0  0  0  0  0  0  0
    1.3908   -2.5931    2.2733 C   0  0  0  0  0  0  0  0  0  0  0  0
  1  2  1  0
  6  7  1  0
  2  9  1  0
  9 10  1  0
  9 16  2  0
 15 17  1  0
 17 18  1  0
 18 19  1  0
 18 20  1  0
  1  3  2  0
  3  4  1  0
  4  5  2  0
  5  6  1  0
  6  8  2  0
  1  8  1  0
 10 11  2  0
 11 12  1  0
 12 13  2  0
 13 14  1  0
 14 15  2  0
 10 15  1  0
M  END

$$$$
No_2525-/export/home/yangzhenyu/potential_scad_32_flow//YTHDC2/2024-12-06-03-22-00/
     RDKit          3D

 19 19  0  0  1  0  0  0  0  0999 V2000
    1.1787   -8.0297    3.5154 C   0  0  0  0  0  0  0  0  0  0  0  0
    1.1048   -9.2215    3.2892 C   0  0  0  0  0  0  0  0  0  0  0  0
    1.2339   -9.7611    2.0189 C   0  0  0  0  0  0  0  0  0  0  0  0
    1.3583   -9.0036    0.9764 C   0  0  0  0  0  0  0  0  0  0  0  0
    1.5996   -7.6362    1.1311 C   0  0  0  0  0  0  0  0  0  0  0  0
    1.4830   -7.0928    2.3626 C   0  0  0  0  0  0  0  0  0  0  0  0
    1.4898   -5.7274    2.6199 C   0  0  0  0  0  0  0  0  0  0  0  0
    1.1681  -11.2222    1.8390 C   0  0  2  0  0  0  0  0  0  0  0  0
    0.7145  -11.5870    0.5424 C   0  0  0  0  0  0  0  0  0  0  0  0
    0.5927  -13.0110    0.4510 O   0  0  0  0  0  0  0  0  0  0  0  0
    0.5214  -10.9412   -0.2851 O   0  0  0  0  0  0  0  0  0  0  0  0
    0.6754   -4.9787    2.7053 O   0  0  0  0  0  0  0  0  0  0  0  0
    0.8146  -11.9601    2.9297 C   0  0  1  0  0  0  0  0  0  0  0  0
   -0.4608  -12.2692    3.3702 C   0  0  0  0  0  0  0  0  0  0  0  0
    1.5815  -13.3242    3.0108 C   0  0  0  0  0  0  0  0  0  0  0  0
    0.9795  -14.4526    3.1811 C   0  0  0  0  0  0  0  0  0  0  0  0
    1.8021  -15.6332    2.9466 C   0  0  0  0  0  0  0  0  0  0  0  0
    1.2535  -16.9134    3.2210 C   0  0  0  0  0  0  0  0  0  0  0  0
   -0.0095  -17.0085    3.6416 C   0  0  0  0  0  0  0  0  0  0  0  0
  6  7  1  0
  3  8  1  0
  8  9  1  6
  9 10  2  0
  9 11  1  0
  7 12  2  0
  8 13  1  0
 13 14  1  6
 13 15  1  0
 15 16  1  0
 16 17  1  0
 17 18  2  3
 18 19  1  0
  1  2  2  0
  2  3  1  0
  3  4  2  0
  4  5  1  0
  5  6  2  0
  1  6  1  0
M  END

$$$$
No_2526-/export/home/yangzhenyu/potential_scad_32_flow//YTHDC2/2024-12-06-03-22-00/
     RDKit          3D

 15 15  0  0  0  0  0  0  0  0999 V2000
    1.1787   -8.0297    3.5154 C   0  0  0  0  0  0  0  0  0  0  0  0
    1.1048   -9.2215    3.2892 C   0  0  0  0  0  0  0  0  0  0  0  0
    1.3627  -10.1721    4.3044 C   0  0  0  0  0  0  0  0  0  0  0  0
    1.7354  -11.4730    3.9023 C   0  0  0  0  0  0  0  0  0  0  0  0
    1.8080  -11.8127    2.7216 C   0  0  0  0  0  0  0  0  0  0  0  0
    1.5854  -11.0021    1.7249 C   0  0  0  0  0  0  0  0  0  0  0  0
    1.3573   -9.7389    1.9287 C   0  0  0  0  0  0  0  0  0  0  0  0
    1.2865   -8.8078    0.9161 C   0  0  0  0  0  0  0  0  0  0  0  0
    1.6845   -9.1638   -0.2896 O   0  0  0  0  0  0  0  0  0  0  0  0
    1.1989   -7.4617    1.0956 O   0  0  0  0  0  0  0  0  0  0  0  0
    2.0675  -13.2115    2.3139 C   0  0  0  0  0  0  0  0  0  0  0  0
    2.4513  -13.5870    1.0849 O   0  0  0  0  0  0  0  0  0  0  0  0
    2.0125  -14.1963    3.2102 I   0  0  0  0  0  0  0  0  0  0  0  0
    2.2924   -7.3380    3.3840 O   0  0  0  0  0  0  0  0  0  0  0  0
    0.0653   -7.2892    3.2488 O   0  0  0  0  0  0  0  0  0  0  0  0
  1  2  1  0
  7  8  1  0
  8  9  2  0
  8 10  1  0
  5 11  1  0
 11 12  2  0
 11 13  1  0
  1 14  1  0
  1 15  2  0
  2  3  2  0
  3  4  1  0
  4  5  2  0
  5  6  1  0
  6  7  2  0
  2  7  1  0
M  END

$$$$
No_2527-/export/home/yangzhenyu/potential_scad_32_flow//YTHDC2/2024-12-06-03-22-00/
     RDKit          3D

 18 19  0  0  0  0  0  0  0  0999 V2000
    1.1787   -8.0297    3.5154 C   0  0  0  0  0  0  0  0  0  0  0  0
    1.0491   -6.8434    2.9820 C   0  0  0  0  0  0  0  0  0  0  0  0
    0.0950   -8.8404    3.2292 C   0  0  0  0  0  0  0  0  0  0  0  0
   -0.9173   -8.4596    2.5152 C   0  0  0  0  0  0  0  0  0  0  0  0
   -1.0331   -7.2162    2.0653 C   0  0  0  0  0  0  0  0  0  0  0  0
   -0.0105   -6.3168    2.3081 C   0  0  0  0  0  0  0  0  0  0  0  0
    0.0485   -4.9783    1.8782 C   0  0  0  0  0  0  0  0  0  0  0  0
   -0.4744   -4.1559    2.2381 N   0  0  0  0  0  0  0  0  0  0  0  0
    0.1794  -10.2887    3.6920 C   0  0  0  0  0  0  0  0  0  0  0  0
   -1.0590  -10.9705    3.8160 C   0  0  0  0  0  0  0  0  0  0  0  0
    1.3702  -10.7789    4.2943 C   0  0  0  0  0  0  0  0  0  0  0  0
    1.8884  -11.8257    3.8357 C   0  0  0  0  0  0  0  0  0  0  0  0
    0.7694  -12.7964    3.5680 C   0  0  0  0  0  0  0  0  0  0  0  0
   -0.5152  -12.4114    3.4906 C   0  0  0  0  0  0  0  0  0  0  0  0
    1.0811  -14.1667    3.5834 C   0  0  0  0  0  0  0  0  0  0  0  0
    0.1910  -15.1528    3.6495 N   0  0  0  0  0  0  0  0  0  0  0  0
    2.2683  -14.5653    3.0805 O   0  0  0  0  0  0  0  0  0  0  0  0
   -1.1291   -4.2672    2.9991 H   0  0  0  0  0  0  0  0  0  0  0  0
  6  7  1  0
  7  8  2  0
  3  9  1  0
 13 15  1  0
 15 16  1  0
 15 17  2  0
  1  2  2  0
  2  6  1  0
  5  6  2  0
  4  5  1  0
  3  4  2  0
  1  3  1  0
  9 10  2  0
 10 14  1  0
 13 14  2  0
 12 13  1  0
 11 12  2  0
  9 11  1  0
  8 18  1  0
M  END

$$$$
No_2528-/export/home/yangzhenyu/potential_scad_32_flow//YTHDC2/2024-12-06-03-22-00/
     RDKit          3D

 18 19  0  0  0  0  0  0  0  0999 V2000
    1.1787   -8.0297    3.5154 C   0  0  0  0  0  0  0  0  0  0  0  0
    1.1048   -9.2215    3.2892 C   0  0  0  0  0  0  0  0  0  0  0  0
    1.2339   -9.7611    2.0189 C   0  0  0  0  0  0  0  0  0  0  0  0
    1.4306   -8.9466    1.1170 C   0  0  0  0  0  0  0  0  0  0  0  0
    1.6532   -7.5949    1.1786 C   0  0  0  0  0  0  0  0  0  0  0  0
    1.4973   -7.0739    2.4258 C   0  0  0  0  0  0  0  0  0  0  0  0
    1.5178   -5.6803    2.7303 C   0  0  0  0  0  0  0  0  0  0  0  0
    1.2507  -11.3384    1.8133 C   0  0  0  0  0  0  0  0  0  0  0  0
    1.7922  -12.1035    2.6143 N   0  0  0  0  0  0  0  0  0  0  0  0
    1.6368  -13.4559    2.3184 C   0  0  0  0  0  0  0  0  0  0  0  0
    0.7589  -13.9610    2.1036 C   0  0  0  0  0  0  0  0  0  0  0  0
   -0.3420  -13.1843    1.5527 C   0  0  0  0  0  0  0  0  0  0  0  0
   -0.0741  -11.7881    1.4110 C   0  0  0  0  0  0  0  0  0  0  0  0
    0.3958  -15.4022    2.2006 C   0  0  0  0  0  0  0  0  0  0  0  0
    1.2430  -16.2039    2.7960 C   0  0  0  0  0  0  0  0  0  0  0  0
    0.9959  -17.5655    2.9443 C   0  0  0  0  0  0  0  0  0  0  0  0
    0.0011  -18.1043    2.2234 C   0  0  0  0  0  0  0  0  0  0  0  0
   -0.8796  -17.4152    1.6538 C   0  0  0  0  0  0  0  0  0  0  0  0
  6  7  1  0
  3  8  1  0
 11 14  1  0
 14 15  2  3
 15 16  1  0
 16 17  2  3
 17 18  1  0
  1  2  2  0
  2  3  1  0
  3  4  2  0
  4  5  1  0
  5  6  2  0
  1  6  1  0
  8  9  2  0
  9 10  1  0
 10 11  2  0
 11 12  1  0
 12 13  2  0
  8 13  1  0
M  END

$$$$
No_2529-/export/home/yangzhenyu/potential_scad_32_flow//YTHDC2/2024-12-06-03-22-00/
     RDKit          3D

 19 20  0  0  0  0  0  0  0  0999 V2000
    1.1787   -8.0297    3.5154 C   0  0  0  0  0  0  0  0  0  0  0  0
    1.1048   -9.2215    3.2892 C   0  0  0  0  0  0  0  0  0  0  0  0
    1.2339   -9.7611    2.0189 C   0  0  0  0  0  0  0  0  0  0  0  0
    1.1954  -11.2312    1.8661 C   0  0  0  0  0  0  0  0  0  0  0  0
    1.5546  -12.1691    2.7931 C   0  0  0  0  0  0  0  0  0  0  0  0
    0.5849   -7.0929    2.5729 C   0  0  0  0  0  0  0  0  0  0  0  0
    0.5567   -7.6699    1.1955 C   0  0  0  0  0  0  0  0  0  0  0  0
    0.7903   -8.9699    0.9209 C   0  0  0  0  0  0  0  0  0  0  0  0
    1.5521  -13.4960    2.3485 C   0  0  0  0  0  0  0  0  0  0  0  0
    1.2403  -13.8919    1.1557 C   0  0  0  0  0  0  0  0  0  0  0  0
    1.0311  -12.9707    0.1488 C   0  0  0  0  0  0  0  0  0  0  0  0
    0.9678  -11.6394    0.4949 C   0  0  0  0  0  0  0  0  0  0  0  0
    0.6235   -5.6335    2.6368 C   0  0  0  0  0  0  0  0  0  0  0  0
    0.3286   -6.8520    0.1792 C   0  0  0  0  0  0  0  0  0  0  0  0
   -1.1367   -6.3850    0.3283 C   0  0  0  0  0  0  0  0  0  0  0  0
   -1.3147   -5.0636   -0.0115 C   0  0  0  0  0  0  0  0  0  0  0  0
   -0.6579   -4.1400    0.0277 C   0  0  0  0  0  0  0  0  0  0  0  0
    1.9414  -14.4228    3.3920 O   0  0  0  0  0  0  0  0  0  0  0  0
   -0.9524   -2.8379    0.1539 C   0  0  0  0  0  0  0  0  0  0  0  0
  3  4  1  0
  6 13  1  0
  7 14  1  0
 14 15  1  0
 15 16  1  0
 16 17  1  0
  9 18  1  0
 17 19  2  0
  1  2  2  0
  2  3  1  0
  3  8  2  0
  7  8  1  0
  6  7  2  0
  1  6  1  0
  4  5  2  0
  5  9  1  0
  9 10  2  0
 10 11  1  0
 11 12  2  0
  4 12  1  0
M  END

$$$$
No_2530-/export/home/yangzhenyu/potential_scad_32_flow//YTHDC2/2024-12-06-03-22-00/
     RDKit          3D

 18 19  0  0  0  0  0  0  0  0999 V2000
    1.1787   -8.0297    3.5154 C   0  0  0  0  0  0  0  0  0  0  0  0
    1.0491   -6.8434    2.9820 C   0  0  0  0  0  0  0  0  0  0  0  0
    0.0950   -8.8404    3.2292 C   0  0  0  0  0  0  0  0  0  0  0  0
   -0.9173   -8.4596    2.5152 C   0  0  0  0  0  0  0  0  0  0  0  0
   -1.0331   -7.2162    2.0653 C   0  0  0  0  0  0  0  0  0  0  0  0
   -0.0105   -6.3168    2.3081 C   0  0  0  0  0  0  0  0  0  0  0  0
    0.1150   -4.9910    1.8495 C   0  0  0  0  0  0  0  0  0  0  0  0
   -0.5774   -4.1593    2.0596 N   0  0  0  0  0  0  0  0  0  0  0  0
    0.2075  -10.4620    3.7828 C   0  0  0  0  0  0  0  0  0  0  0  0
   -0.9797  -11.1248    3.5935 C   0  0  0  0  0  0  0  0  0  0  0  0
    1.2887  -10.7910    4.5206 C   0  0  0  0  0  0  0  0  0  0  0  0
    1.9768  -11.7733    4.0087 C   0  0  0  0  0  0  0  0  0  0  0  0
   -0.6106  -12.4924    3.4785 C   0  0  0  0  0  0  0  0  0  0  0  0
    1.1632  -12.9585    3.7741 C   0  0  0  0  0  0  0  0  0  0  0  0
    1.3398  -14.2824    3.6966 O   0  0  0  0  0  0  0  0  0  0  0  0
   -0.3564   -2.9125    2.5484 C   0  0  0  0  0  0  0  0  0  0  0  0
    1.1141   -2.8807    2.9014 C   0  0  0  0  0  0  0  0  0  0  0  0
    1.5044   -1.5851    3.6339 C   0  0  0  0  0  0  0  0  0  0  0  0
  6  7  1  0
  7  8  1  0
  3  9  1  0
 14 15  1  0
  8 16  1  0
 16 17  1  0
 17 18  1  0
  9 10  2  0
 10 13  1  0
 13 14  2  0
 12 14  1  0
 11 12  2  0
  9 11  1  0
  1  2  2  0
  2  6  1  0
  5  6  2  0
  4  5  1  0
  3  4  2  0
  1  3  1  0
M  END

$$$$
No_2531-/export/home/yangzhenyu/potential_scad_32_flow//YTHDC2/2024-12-06-03-22-00/
     RDKit          3D

 17 17  0  0  1  0  0  0  0  0999 V2000
    1.1787   -8.0297    3.5154 I   0  0  0  0  0  0  0  0  0  0  0  0
    0.6545   -7.6914    2.3650 C   0  0  0  0  0  0  0  0  0  0  0  0
    0.2529   -6.3695    2.0936 C   0  0  0  0  0  0  0  0  0  0  0  0
   -0.8105   -6.0634    1.2570 C   0  0  0  0  0  0  0  0  0  0  0  0
   -1.4017   -7.0879    0.5866 C   0  0  0  0  0  0  0  0  0  0  0  0
    0.3490   -8.5251    1.2337 C   0  0  0  0  0  0  0  0  0  0  0  0
   -0.7667   -8.2722    0.3404 C   0  0  0  0  0  0  0  0  0  0  0  0
    0.9878   -9.7536    0.9164 C   0  0  0  0  0  0  0  0  0  0  0  0
    0.4990  -10.9043    1.2776 N   0  0  0  0  0  0  0  0  0  0  0  0
   -0.7034  -11.1219    1.4699 C   0  0  0  0  0  0  0  0  0  0  0  0
   -1.1976  -11.1714    2.6387 C   0  0  1  0  0  0  0  0  0  0  0  0
   -0.2733  -11.2354    3.8390 C   0  0  0  0  0  0  0  0  0  0  0  0
    2.1991   -9.5946    0.2603 O   0  0  0  0  0  0  0  0  0  0  0  0
   -2.5053  -10.8490    3.0937 C   0  0  0  0  0  0  0  0  0  0  0  0
   -3.4842  -11.7625    2.7635 C   0  0  0  0  0  0  0  0  0  0  0  0
   -4.6406  -11.3853    2.3617 C   0  0  0  0  0  0  0  0  0  0  0  0
   -4.9503  -10.0077    2.5646 C   0  0  0  0  0  0  0  0  0  0  0  0
  1  2  1  0
  6  8  1  0
  8  9  1  0
  9 10  1  0
 10 11  1  0
 11 12  1  1
  8 13  2  0
 11 14  1  0
 14 15  1  0
 15 16  2  3
 16 17  1  0
  2  3  2  0
  3  4  1  0
  4  5  2  0
  5  7  1  0
  6  7  2  0
  2  6  1  0
M  END

$$$$
No_2532-/export/home/yangzhenyu/potential_scad_32_flow//YTHDC2/2024-12-06-03-22-00/
     RDKit          3D

 19 19  0  0  0  0  0  0  0  0999 V2000
    1.1787   -8.0297    3.5154 C   0  0  0  0  0  0  0  0  0  0  0  0
    1.1048   -9.2215    3.2892 C   0  0  0  0  0  0  0  0  0  0  0  0
    1.2339   -9.7611    2.0189 C   0  0  0  0  0  0  0  0  0  0  0  0
    1.3583   -9.0036    0.9764 C   0  0  0  0  0  0  0  0  0  0  0  0
    1.7077   -9.6100   -0.3010 C   0  0  0  0  0  0  0  0  0  0  0  0
    1.3637   -7.1087    2.3226 C   0  0  0  0  0  0  0  0  0  0  0  0
    1.4257   -7.6645    1.0231 C   0  0  0  0  0  0  0  0  0  0  0  0
    1.9364   -8.8976   -1.3212 O   0  0  0  0  0  0  0  0  0  0  0  0
    0.9971  -10.7190   -0.5095 O   0  0  0  0  0  0  0  0  0  0  0  0
    1.1298  -10.1655    4.3973 C   0  0  0  0  0  0  0  0  0  0  0  0
    0.0075  -11.0220    4.6046 O   0  0  0  0  0  0  0  0  0  0  0  0
    2.1152  -10.5297    5.1749 N   0  0  0  0  0  0  0  0  0  0  0  0
    1.3526   -5.6027    2.5279 C   0  0  0  0  0  0  0  0  0  0  0  0
    1.7509   -5.2043    3.6886 N   0  0  0  0  0  0  0  0  0  0  0  0
    1.1987   -4.8305    1.5810 O   0  0  0  0  0  0  0  0  0  0  0  0
    3.5192  -10.2920    4.9166 C   0  0  0  0  0  0  0  0  0  0  0  0
    4.2356  -11.1196    5.9627 O   0  0  0  0  0  0  0  0  0  0  0  0
    3.8745  -10.4536    3.9202 O   0  0  0  0  0  0  0  0  0  0  0  0
    1.6422   -3.7877    3.8345 C   0  0  0  0  0  0  0  0  0  0  0  0
  4  5  1  0
  5  8  2  0
  5  9  1  0
  2 10  1  0
 10 11  2  0
 10 12  1  0
  6 13  1  0
 13 14  1  0
 13 15  2  0
 12 16  1  0
 16 17  1  0
 16 18  2  0
 14 19  1  0
  1  2  2  0
  2  3  1  0
  3  4  2  0
  4  7  1  0
  6  7  2  0
  1  6  1  0
M  END

$$$$
No_2533-/export/home/yangzhenyu/potential_scad_32_flow//YTHDC2/2024-12-06-03-22-00/
     RDKit          3D

 19 19  0  0  1  0  0  0  0  0999 V2000
    1.1787   -8.0297    3.5154 C   0  0  0  0  0  0  0  0  0  0  0  0
    1.0491   -6.8434    2.9820 C   0  0  0  0  0  0  0  0  0  0  0  0
    0.9905   -9.0774    2.6527 C   0  0  1  0  0  0  0  0  0  0  0  0
    1.1655  -10.4663    3.1286 C   0  0  2  0  0  0  0  0  0  0  0  0
    1.7409  -10.6480    4.4599 C   0  0  0  0  0  0  0  0  0  0  0  0
    0.4783   -6.4688    1.7590 C   0  0  2  0  0  0  0  0  0  0  0  0
    0.2119   -7.5787    0.9640 C   0  0  0  0  0  0  0  0  0  0  0  0
    0.4248   -8.8744    1.3136 C   0  0  0  0  0  0  0  0  0  0  0  0
    1.0421  -11.5142    2.2935 C   0  0  2  0  0  0  0  0  0  0  0  0
    1.8175  -11.6406    1.2839 Cl  0  0  0  0  0  0  0  0  0  0  0  0
    0.2946   -5.2071    1.2725 O   0  0  0  0  0  0  0  0  0  0  0  0
   -0.2004   -7.3743   -0.2982 O   0  0  0  0  0  0  0  0  0  0  0  0
   -0.4664  -11.5864    1.8876 C   0  0  0  0  0  0  0  0  0  0  0  0
   -0.8378  -11.9266    0.8989 O   0  0  0  0  0  0  0  0  0  0  0  0
   -1.2991  -11.7572    3.0521 O   0  0  0  0  0  0  0  0  0  0  0  0
    3.1916  -10.5652    4.5445 N   0  0  0  0  0  0  0  0  0  0  0  0
   -0.7769   -4.4881    1.4922 C   0  0  0  0  0  0  0  0  0  0  0  0
   -0.6616   -3.4680    1.4214 C   0  0  0  0  0  0  0  0  0  0  0  0
   -0.4538   -2.4513    2.2895 C   0  0  0  0  0  0  0  0  0  0  0  0
  1  2  1  0
  3  4  1  0
  4  5  1  6
  6  7  1  0
  3  8  1  1
  7  8  1  0
  4  9  1  0
  9 10  1  6
  6 11  1  6
  7 12  2  0
  9 13  1  0
 13 14  2  0
 13 15  1  0
  5 16  1  0
 11 17  1  0
 17 18  1  0
 18 19  1  0
  2  6  1  0
  1  3  1  0
M  END

$$$$
No_2534-/export/home/yangzhenyu/potential_scad_32_flow//YTHDC2/2024-12-06-03-22-00/
     RDKit          3D

 18 18  0  0  1  0  0  0  0  0999 V2000
    1.1787   -8.0297    3.5154 O   0  0  0  0  0  0  0  0  0  0  0  0
    0.6747   -7.4019    2.7838 C   0  0  0  0  0  0  0  0  0  0  0  0
    0.5570   -6.0797    2.8560 C   0  0  0  0  0  0  0  0  0  0  0  0
   -0.2158   -5.3007    2.0284 C   0  0  0  0  0  0  0  0  0  0  0  0
   -0.8260   -5.9169    1.0290 C   0  0  0  0  0  0  0  0  0  0  0  0
   -0.6925   -7.2407    0.8216 C   0  0  0  0  0  0  0  0  0  0  0  0
    0.1645   -8.0156    1.6621 C   0  0  0  0  0  0  0  0  0  0  0  0
    0.4049   -9.3434    1.4877 C   0  0  2  0  0  0  0  0  0  0  0  0
    1.4848   -9.6364    0.5257 C   0  0  0  0  0  0  0  0  0  0  0  0
    1.9880  -10.8099    0.3816 O   0  0  0  0  0  0  0  0  0  0  0  0
    2.2014   -8.6386   -0.2111 O   0  0  0  0  0  0  0  0  0  0  0  0
   -1.6662   -5.1691    0.1389 Cl  0  0  0  0  0  0  0  0  0  0  0  0
   -0.2049  -10.3252    1.8527 C   0  0  0  0  0  0  0  0  0  0  0  0
   -0.1718  -10.6031    3.1686 C   0  0  0  0  0  0  0  0  0  0  0  0
    0.8249  -11.4043    3.7289 C   0  0  0  0  0  0  0  0  0  0  0  0
    0.8042  -12.7382    3.4488 C   0  0  0  0  0  0  0  0  0  0  0  0
    1.1926  -13.1643    2.3144 C   0  0  0  0  0  0  0  0  0  0  0  0
    0.4591  -13.9644    1.5858 C   0  0  0  0  0  0  0  0  0  0  0  0
  1  2  1  0
  7  8  1  0
  8  9  1  0
  9 10  2  0
  9 11  1  0
  5 12  1  0
  8 13  1  6
 13 14  1  0
 14 15  1  0
 15 16  1  0
 16 17  1  0
 17 18  1  0
  2  3  2  0
  3  4  1  0
  4  5  2  0
  5  6  1  0
  6  7  2  0
  2  7  1  0
M  END

$$$$
No_2535-/export/home/yangzhenyu/potential_scad_32_flow//YTHDC2/2024-12-06-03-22-00/
     RDKit          3D

 14 14  0  0  0  0  0  0  0  0999 V2000
    1.1787   -8.0297    3.5154 C   0  0  0  0  0  0  0  0  0  0  0  0
    1.1048   -9.2215    3.2892 C   0  0  0  0  0  0  0  0  0  0  0  0
    1.3627  -10.1721    4.3044 C   0  0  0  0  0  0  0  0  0  0  0  0
    1.7354  -11.4730    3.9023 C   0  0  0  0  0  0  0  0  0  0  0  0
    1.8080  -11.8127    2.7216 C   0  0  0  0  0  0  0  0  0  0  0  0
    1.5854  -11.0021    1.7249 C   0  0  0  0  0  0  0  0  0  0  0  0
    1.3573   -9.7389    1.9287 C   0  0  0  0  0  0  0  0  0  0  0  0
    1.1102   -8.8712    0.9017 C   0  0  0  0  0  0  0  0  0  0  0  0
    0.5299   -7.6926    1.0325 O   0  0  0  0  0  0  0  0  0  0  0  0
    1.3970   -9.2634   -0.4035 N   0  0  0  0  0  0  0  0  0  0  0  0
    2.1122  -13.2004    2.3256 Cl  0  0  0  0  0  0  0  0  0  0  0  0
    2.4864   -7.3378    3.5439 O   0  0  0  0  0  0  0  0  0  0  0  0
    0.1839   -7.2921    3.7614 O   0  0  0  0  0  0  0  0  0  0  0  0
    1.2094   -8.5077   -1.5460 O   0  0  0  0  0  0  0  0  0  0  0  0
  1  2  1  0
  7  8  1  0
  8  9  2  0
  8 10  1  0
  5 11  1  0
  1 12  1  0
  1 13  2  0
 10 14  2  0
  2  3  2  0
  3  4  1  0
  4  5  2  0
  5  6  1  0
  6  7  2  0
  2  7  1  0
M  END

$$$$
No_2536-/export/home/yangzhenyu/potential_scad_32_flow//YTHDC2/2024-12-06-03-22-00/
     RDKit          3D

 17 17  0  0  1  0  0  0  0  0999 V2000
    1.1787   -8.0297    3.5154 O   0  0  0  0  0  0  0  0  0  0  0  0
    0.9969   -8.9689    3.0048 C   0  0  1  0  0  0  0  0  0  0  0  0
    0.9976   -8.9567    1.6341 C   0  0  2  0  0  0  0  0  0  0  0  0
    1.6062   -9.9071    0.9292 C   0  0  0  0  0  0  0  0  0  0  0  0
    2.1191  -10.9757    1.6503 C   0  0  0  0  0  0  0  0  0  0  0  0
    2.1177  -10.9891    3.0403 C   0  0  0  0  0  0  0  0  0  0  0  0
    1.5441   -9.8905    3.6897 C   0  0  0  0  0  0  0  0  0  0  0  0
    0.4333   -7.7031    1.0153 C   0  0  0  0  0  0  0  0  0  0  0  0
   -0.6211   -7.4412    1.3655 C   0  0  0  0  0  0  0  0  0  0  0  0
   -1.1992   -6.1479    0.6451 C   0  0  0  0  0  0  0  0  0  0  0  0
   -0.8913   -5.2585    0.1938 C   0  0  0  0  0  0  0  0  0  0  0  0
   -1.6018   -4.3158   -0.4395 C   0  0  1  0  0  0  0  0  0  0  0  0
   -1.1096   -3.1874   -0.9300 C   0  0  0  0  0  0  0  0  0  0  0  0
    0.0546   -2.7224   -0.2251 C   0  0  0  0  0  0  0  0  0  0  0  0
   -2.8736   -4.6916   -0.9800 C   0  0  0  0  0  0  0  0  0  0  0  0
    1.5956  -10.1537    5.0104 O   0  0  0  0  0  0  0  0  0  0  0  0
   -3.8297   -4.3101   -0.2772 C   0  0  0  0  0  0  0  0  0  0  0  0
  2  1  1  1
  2  3  1  0
  4  5  1  0
  2  7  1  0
  6  7  1  0
  3  8  1  0
  8  9  2  3
  9 10  1  0
 10 11  2  3
 11 12  1  0
 12 13  1  0
 13 14  2  0
 12 15  1  6
  7 16  2  0
 15 17  1  0
  3  4  1  1
  5  6  1  0
M  END

$$$$
No_2537-/export/home/yangzhenyu/potential_scad_32_flow//YTHDC2/2024-12-06-03-22-00/
     RDKit          3D

 18 20  0  0  0  0  0  0  0  0999 V2000
    1.1787   -8.0297    3.5154 C   0  0  0  0  0  0  0  0  0  0  0  0
    1.1048   -9.2215    3.2892 C   0  0  0  0  0  0  0  0  0  0  0  0
    1.3627  -10.1721    4.3044 C   0  0  0  0  0  0  0  0  0  0  0  0
    1.0682  -11.5187    4.0618 C   0  0  0  0  0  0  0  0  0  0  0  0
    0.6332  -11.9655    2.9682 C   0  0  0  0  0  0  0  0  0  0  0  0
    0.4776  -11.1308    1.9203 C   0  0  0  0  0  0  0  0  0  0  0  0
    0.1540  -11.7530    0.6168 C   0  0  0  0  0  0  0  0  0  0  0  0
    0.7979   -9.8320    2.0306 C   0  0  0  0  0  0  0  0  0  0  0  0
   -0.1708  -12.9753    0.5936 C   0  0  0  0  0  0  0  0  0  0  0  0
   -0.1191  -13.8324    1.6722 C   0  0  0  0  0  0  0  0  0  0  0  0
    0.3646  -13.2733    2.9015 C   0  0  0  0  0  0  0  0  0  0  0  0
    1.0109   -6.9745    2.6740 C   0  0  0  0  0  0  0  0  0  0  0  0
    1.1208   -5.5573    3.0106 C   0  0  0  0  0  0  0  0  0  0  0  0
    0.6812  -14.2452    3.8003 O   0  0  0  0  0  0  0  0  0  0  0  0
    0.9095   -8.9976    1.0043 C   0  0  0  0  0  0  0  0  0  0  0  0
    0.9521   -9.3153   -0.3414 C   0  0  0  0  0  0  0  0  0  0  0  0
    1.0337   -8.3283   -1.2771 C   0  0  0  0  0  0  0  0  0  0  0  0
    1.0619   -7.5688    1.1106 C   0  0  0  0  0  0  0  0  0  0  0  0
  6  7  1  0
  9 10  1  0
  5 11  1  0
 10 11  1  0
 12 13  1  0
 11 14  2  0
 15 16  1  0
 16 17  2  0
  7  9  1  0
  1  2  2  0
  8 15  2  0
 15 18  1  0
 12 18  2  0
  1 12  1  0
  2  3  1  0
  3  4  2  0
  4  5  1  0
  5  6  2  0
  6  8  1  0
  2  8  1  0
M  END

$$$$
No_2538-/export/home/yangzhenyu/potential_scad_32_flow//YTHDC2/2024-12-06-03-22-00/
     RDKit          3D

 18 19  0  0  1  0  0  0  0  0999 V2000
    1.1787   -8.0297    3.5154 C   0  0  0  0  0  0  0  0  0  0  0  0
    1.0491   -6.8434    2.9820 C   0  0  0  0  0  0  0  0  0  0  0  0
    1.9985   -8.9840    2.8958 C   0  0  1  0  0  0  0  0  0  0  0  0
    1.9135  -10.3404    3.6266 C   0  0  0  0  0  0  0  0  0  0  0  0
    0.7479  -10.9191    3.7202 C   0  0  0  0  0  0  0  0  0  0  0  0
    1.3327   -6.5751    1.7543 N   0  0  0  0  0  0  0  0  0  0  0  0
    0.6133  -12.3625    3.7515 C   0  0  0  0  0  0  0  0  0  0  0  0
    1.8600  -13.0318    3.5343 C   0  0  0  0  0  0  0  0  0  0  0  0
    1.5849   -7.7078    1.0018 C   0  0  0  0  0  0  0  0  0  0  0  0
    1.9747   -8.8391    1.3763 C   0  0  0  0  0  0  0  0  0  0  0  0
    1.8395   -7.4732   -0.3074 O   0  0  0  0  0  0  0  0  0  0  0  0
    1.4804  -14.4233    2.9532 C   0  0  0  0  0  0  0  0  0  0  0  0
    1.0348  -14.5509    1.7595 C   0  0  0  0  0  0  0  0  0  0  0  0
    0.1416  -14.0807    1.5402 C   0  0  0  0  0  0  0  0  0  0  0  0
   -0.4127  -14.2646    0.2103 C   0  0  0  0  0  0  0  0  0  0  0  0
    0.4447  -14.8538   -0.6881 C   0  0  0  0  0  0  0  0  0  0  0  0
    1.6379  -15.2290   -0.3335 C   0  0  0  0  0  0  0  0  0  0  0  0
    2.0365  -15.1257    0.8695 C   0  0  0  0  0  0  0  0  0  0  0  0
  1  2  1  0
  1  3  1  0
  3  4  1  6
  4  5  1  0
  5  7  1  0
  7  8  1  0
  6  9  1  0
  3 10  1  0
  9 10  1  0
  9 11  2  0
  8 12  1  0
 12 13  1  0
  2  6  1  0
 13 14  2  0
 14 15  1  0
 15 16  2  0
 16 17  1  0
 17 18  2  0
 13 18  1  0
M  END

$$$$
No_2539-/export/home/yangzhenyu/potential_scad_32_flow//YTHDC2/2024-12-06-03-22-00/
     RDKit          3D

 20 21  0  0  1  0  0  0  0  0999 V2000
    1.1787   -8.0297    3.5154 C   0  0  0  0  0  0  0  0  0  0  0  0
    1.0491   -6.8434    2.9820 C   0  0  0  0  0  0  0  0  0  0  0  0
    1.0690   -9.1150    2.7206 C   0  0  0  0  0  0  0  0  0  0  0  0
    0.9689   -6.6391    1.6260 C   0  0  0  0  0  0  0  0  0  0  0  0
    0.9670   -9.0334    1.3824 C   0  0  0  0  0  0  0  0  0  0  0  0
    0.8189   -7.7113    0.8022 C   0  0  0  0  0  0  0  0  0  0  0  0
    1.2114  -10.5217    3.2468 C   0  0  0  0  0  0  0  0  0  0  0  0
    0.2824  -11.3381    3.2295 C   0  0  0  0  0  0  0  0  0  0  0  0
    0.6999  -12.7670    3.3490 C   0  0  0  0  0  0  0  0  0  0  0  0
    1.9562  -13.0706    3.2841 C   0  0  0  0  0  0  0  0  0  0  0  0
    2.0051  -14.6400    2.9097 C   0  0  1  0  0  0  0  0  0  0  0  0
    2.6571  -14.9349    1.7153 C   0  0  0  0  0  0  0  0  0  0  0  0
    2.6832  -16.2047    1.4459 N   0  0  0  0  0  0  0  0  0  0  0  0
    2.1001  -16.7907    2.5914 C   0  0  0  0  0  0  0  0  0  0  0  0
    1.7178  -15.7482    3.4688 N   0  0  0  0  0  0  0  0  0  0  0  0
    0.9128  -10.2217    0.4294 C   0  0  0  0  0  0  0  0  0  0  0  0
   -0.1712  -10.2985   -0.1966 O   0  0  0  0  0  0  0  0  0  0  0  0
    1.9337  -10.8950    0.1412 O   0  0  0  0  0  0  0  0  0  0  0  0
    0.9143   -5.3384    1.0336 O   0  0  0  0  0  0  0  0  0  0  0  0
    0.4634   -4.2481    1.7616 C   0  0  0  0  0  0  0  0  0  0  0  0
  3  7  1  0
  7  8  1  0
  8  9  1  0
  9 10  1  0
 11 10  1  1
 11 12  1  0
 12 13  2  0
 13 14  1  0
 11 15  1  0
 14 15  2  0
  5 16  1  0
 16 17  2  0
 16 18  1  0
  4 19  1  0
 19 20  1  0
  1  2  2  0
  2  4  1  0
  4  6  2  0
  5  6  1  0
  3  5  2  0
  1  3  1  0
M  END

$$$$
No_2540-/export/home/yangzhenyu/potential_scad_32_flow//YTHDC2/2024-12-06-03-22-00/
     RDKit          3D

 17 19  0  0  1  0  0  0  0  0999 V2000
    1.1787   -8.0297    3.5154 C   0  0  0  0  0  0  0  0  0  0  0  0
    1.0491   -6.8434    2.9820 C   0  0  0  0  0  0  0  0  0  0  0  0
    0.0950   -8.8404    3.2292 C   0  0  2  0  0  0  0  0  0  0  0  0
    0.0602  -10.1764    3.8231 C   0  0  0  0  0  0  0  0  0  0  0  0
    0.2248   -6.3830    2.0648 C   0  0  2  0  0  0  0  0  0  0  0  0
   -0.6745   -7.2322    1.6857 C   0  0  0  0  0  0  0  0  0  0  0  0
   -0.7374   -8.4992    2.1291 C   0  0  2  0  0  0  0  0  0  0  0  0
   -0.1792  -11.3045    3.0702 C   0  0  0  0  0  0  0  0  0  0  0  0
   -1.1988  -11.5142    2.3719 C   0  0  0  0  0  0  0  0  0  0  0  0
   -1.3056  -12.6417    1.6201 C   0  0  0  0  0  0  0  0  0  0  0  0
   -2.3074  -12.6072    0.7111 C   0  0  0  0  0  0  0  0  0  0  0  0
   -3.0875  -11.5780    0.6319 C   0  0  0  0  0  0  0  0  0  0  0  0
   -2.8489  -10.5171    1.3737 C   0  0  0  0  0  0  0  0  0  0  0  0
   -1.8977  -10.3510    2.2344 C   0  0  0  0  0  0  0  0  0  0  0  0
   -1.8042   -9.1741    1.8755 N   0  0  0  0  0  0  0  0  0  0  0  0
    0.3278   -4.9968    1.3595 O   0  0  0  0  0  0  0  0  0  0  0  0
   -1.5828   -6.7640    0.7668 O   0  0  0  0  0  0  0  0  0  0  0  0
  1  2  1  0
  3  4  1  6
  5  6  1  0
  3  7  1  0
  6  7  1  0
  4  8  1  0
  7 15  1  1
 14 15  1  0
  5 16  1  6
  6 17  2  0
  8  9  1  0
  2  5  1  0
  1  3  1  0
  9 10  2  0
 10 11  1  0
 11 12  2  0
 12 13  1  0
 13 14  2  0
  9 14  1  0
M  END

$$$$
No_2541-/export/home/yangzhenyu/potential_scad_32_flow//YTHDC2/2024-12-06-03-22-00/
     RDKit          3D

 18 19  0  0  0  0  0  0  0  0999 V2000
    1.1787   -8.0297    3.5154 C   0  0  0  0  0  0  0  0  0  0  0  0
    1.0491   -6.8434    2.9820 C   0  0  0  0  0  0  0  0  0  0  0  0
    0.9905   -9.0774    2.6527 C   0  0  0  0  0  0  0  0  0  0  0  0
    0.7897   -8.9519    1.3691 C   0  0  0  0  0  0  0  0  0  0  0  0
    0.7018   -7.7198    0.7892 C   0  0  0  0  0  0  0  0  0  0  0  0
    0.8918   -6.5957    1.6117 C   0  0  0  0  0  0  0  0  0  0  0  0
    1.0711  -10.4814    3.2282 C   0  0  0  0  0  0  0  0  0  0  0  0
   -0.1055  -11.1328    3.5223 C   0  0  0  0  0  0  0  0  0  0  0  0
   -0.7419  -11.5628    2.6150 C   0  0  0  0  0  0  0  0  0  0  0  0
   -2.1035  -12.0758    2.8938 C   0  0  0  0  0  0  0  0  0  0  0  0
   -2.6082  -13.1904    2.4908 C   0  0  0  0  0  0  0  0  0  0  0  0
   -1.9259  -13.9256    1.6046 C   0  0  0  0  0  0  0  0  0  0  0  0
   -0.6328  -13.4114    1.1108 C   0  0  0  0  0  0  0  0  0  0  0  0
   -0.0663  -12.3696    1.7334 C   0  0  0  0  0  0  0  0  0  0  0  0
    0.9048   -5.2903    1.1293 C   0  0  0  0  0  0  0  0  0  0  0  0
    2.3853  -10.9393    3.4027 C   0  0  0  0  0  0  0  0  0  0  0  0
    2.7719  -11.1727    4.6512 N   0  0  0  0  0  0  0  0  0  0  0  0
    2.1300  -11.0191    5.4157 H   0  0  0  0  0  0  0  0  0  0  0  0
  3  7  1  0
  7  8  1  0
  6 15  1  0
  7 16  1  0
 16 17  2  0
  8  9  1  0
  1  2  2  0
  2  6  1  0
  5  6  2  0
  4  5  1  0
  3  4  2  0
  1  3  1  0
  9 10  2  0
 10 11  1  0
 11 12  2  0
 12 13  1  0
 13 14  2  0
  9 14  1  0
 17 18  1  0
M  END

$$$$
No_2542-/export/home/yangzhenyu/potential_scad_32_flow//YTHDC2/2024-12-06-03-22-00/
     RDKit          3D

 18 19  0  0  0  0  0  0  0  0999 V2000
    1.1787   -8.0297    3.5154 C   0  0  0  0  0  0  0  0  0  0  0  0
    1.1048   -9.2215    3.2892 C   0  0  0  0  0  0  0  0  0  0  0  0
    1.3627  -10.1721    4.3044 C   0  0  0  0  0  0  0  0  0  0  0  0
    1.0682  -11.5187    4.0618 C   0  0  0  0  0  0  0  0  0  0  0  0
    0.6332  -11.9655    2.9682 C   0  0  0  0  0  0  0  0  0  0  0  0
    0.4776  -11.1308    1.9203 C   0  0  0  0  0  0  0  0  0  0  0  0
    0.7470   -9.8274    2.0368 C   0  0  0  0  0  0  0  0  0  0  0  0
    0.5535   -7.1314    2.6861 C   0  0  0  0  0  0  0  0  0  0  0  0
    0.2950   -7.6000    1.3275 C   0  0  0  0  0  0  0  0  0  0  0  0
    0.2692   -8.8631    1.0973 C   0  0  0  0  0  0  0  0  0  0  0  0
   -0.0070   -6.7080    0.3888 C   0  0  0  0  0  0  0  0  0  0  0  0
   -1.3264   -6.4521    0.2332 C   0  0  0  0  0  0  0  0  0  0  0  0
   -1.8530   -5.5022   -0.6735 C   0  0  0  0  0  0  0  0  0  0  0  0
   -1.5273   -4.3091   -0.6298 C   0  0  0  0  0  0  0  0  0  0  0  0
    0.4890  -13.3872    2.7181 C   0  0  0  0  0  0  0  0  0  0  0  0
    1.4379  -14.3019    3.1269 C   0  0  0  0  0  0  0  0  0  0  0  0
    1.0563  -15.6555    2.9483 C   0  0  0  0  0  0  0  0  0  0  0  0
    0.1089  -16.0844    2.2762 C   0  0  0  0  0  0  0  0  0  0  0  0
  9 11  1  0
 11 12  1  0
 12 13  1  0
 13 14  1  0
  5 15  1  0
 15 16  1  0
 16 17  2  3
 17 18  1  0
  2  3  1  0
  3  4  2  0
  4  5  1  0
  5  6  2  0
  6  7  1  0
  1  2  2  0
  2  7  1  0
  7 10  2  0
  9 10  1  0
  8  9  2  0
  1  8  1  0
M  END

$$$$
No_2543-/export/home/yangzhenyu/potential_scad_32_flow//YTHDC2/2024-12-06-03-22-00/
     RDKit          3D

 19 19  0  0  1  0  0  0  0  0999 V2000
    1.1787   -8.0297    3.5154 C   0  0  0  0  0  0  0  0  0  0  0  0
    1.1048   -9.2215    3.2892 C   0  0  0  0  0  0  0  0  0  0  0  0
    1.2339   -9.7611    2.0189 C   0  0  0  0  0  0  0  0  0  0  0  0
    1.1954  -11.2312    1.8661 C   0  0  1  0  0  0  0  0  0  0  0  0
    1.2996  -11.5815    0.5387 C   0  0  0  0  0  0  0  0  0  0  0  0
    1.3263   -7.1208    2.3229 C   0  0  0  0  0  0  0  0  0  0  0  0
    1.3693   -7.6408    1.0625 C   0  0  0  0  0  0  0  0  0  0  0  0
    1.5228   -8.9954    0.8505 C   0  0  0  0  0  0  0  0  0  0  0  0
    1.8790  -11.8495    2.9054 C   0  0  0  0  0  0  0  0  0  0  0  0
    1.0278  -12.9570    3.4906 C   0  0  0  0  0  0  0  0  0  0  0  0
    0.5783  -13.9480    2.5170 O   0  0  0  0  0  0  0  0  0  0  0  0
    1.2878   -5.6407    2.5323 Cl  0  0  0  0  0  0  0  0  0  0  0  0
    1.3493  -15.0841    2.3603 C   0  0  0  0  0  0  0  0  0  0  0  0
    2.1937  -12.1312   -0.0092 O   0  0  0  0  0  0  0  0  0  0  0  0
    0.0165  -11.7948   -0.0137 O   0  0  0  0  0  0  0  0  0  0  0  0
    0.9884  -15.9444    1.6652 C   0  0  0  0  0  0  0  0  0  0  0  0
    0.1527  -15.5234    0.6478 C   0  0  0  0  0  0  0  0  0  0  0  0
   -0.9107  -15.4945    0.7416 C   0  0  0  0  0  0  0  0  0  0  0  0
   -1.5479  -16.1950    1.7795 C   0  0  0  0  0  0  0  0  0  0  0  0
  3  4  1  0
  4  5  1  0
  4  9  1  1
  9 10  1  0
 10 11  1  0
  6 12  1  0
 11 13  1  0
  5 14  2  0
  5 15  1  0
 13 16  1  0
 16 17  1  0
 17 18  2  3
 18 19  1  0
  1  2  2  0
  2  3  1  0
  3  8  2  0
  7  8  1  0
  6  7  2  0
  1  6  1  0
M  END

$$$$
No_2544-/export/home/yangzhenyu/potential_scad_32_flow//YTHDC2/2024-12-06-03-22-00/
     RDKit          3D

 17 18  0  0  1  0  0  0  0  0999 V2000
    1.1787   -8.0297    3.5154 C   0  0  0  0  0  0  0  0  0  0  0  0
    1.1048   -9.2215    3.2892 C   0  0  0  0  0  0  0  0  0  0  0  0
    1.2339   -9.7611    2.0189 C   0  0  0  0  0  0  0  0  0  0  0  0
    1.1954  -11.2312    1.8661 C   0  0  1  0  0  0  0  0  0  0  0  0
    1.2996  -11.5815    0.5387 C   0  0  0  0  0  0  0  0  0  0  0  0
    1.3263   -7.1208    2.3229 C   0  0  0  0  0  0  0  0  0  0  0  0
    1.3693   -7.6408    1.0625 C   0  0  0  0  0  0  0  0  0  0  0  0
    1.4358   -8.9950    0.8622 C   0  0  0  0  0  0  0  0  0  0  0  0
    1.8955  -11.8446    2.8953 C   0  0  0  0  0  0  0  0  0  0  0  0
    1.0417  -12.9506    3.5023 C   0  0  0  0  0  0  0  0  0  0  0  0
   -0.2516  -12.9051    3.2636 N   0  0  0  0  0  0  0  0  0  0  0  0
    1.2805   -5.4712    2.5901 O   0  0  0  0  0  0  0  0  0  0  0  0
   -0.7614  -12.0753    2.3405 C   0  0  1  0  0  0  0  0  0  0  0  0
   -0.1480  -11.3461    1.5654 C   0  0  0  0  0  0  0  0  0  0  0  0
   -2.2146  -12.3093    2.2350 C   0  0  0  0  0  0  0  0  0  0  0  0
   -2.7823  -13.4596    2.6346 C   0  0  0  0  0  0  0  0  0  0  0  0
   -3.7000  -13.8070    2.1066 C   0  0  0  0  0  0  0  0  0  0  0  0
  3  4  1  0
  4  5  1  6
  4  9  1  0
  9 10  1  0
 10 11  1  0
  6 12  1  0
 11 13  1  0
  4 14  1  0
 13 14  1  0
 13 15  1  6
 15 16  1  0
 16 17  2  0
  1  2  2  0
  2  3  1  0
  3  8  2  0
  7  8  1  0
  6  7  2  0
  1  6  1  0
M  END

$$$$
No_2545-/export/home/yangzhenyu/potential_scad_32_flow//YTHDC2/2024-12-06-03-22-00/
     RDKit          3D

 19 21  0  0  0  0  0  0  0  0999 V2000
    1.1787   -8.0297    3.5154 C   0  0  0  0  0  0  0  0  0  0  0  0
    1.1048   -9.2215    3.2892 C   0  0  0  0  0  0  0  0  0  0  0  0
    1.3627  -10.1721    4.3044 C   0  0  0  0  0  0  0  0  0  0  0  0
    2.3720  -10.8948    4.2468 C   0  0  0  0  0  0  0  0  0  0  0  0
    0.8234   -7.0464    2.5717 C   0  0  0  0  0  0  0  0  0  0  0  0
    0.4328   -7.4736    1.3042 C   0  0  0  0  0  0  0  0  0  0  0  0
    0.3532   -8.7488    0.9919 C   0  0  0  0  0  0  0  0  0  0  0  0
    0.7039   -9.7094    1.9672 C   0  0  0  0  0  0  0  0  0  0  0  0
    0.4096  -10.9489    1.8134 C   0  0  0  0  0  0  0  0  0  0  0  0
    0.0431  -11.4812    0.9036 C   0  0  0  0  0  0  0  0  0  0  0  0
   -0.1875  -12.8775    0.6326 C   0  0  0  0  0  0  0  0  0  0  0  0
    0.3419  -13.6821    1.5709 C   0  0  0  0  0  0  0  0  0  0  0  0
    0.9940  -13.2546    2.6864 C   0  0  0  0  0  0  0  0  0  0  0  0
    1.0870  -11.8564    2.8622 C   0  0  0  0  0  0  0  0  0  0  0  0
    2.0426  -12.1473    3.8013 C   0  0  0  0  0  0  0  0  0  0  0  0
    1.0230   -5.5803    2.8277 Cl  0  0  0  0  0  0  0  0  0  0  0  0
    0.1000  -15.1530    1.3729 C   0  0  0  0  0  0  0  0  0  0  0  0
    1.1092  -15.9999    1.4194 C   0  0  0  0  0  0  0  0  0  0  0  0
    0.9542  -17.3817    1.4844 C   0  0  0  0  0  0  0  0  0  0  0  0
  2  3  1  0
  3  4  1  0
  8  9  1  0
  4 15  1  0
 14 15  1  0
  5 16  1  0
 12 17  1  0
 17 18  1  0
 18 19  2  0
  1  2  2  0
  2  8  1  0
  7  8  2  0
  6  7  1  0
  5  6  2  0
  1  5  1  0
  9 10  2  0
 10 11  1  0
 11 12  2  0
 12 13  1  0
 13 14  2  0
  9 14  1  0
M  END

$$$$
No_2546-/export/home/yangzhenyu/potential_scad_32_flow//YTHDC2/2024-12-06-03-22-00/
     RDKit          3D

 17 18  0  0  0  0  0  0  0  0999 V2000
    1.1787   -8.0297    3.5154 C   0  0  0  0  0  0  0  0  0  0  0  0
    1.0491   -6.8434    2.9820 C   0  0  0  0  0  0  0  0  0  0  0  0
    0.0950   -8.8404    3.2292 C   0  0  0  0  0  0  0  0  0  0  0  0
   -0.9173   -8.4596    2.5152 C   0  0  0  0  0  0  0  0  0  0  0  0
   -1.0331   -7.2162    2.0653 C   0  0  0  0  0  0  0  0  0  0  0  0
   -0.0105   -6.3168    2.3081 C   0  0  0  0  0  0  0  0  0  0  0  0
    0.1150   -4.9910    1.8495 C   0  0  0  0  0  0  0  0  0  0  0  0
   -0.5774   -4.1593    2.0596 N   0  0  0  0  0  0  0  0  0  0  0  0
    0.2075  -10.4620    3.7828 C   0  0  0  0  0  0  0  0  0  0  0  0
    1.2477  -10.9958    4.1839 C   0  0  0  0  0  0  0  0  0  0  0  0
    1.2386  -12.3304    3.9199 C   0  0  0  0  0  0  0  0  0  0  0  0
    0.1724  -12.9967    3.5305 C   0  0  0  0  0  0  0  0  0  0  0  0
   -0.8864  -12.3732    3.1167 C   0  0  0  0  0  0  0  0  0  0  0  0
   -0.9383  -10.9918    3.2635 C   0  0  0  0  0  0  0  0  0  0  0  0
    0.2642  -14.4358    3.4212 O   0  0  0  0  0  0  0  0  0  0  0  0
    0.5522  -15.1561    2.3358 C   0  0  0  0  0  0  0  0  0  0  0  0
   -1.6828   -4.0759    2.0741 C   0  0  0  0  0  0  0  0  0  0  0  0
  6  7  1  0
  7  8  1  0
  3  9  1  0
 12 15  1  0
 15 16  1  0
  8 17  2  0
  1  2  2  0
  2  6  1  0
  5  6  2  0
  4  5  1  0
  3  4  2  0
  1  3  1  0
  9 10  2  0
 10 11  1  0
 11 12  2  0
 12 13  1  0
 13 14  2  0
  9 14  1  0
M  END

$$$$
No_2547-/export/home/yangzhenyu/potential_scad_32_flow//YTHDC2/2024-12-06-03-22-00/
     RDKit          3D

 12 12  0  0  0  0  0  0  0  0999 V2000
    1.1787   -8.0297    3.5154 C   0  0  0  0  0  0  0  0  0  0  0  0
    1.1048   -9.2215    3.2892 C   0  0  0  0  0  0  0  0  0  0  0  0
    1.0239   -9.7790    2.0239 C   0  0  0  0  0  0  0  0  0  0  0  0
    1.1393   -9.0211    0.9686 C   0  0  0  0  0  0  0  0  0  0  0  0
    1.4562   -7.5068    1.4720 C   0  0  0  0  0  0  0  0  0  0  0  0
    1.5110   -7.1181    2.4816 C   0  0  0  0  0  0  0  0  0  0  0  0
    1.0761   -9.3678   -0.3995 C   0  0  0  0  0  0  0  0  0  0  0  0
    0.1207   -8.8526   -1.0503 O   0  0  0  0  0  0  0  0  0  0  0  0
    2.0196   -9.8370   -0.8666 O   0  0  0  0  0  0  0  0  0  0  0  0
    0.8843  -10.2828    4.3080 I   0  0  0  0  0  0  0  0  0  0  0  0
    1.5782   -5.6613    2.8353 Cl  0  0  0  0  0  0  0  0  0  0  0  0
    0.8948  -11.3387    1.6976 Cl  0  0  0  0  0  0  0  0  0  0  0  0
  4  7  1  0
  7  8  1  0
  7  9  2  0
  2 10  1  0
  6 11  1  0
  3 12  1  0
  1  2  2  0
  2  3  1  0
  3  4  2  0
  4  5  1  0
  5  6  2  0
  1  6  1  0
M  END

$$$$
No_2548-/export/home/yangzhenyu/potential_scad_32_flow//YTHDC2/2024-12-06-03-22-00/
     RDKit          3D

 18 20  0  0  0  0  0  0  0  0999 V2000
    1.1787   -8.0297    3.5154 C   0  0  0  0  0  0  0  0  0  0  0  0
    1.1048   -9.2215    3.2892 C   0  0  0  0  0  0  0  0  0  0  0  0
    1.3627  -10.1721    4.3044 C   0  0  0  0  0  0  0  0  0  0  0  0
    1.0682  -11.5187    4.0618 C   0  0  0  0  0  0  0  0  0  0  0  0
    0.6332  -11.9655    2.9682 C   0  0  0  0  0  0  0  0  0  0  0  0
    0.6698  -11.3145    2.0035 C   0  0  0  0  0  0  0  0  0  0  0  0
    0.9069   -9.8966    2.0084 C   0  0  0  0  0  0  0  0  0  0  0  0
    1.0124   -7.0534    2.4581 C   0  0  0  0  0  0  0  0  0  0  0  0
    0.9325   -7.6170    1.1269 C   0  0  0  0  0  0  0  0  0  0  0  0
    0.8653   -8.9137    0.9167 C   0  0  0  0  0  0  0  0  0  0  0  0
    0.6872   -9.3286   -0.3265 C   0  0  0  0  0  0  0  0  0  0  0  0
   -0.0680   -8.7809   -1.1853 O   0  0  0  0  0  0  0  0  0  0  0  0
    0.5722  -13.4195    2.7742 C   0  0  0  0  0  0  0  0  0  0  0  0
    1.0005  -14.0931    1.7898 C   0  0  0  0  0  0  0  0  0  0  0  0
    1.3399  -15.4037    1.8177 C   0  0  0  0  0  0  0  0  0  0  0  0
    1.0038  -16.2471    2.8690 C   0  0  0  0  0  0  0  0  0  0  0  0
    0.4962  -15.4974    4.0616 C   0  0  0  0  0  0  0  0  0  0  0  0
    0.3255  -14.1943    3.9883 C   0  0  0  0  0  0  0  0  0  0  0  0
 10 11  1  0
 11 12  2  0
  5 13  1  0
  2  3  1  0
  3  4  2  0
  4  5  1  0
  5  6  2  0
  6  7  1  0
 13 14  2  0
 14 15  1  0
 15 16  2  0
 16 17  1  0
 17 18  2  0
 13 18  1  0
  1  2  2  0
  2  7  1  0
  7 10  2  0
  9 10  1  0
  8  9  2  0
  1  8  1  0
M  END

$$$$
No_2549-/export/home/yangzhenyu/potential_scad_32_flow//YTHDC2/2024-12-06-03-22-00/
     RDKit          3D

 20 21  0  0  0  0  0  0  0  0999 V2000
    1.1787   -8.0297    3.5154 C   0  0  0  0  0  0  0  0  0  0  0  0
    1.0491   -6.8434    2.9820 N   0  0  0  0  0  0  0  0  0  0  0  0
    0.1476   -8.8697    3.1493 C   0  0  0  0  0  0  0  0  0  0  0  0
   -0.7634   -8.3679    2.4311 C   0  0  0  0  0  0  0  0  0  0  0  0
   -0.1709   -6.9105    2.2426 C   0  0  0  0  0  0  0  0  0  0  0  0
    0.1600  -10.2773    3.5999 C   0  0  0  0  0  0  0  0  0  0  0  0
   -0.9059  -10.9979    3.4307 C   0  0  0  0  0  0  0  0  0  0  0  0
   -2.0067  -10.4047    2.6639 C   0  0  0  0  0  0  0  0  0  0  0  0
   -1.8668   -9.0638    2.2281 C   0  0  0  0  0  0  0  0  0  0  0  0
   -0.7979   -5.8168    1.6023 C   0  0  0  0  0  0  0  0  0  0  0  0
   -1.4090   -6.0554    0.4246 C   0  0  0  0  0  0  0  0  0  0  0  0
   -0.5283   -4.5718    2.1302 C   0  0  0  0  0  0  0  0  0  0  0  0
    0.1438   -4.2303    3.3286 C   0  0  0  0  0  0  0  0  0  0  0  0
   -1.0798   -3.4593    1.3690 C   0  0  0  0  0  0  0  0  0  0  0  0
   -3.1239  -11.0788    2.4341 C   0  0  0  0  0  0  0  0  0  0  0  0
   -4.3413  -10.6173    2.7271 C   0  0  0  0  0  0  0  0  0  0  0  0
   -5.4978  -11.2196    2.2701 C   0  0  0  0  0  0  0  0  0  0  0  0
   -5.3292  -12.4329    1.6242 C   0  0  0  0  0  0  0  0  0  0  0  0
   -4.1260  -12.9957    1.4002 C   0  0  0  0  0  0  0  0  0  0  0  0
   -4.0555  -14.2189    0.7547 C   0  0  0  0  0  0  0  0  0  0  0  0
  1  2  1  0
  2  5  2  0
  4  5  1  0
  5 10  1  0
 10 11  2  0
 10 12  1  0
 12 13  1  0
 12 14  1  0
  8 15  1  0
 15 16  2  3
 16 17  1  0
 17 18  2  3
 18 19  1  0
 19 20  1  0
  1  3  1  0
  3  4  2  0
  4  9  1  0
  8  9  2  0
  7  8  1  0
  6  7  2  0
  3  6  1  0
M  END

$$$$
No_2550-/export/home/yangzhenyu/potential_scad_32_flow//YTHDC2/2024-12-06-03-22-00/
     RDKit          3D

 19 20  0  0  0  0  0  0  0  0999 V2000
    1.1787   -8.0297    3.5154 C   0  0  0  0  0  0  0  0  0  0  0  0
    1.1048   -9.2215    3.2892 C   0  0  0  0  0  0  0  0  0  0  0  0
    1.2339   -9.7611    2.0189 C   0  0  0  0  0  0  0  0  0  0  0  0
    1.3583   -9.0036    0.9764 C   0  0  0  0  0  0  0  0  0  0  0  0
    1.5996   -7.6362    1.1311 C   0  0  0  0  0  0  0  0  0  0  0  0
    1.4830   -7.0928    2.3626 C   0  0  0  0  0  0  0  0  0  0  0  0
    1.1008  -11.2372    1.8542 C   0  0  0  0  0  0  0  0  0  0  0  0
    0.5178  -11.9759    2.3445 C   0  0  0  0  0  0  0  0  0  0  0  0
    0.4575  -13.3705    2.1281 C   0  0  0  0  0  0  0  0  0  0  0  0
    1.1632  -14.1013    2.0451 C   0  0  0  0  0  0  0  0  0  0  0  0
    2.4646  -13.5566    1.4445 C   0  0  0  0  0  0  0  0  0  0  0  0
    1.0647  -15.5680    1.9364 C   0  0  0  0  0  0  0  0  0  0  0  0
    0.1453  -16.1121    1.4983 C   0  0  0  0  0  0  0  0  0  0  0  0
   -0.6991  -15.6078    0.5430 N   0  0  0  0  0  0  0  0  0  0  0  0
    0.0828  -17.6229    1.5062 C   0  0  0  0  0  0  0  0  0  0  0  0
    1.5545   -5.6568    2.6281 Cl  0  0  0  0  0  0  0  0  0  0  0  0
   -0.8761  -18.2519    1.2527 C   0  0  0  0  0  0  0  0  0  0  0  0
   -1.8005  -17.6514    0.3881 C   0  0  0  0  0  0  0  0  0  0  0  0
   -1.6994  -16.3363    0.0904 C   0  0  0  0  0  0  0  0  0  0  0  0
  3  7  1  0
  7  8  2  3
  8  9  1  0
  9 10  2  3
 10 11  1  0
 10 12  1  0
  6 16  1  0
 12 13  1  0
  1  2  2  0
  2  3  1  0
  3  4  2  0
  4  5  1  0
  5  6  2  0
  1  6  1  0
 13 14  2  0
 14 19  1  0
 18 19  2  0
 17 18  1  0
 15 17  2  0
 13 15  1  0
M  END

$$$$
No_2551-/export/home/yangzhenyu/potential_scad_32_flow//YTHDC2/2024-12-06-03-22-00/
     RDKit          3D

 19 20  0  0  1  0  0  0  0  0999 V2000
    1.1787   -8.0297    3.5154 C   0  0  0  0  0  0  0  0  0  0  0  0
    1.1048   -9.2215    3.2892 C   0  0  0  0  0  0  0  0  0  0  0  0
    1.2339   -9.7611    2.0189 C   0  0  0  0  0  0  0  0  0  0  0  0
    1.3583   -9.0036    0.9764 Cl  0  0  0  0  0  0  0  0  0  0  0  0
    1.0245  -11.3190    2.0244 C   0  0  0  0  0  0  0  0  0  0  0  0
    0.0424  -11.8298    1.4013 N   0  0  0  0  0  0  0  0  0  0  0  0
   -1.1134  -11.2460    1.1390 C   0  0  0  0  0  0  0  0  0  0  0  0
   -2.0816  -11.9663    0.8072 C   0  0  0  0  0  0  0  0  0  0  0  0
   -1.9358  -13.3431    0.7280 C   0  0  0  0  0  0  0  0  0  0  0  0
   -0.7789  -13.9073    1.0429 C   0  0  0  0  0  0  0  0  0  0  0  0
    0.2688  -13.2473    1.4021 C   0  0  1  0  0  0  0  0  0  0  0  0
    1.4280  -13.7956    1.6313 C   0  0  0  0  0  0  0  0  0  0  0  0
    0.9149   -6.8911    2.9119 C   0  0  0  0  0  0  0  0  0  0  0  0
    1.8217   -5.7648    2.6270 C   0  0  0  0  0  0  0  0  0  0  0  0
    1.1313   -4.5590    2.1955 C   0  0  0  0  0  0  0  0  0  0  0  0
   -0.2047   -4.6620    1.6662 C   0  0  0  0  0  0  0  0  0  0  0  0
   -0.9104   -5.6841    1.7345 C   0  0  0  0  0  0  0  0  0  0  0  0
   -0.4672   -6.8139    2.4591 C   0  0  0  0  0  0  0  0  0  0  0  0
   -1.2438   -7.8605    2.5175 O   0  0  0  0  0  0  0  0  0  0  0  0
  1  2  1  0
  2  3  2  3
  3  4  1  0
  3  5  1  0
  5  6  1  0
  6  7  1  0
  8  9  1  0
  6 11  1  0
 10 11  1  0
 11 12  1  6
  1 13  1  0
 13 14  1  0
 15 16  1  0
 13 18  1  0
 17 18  1  0
 18 19  2  0
  7  8  1  0
  9 10  1  0
 14 15  1  0
 16 17  1  0
M  END

$$$$
No_2552-/export/home/yangzhenyu/potential_scad_32_flow//YTHDC2/2024-12-06-03-22-00/
     RDKit          3D

 21 22  0  0  1  0  0  0  0  0999 V2000
    1.1787   -8.0297    3.5154 C   0  0  0  0  0  0  0  0  0  0  0  0
    1.0491   -6.8434    2.9820 Cl  0  0  0  0  0  0  0  0  0  0  0  0
    2.1643   -8.9961    3.0118 C   0  0  0  0  0  0  0  0  0  0  0  0
    2.0542  -10.3454    3.7325 C   0  0  0  0  0  0  0  0  0  0  0  0
    1.0539  -10.6340    4.5979 C   0  0  0  0  0  0  0  0  0  0  0  0
   -0.0044   -9.7649    4.6652 C   0  0  0  0  0  0  0  0  0  0  0  0
   -0.0119   -8.5383    4.1066 C   0  0  0  0  0  0  0  0  0  0  0  0
   -1.0182   -7.7174    4.3477 N   0  0  0  0  0  0  0  0  0  0  0  0
    3.2086  -11.1661    3.5657 C   0  0  0  0  0  0  0  0  0  0  0  0
    3.2611  -12.1072    4.6868 N   0  0  0  0  0  0  0  0  0  0  0  0
   -2.1419   -8.2293    4.9275 C   0  0  0  0  0  0  0  0  0  0  0  0
   -3.3405   -7.9666    4.3207 C   0  0  1  0  0  0  0  0  0  0  0  0
   -3.5231   -7.5416    3.3063 C   0  0  0  0  0  0  0  0  0  0  0  0
   -3.3697   -8.1801    2.2132 C   0  0  0  0  0  0  0  0  0  0  0  0
   -2.8315   -7.6687    1.0085 C   0  0  0  0  0  0  0  0  0  0  0  0
   -2.8665   -6.3547    0.8936 C   0  0  0  0  0  0  0  0  0  0  0  0
   -3.1213   -5.4793    1.9279 C   0  0  0  0  0  0  0  0  0  0  0  0
   -3.4809   -5.9903    3.1439 C   0  0  0  0  0  0  0  0  0  0  0  0
   -3.6318   -5.1229    4.2268 C   0  0  0  0  0  0  0  0  0  0  0  0
   -4.4433   -8.4625    5.1037 C   0  0  0  0  0  0  0  0  0  0  0  0
   -5.4830   -8.9613    4.5268 C   0  0  0  0  0  0  0  0  0  0  0  0
  1  2  1  0
  4  9  1  0
  9 10  1  0
  8 11  1  0
 12 11  1  6
 12 13  1  0
 18 19  1  0
 12 20  1  0
 20 21  2  0
  7  8  1  0
 13 14  2  0
 14 15  1  0
 15 16  2  0
 16 17  1  0
 17 18  2  0
 13 18  1  0
  1  3  2  0
  3  4  1  0
  4  5  2  0
  5  6  1  0
  6  7  2  0
  1  7  1  0
M  END

$$$$
No_2553-/export/home/yangzhenyu/potential_scad_32_flow//YTHDC2/2024-12-06-03-22-00/
     RDKit          3D

 17 18  0  0  0  0  0  0  0  0999 V2000
    1.1787   -8.0297    3.5154 C   0  0  0  0  0  0  0  0  0  0  0  0
    1.0491   -6.8434    2.9820 C   0  0  0  0  0  0  0  0  0  0  0  0
    0.0950   -8.8404    3.2292 N   0  0  0  0  0  0  0  0  0  0  0  0
    1.1585   -5.6295    3.6597 C   0  0  0  0  0  0  0  0  0  0  0  0
    0.1915  -10.0365    3.7532 C   0  0  0  0  0  0  0  0  0  0  0  0
    1.3765  -10.5715    4.3102 C   0  0  0  0  0  0  0  0  0  0  0  0
    1.4600  -12.0250    4.3111 C   0  0  0  0  0  0  0  0  0  0  0  0
    0.3841  -12.7033    3.7655 C   0  0  0  0  0  0  0  0  0  0  0  0
   -0.6979  -12.2375    3.3188 C   0  0  0  0  0  0  0  0  0  0  0  0
   -0.8364  -10.8264    3.3414 C   0  0  0  0  0  0  0  0  0  0  0  0
    0.9534   -4.4183    3.0241 C   0  0  0  0  0  0  0  0  0  0  0  0
    0.9637   -4.4133    1.6021 C   0  0  0  0  0  0  0  0  0  0  0  0
    0.8869   -5.5539    0.9081 C   0  0  0  0  0  0  0  0  0  0  0  0
    0.9809   -6.7811    1.5555 C   0  0  0  0  0  0  0  0  0  0  0  0
    1.0468   -7.8505    0.8080 N   0  0  0  0  0  0  0  0  0  0  0  0
    0.6024   -8.2618   -0.2283 C   0  0  0  0  0  0  0  0  0  0  0  0
   -0.6044   -7.8106   -0.6096 O   0  0  0  0  0  0  0  0  0  0  0  0
  1  2  1  0
  1  3  1  0
  3  5  1  0
 14 15  1  0
 15 16  1  0
 16 17  2  0
  2  4  2  0
  4 11  1  0
 11 12  2  0
 12 13  1  0
 13 14  2  0
  2 14  1  0
  5  6  2  0
  6  7  1  0
  7  8  2  0
  8  9  1  0
  9 10  2  0
  5 10  1  0
M  END

$$$$
No_2554-/export/home/yangzhenyu/potential_scad_32_flow//YTHDC2/2024-12-06-03-22-00/
     RDKit          3D

 20 21  0  0  0  0  0  0  0  0999 V2000
    1.1787   -8.0297    3.5154 C   0  0  0  0  0  0  0  0  0  0  0  0
    1.0491   -6.8434    2.9820 C   0  0  0  0  0  0  0  0  0  0  0  0
    0.9905   -9.0774    2.6527 C   0  0  0  0  0  0  0  0  0  0  0  0
    0.7897   -8.9519    1.3691 C   0  0  0  0  0  0  0  0  0  0  0  0
    0.7018   -7.7198    0.7892 C   0  0  0  0  0  0  0  0  0  0  0  0
    0.8918   -6.5957    1.6117 C   0  0  0  0  0  0  0  0  0  0  0  0
    1.0998  -10.4710    3.2437 C   0  0  0  0  0  0  0  0  0  0  0  0
    0.0472  -11.2546    3.3963 C   0  0  0  0  0  0  0  0  0  0  0  0
    0.1622  -12.5732    3.4140 O   0  0  0  0  0  0  0  0  0  0  0  0
   -1.1483  -10.7143    3.7410 O   0  0  0  0  0  0  0  0  0  0  0  0
    0.8575   -5.2949    1.1553 C   0  0  0  0  0  0  0  0  0  0  0  0
   -0.2198   -4.7604    0.6981 C   0  0  0  0  0  0  0  0  0  0  0  0
   -0.6813   -3.8640    0.8914 C   0  0  0  0  0  0  0  0  0  0  0  0
   -1.8315   -3.2807    0.4254 C   0  0  0  0  0  0  0  0  0  0  0  0
   -2.3463   -4.0480   -0.6060 C   0  0  0  0  0  0  0  0  0  0  0  0
   -1.9503   -5.2101   -0.9514 C   0  0  0  0  0  0  0  0  0  0  0  0
   -0.8442   -5.7039   -0.3345 C   0  0  0  0  0  0  0  0  0  0  0  0
    2.3494  -10.9767    3.5291 O   0  0  0  0  0  0  0  0  0  0  0  0
   -2.6844   -5.9645   -1.8935 O   0  0  0  0  0  0  0  0  0  0  0  0
   -2.7627   -7.2530   -1.8550 C   0  0  0  0  0  0  0  0  0  0  0  0
  3  7  1  0
  7  8  1  0
  8  9  1  0
  8 10  2  0
  6 11  1  0
  7 18  2  0
 16 19  1  0
 19 20  1  0
 11 12  1  0
 12 13  2  0
 13 14  1  0
 14 15  2  0
 15 16  1  0
 16 17  2  0
 12 17  1  0
  1  2  2  0
  2  6  1  0
  5  6  2  0
  4  5  1  0
  3  4  2  0
  1  3  1  0
M  END

$$$$
No_2555-/export/home/yangzhenyu/potential_scad_32_flow//YTHDC2/2024-12-06-03-22-00/
     RDKit          3D

 19 21  0  0  0  0  0  0  0  0999 V2000
    1.1787   -8.0297    3.5154 C   0  0  0  0  0  0  0  0  0  0  0  0
    1.0491   -6.8434    2.9820 C   0  0  0  0  0  0  0  0  0  0  0  0
    0.2462   -8.9560    3.0873 C   0  0  0  0  0  0  0  0  0  0  0  0
    0.3295   -6.5187    1.9069 C   0  0  0  0  0  0  0  0  0  0  0  0
    0.3283  -10.2725    3.7058 C   0  0  0  0  0  0  0  0  0  0  0  0
   -0.4404   -7.4628    1.4400 C   0  0  0  0  0  0  0  0  0  0  0  0
   -0.4655   -8.7076    1.9376 C   0  0  0  0  0  0  0  0  0  0  0  0
    0.2262  -11.4685    3.0231 C   0  0  0  0  0  0  0  0  0  0  0  0
    1.2924  -12.3870    3.2173 N   0  0  0  0  0  0  0  0  0  0  0  0
    1.2644  -13.5362    2.6787 C   0  0  0  0  0  0  0  0  0  0  0  0
    0.3131  -14.1008    2.1670 C   0  0  0  0  0  0  0  0  0  0  0  0
    0.4787  -15.6016    1.7760 C   0  0  0  0  0  0  0  0  0  0  0  0
   -0.5204  -16.1496    1.2555 C   0  0  0  0  0  0  0  0  0  0  0  0
   -1.5844  -15.5803    0.7596 C   0  0  0  0  0  0  0  0  0  0  0  0
   -1.7246  -14.1899    0.9911 C   0  0  0  0  0  0  0  0  0  0  0  0
   -0.7385  -13.4862    1.6297 C   0  0  0  0  0  0  0  0  0  0  0  0
   -0.8453  -12.0397    2.2741 C   0  0  0  0  0  0  0  0  0  0  0  0
    0.4746   -5.2290    1.3094 Cl  0  0  0  0  0  0  0  0  0  0  0  0
    0.0355  -10.3222    5.0424 O   0  0  0  0  0  0  0  0  0  0  0  0
  3  5  1  0
  5  8  1  0
  4 18  1  0
  5 19  2  0
 11 12  1  0
 12 13  2  0
 13 14  1  0
 14 15  2  0
 15 16  1  0
  1  2  2  0
  2  4  1  0
  4  6  2  0
  6  7  1  0
  3  7  2  0
  1  3  1  0
  8  9  2  0
  9 10  1  0
 10 11  2  0
 11 16  1  0
 16 17  2  0
  8 17  1  0
M  END

$$$$
No_2556-/export/home/yangzhenyu/potential_scad_32_flow//YTHDC2/2024-12-06-03-22-00/
     RDKit          3D

 18 19  0  0  0  0  0  0  0  0999 V2000
    1.1787   -8.0297    3.5154 C   0  0  0  0  0  0  0  0  0  0  0  0
    1.0491   -6.8434    2.9820 C   0  0  0  0  0  0  0  0  0  0  0  0
    0.9905   -9.0774    2.6527 C   0  0  0  0  0  0  0  0  0  0  0  0
    0.7897   -8.9519    1.3691 C   0  0  0  0  0  0  0  0  0  0  0  0
    0.7018   -7.7198    0.7892 C   0  0  0  0  0  0  0  0  0  0  0  0
    0.8918   -6.5957    1.6117 C   0  0  0  0  0  0  0  0  0  0  0  0
    1.0998  -10.4710    3.2437 C   0  0  0  0  0  0  0  0  0  0  0  0
    0.0472  -11.2546    3.3963 C   0  0  0  0  0  0  0  0  0  0  0  0
    0.1622  -12.5732    3.4140 C   0  0  0  0  0  0  0  0  0  0  0  0
    1.4182  -13.1957    3.4048 C   0  0  0  0  0  0  0  0  0  0  0  0
    2.5550  -12.3947    3.0877 C   0  0  0  0  0  0  0  0  0  0  0  0
    2.4166  -11.0849    2.9699 C   0  0  0  0  0  0  0  0  0  0  0  0
    0.8571   -5.2495    1.2086 O   0  0  0  0  0  0  0  0  0  0  0  0
    1.4152  -14.5596    3.3708 O   0  0  0  0  0  0  0  0  0  0  0  0
    0.4376  -15.3815    3.0013 C   0  0  0  0  0  0  0  0  0  0  0  0
    0.1726  -15.3844    1.7687 C   0  0  0  0  0  0  0  0  0  0  0  0
    1.1329  -15.4561    0.8475 C   0  0  0  0  0  0  0  0  0  0  0  0
    0.8187  -15.1948   -0.4594 C   0  0  0  0  0  0  0  0  0  0  0  0
  1  2  1  0
  3  4  1  0
  2  6  1  0
  5  6  1  0
  3  7  1  0
  6 13  2  0
 10 14  1  0
 14 15  1  0
 15 16  1  0
 16 17  1  0
 17 18  2  0
  1  3  1  0
  4  5  1  0
  7  8  2  0
  8  9  1  0
  9 10  2  0
 10 11  1  0
 11 12  2  0
  7 12  1  0
M  END

$$$$
No_2557-/export/home/yangzhenyu/potential_scad_32_flow//YTHDC2/2024-12-06-03-22-00/
     RDKit          3D

 19 20  0  0  1  0  0  0  0  0999 V2000
    1.1787   -8.0297    3.5154 C   0  0  0  0  0  0  0  0  0  0  0  0
    1.1048   -9.2215    3.2892 C   0  0  0  0  0  0  0  0  0  0  0  0
    1.3627  -10.1721    4.3044 C   0  0  0  0  0  0  0  0  0  0  0  0
    1.0682  -11.5187    4.0618 C   0  0  0  0  0  0  0  0  0  0  0  0
    0.6332  -11.9655    2.9682 C   0  0  0  0  0  0  0  0  0  0  0  0
    0.4776  -11.1308    1.9203 C   0  0  0  0  0  0  0  0  0  0  0  0
    0.7470   -9.8274    2.0368 C   0  0  0  0  0  0  0  0  0  0  0  0
    1.0387   -7.0301    2.5175 C   0  0  2  0  0  0  0  0  0  0  0  0
    0.9130   -7.5288    1.2013 C   0  0  0  0  0  0  0  0  0  0  0  0
    0.7893   -8.7979    0.9542 C   0  0  2  0  0  0  0  0  0  0  0  0
    0.5241   -9.2578   -0.2817 C   0  0  0  0  0  0  0  0  0  0  0  0
   -0.1121   -8.6523   -1.0898 O   0  0  0  0  0  0  0  0  0  0  0  0
    0.4916  -13.3676    2.6814 O   0  0  0  0  0  0  0  0  0  0  0  0
    1.4492  -14.2788    2.9739 C   0  0  0  0  0  0  0  0  0  0  0  0
    0.5781  -10.4905   -0.6697 O   0  0  0  0  0  0  0  0  0  0  0  0
    1.3028   -5.6038    2.7135 C   0  0  0  0  0  0  0  0  0  0  0  0
    0.8133   -6.6749    0.2904 O   0  0  0  0  0  0  0  0  0  0  0  0
    2.2165  -14.8253    1.8345 C   0  0  0  0  0  0  0  0  0  0  0  0
    2.3224  -13.8447    0.9110 O   0  0  0  0  0  0  0  0  0  0  0  0
  1  2  1  0
  8  9  1  0
  7 10  1  0
  9 10  1  0
 10 11  1  1
 11 12  2  0
  5 13  1  0
 13 14  1  0
 11 15  1  0
  8 16  1  6
  9 17  2  0
 14 18  1  0
 18 19  1  0
  1  8  1  0
  2  3  2  0
  3  4  1  0
  4  5  2  0
  5  6  1  0
  6  7  2  0
  2  7  1  0
M  END

$$$$
No_2558-/export/home/yangzhenyu/potential_scad_32_flow//YTHDC2/2024-12-06-03-22-00/
     RDKit          3D

 14 14  0  0  0  0  0  0  0  0999 V2000
    1.1787   -8.0297    3.5154 C   0  0  0  0  0  0  0  0  0  0  0  0
    1.1048   -9.2215    3.2892 C   0  0  0  0  0  0  0  0  0  0  0  0
    1.3627  -10.1721    4.3044 C   0  0  0  0  0  0  0  0  0  0  0  0
    1.7354  -11.4730    3.9023 C   0  0  0  0  0  0  0  0  0  0  0  0
    1.8080  -11.8127    2.7216 C   0  0  0  0  0  0  0  0  0  0  0  0
    1.5854  -11.0021    1.7249 C   0  0  0  0  0  0  0  0  0  0  0  0
    1.3573   -9.7389    1.9287 C   0  0  0  0  0  0  0  0  0  0  0  0
    1.1102   -8.8712    0.9017 C   0  0  0  0  0  0  0  0  0  0  0  0
    1.5724   -9.1697   -0.3048 C   0  0  0  0  0  0  0  0  0  0  0  0
    1.2378   -8.2159   -1.4226 O   0  0  0  0  0  0  0  0  0  0  0  0
    2.0610  -13.2069    2.3284 Cl  0  0  0  0  0  0  0  0  0  0  0  0
    2.2749   -7.2043    3.5692 O   0  0  0  0  0  0  0  0  0  0  0  0
    0.0101   -7.4047    3.6110 O   0  0  0  0  0  0  0  0  0  0  0  0
    2.3673  -10.0645   -0.6393 O   0  0  0  0  0  0  0  0  0  0  0  0
  1  2  1  0
  7  8  1  0
  8  9  2  3
  9 10  1  0
  5 11  1  0
  1 12  1  0
  1 13  2  0
  9 14  1  0
  2  3  2  0
  3  4  1  0
  4  5  2  0
  5  6  1  0
  6  7  2  0
  2  7  1  0
M  END

$$$$
No_2559-/export/home/yangzhenyu/potential_scad_32_flow//YTHDC2/2024-12-06-03-22-00/
     RDKit          3D

 18 19  0  0  1  0  0  0  0  0999 V2000
    1.1787   -8.0297    3.5154 C   0  0  0  0  0  0  0  0  0  0  0  0
    1.1048   -9.2215    3.2892 C   0  0  0  0  0  0  0  0  0  0  0  0
    1.2339   -9.7611    2.0189 C   0  0  0  0  0  0  0  0  0  0  0  0
    1.1954  -11.2312    1.8661 C   0  0  0  0  0  0  0  0  0  0  0  0
    1.2996  -11.5815    0.5387 C   0  0  0  0  0  0  0  0  0  0  0  0
    1.3263   -7.1208    2.3229 C   0  0  1  0  0  0  0  0  0  0  0  0
    1.3693   -7.6408    1.0625 C   0  0  0  0  0  0  0  0  0  0  0  0
    1.4358   -8.9950    0.8622 C   0  0  0  0  0  0  0  0  0  0  0  0
    1.1800  -13.0763    0.6448 C   0  0  0  0  0  0  0  0  0  0  0  0
    1.0518  -12.1823    2.6382 C   0  0  0  0  0  0  0  0  0  0  0  0
    1.0004  -13.4591    2.5585 C   0  0  0  0  0  0  0  0  0  0  0  0
    1.0110  -13.9752    1.3225 C   0  0  0  0  0  0  0  0  0  0  0  0
    1.3325   -5.6318    2.5161 O   0  0  0  0  0  0  0  0  0  0  0  0
    1.4504   -9.3045   -0.3797 O   0  0  0  0  0  0  0  0  0  0  0  0
    0.8823  -14.3042    3.6901 C   0  0  0  0  0  0  0  0  0  0  0  0
    1.0528  -15.7597    3.3086 O   0  0  0  0  0  0  0  0  0  0  0  0
    1.6309   -6.7560    0.1209 O   0  0  0  0  0  0  0  0  0  0  0  0
    1.1010  -14.2258    4.8197 O   0  0  0  0  0  0  0  0  0  0  0  0
  1  2  1  0
  3  4  1  0
  6  7  1  0
  3  8  1  0
  7  8  1  0
  6 13  1  6
  8 14  2  0
 11 15  1  0
 15 16  2  0
  7 17  2  0
 15 18  1  0
  2  3  1  0
  1  6  1  0
  4  5  2  0
  5  9  1  0
  9 12  2  0
 11 12  1  0
 10 11  2  0
  4 10  1  0
M  END

$$$$
No_2560-/export/home/yangzhenyu/potential_scad_32_flow//YTHDC2/2024-12-06-03-22-00/
     RDKit          3D

 18 18  0  0  1  0  0  0  0  0999 V2000
    1.1787   -8.0297    3.5154 C   0  0  0  0  0  0  0  0  0  0  0  0
    1.0491   -6.8434    2.9820 C   0  0  0  0  0  0  0  0  0  0  0  0
    1.9985   -8.9840    2.8958 C   0  0  0  0  0  0  0  0  0  0  0  0
    1.9135  -10.3404    3.6266 C   0  0  1  0  0  0  0  0  0  0  0  0
    2.2847  -10.5440    4.7936 C   0  0  0  0  0  0  0  0  0  0  0  0
    0.3304   -6.7696    1.8077 C   0  0  0  0  0  0  0  0  0  0  0  0
   -0.0362   -5.5612    1.4430 O   0  0  0  0  0  0  0  0  0  0  0  0
   -0.1762   -7.7701    1.3020 O   0  0  0  0  0  0  0  0  0  0  0  0
    0.7064  -11.0927    3.2847 C   0  0  0  0  0  0  0  0  0  0  0  0
    0.9041  -12.2291    2.5919 C   0  0  1  0  0  0  0  0  0  0  0  0
    1.6749  -12.5362    1.8980 C   0  0  0  0  0  0  0  0  0  0  0  0
    1.8934  -13.9263    1.4632 C   0  0  0  0  0  0  0  0  0  0  0  0
    0.8280  -14.6357    1.8566 C   0  0  2  0  0  0  0  0  0  0  0  0
    0.1379  -13.5200    2.7063 C   0  0  0  0  0  0  0  0  0  0  0  0
   -0.4449  -10.6699    3.8032 O   0  0  0  0  0  0  0  0  0  0  0  0
    0.5272  -15.8114    1.7848 C   0  0  0  0  0  0  0  0  0  0  0  0
    0.2907  -16.6112    2.6060 C   0  0  0  0  0  0  0  0  0  0  0  0
    0.0799  -18.0641    2.4910 C   0  0  0  0  0  0  0  0  0  0  0  0
  1  2  1  0
  1  3  1  0
  3  4  1  0
  4  5  1  1
  2  6  1  0
  6  7  2  0
  6  8  1  0
  4  9  1  0
 10  9  1  1
 10 11  1  0
 11 12  2  0
 12 13  1  0
 10 14  1  0
 13 14  1  1
  9 15  2  0
 13 16  1  0
 16 17  2  3
 17 18  1  0
M  END

$$$$
No_2561-/export/home/yangzhenyu/potential_scad_32_flow//YTHDC2/2024-12-06-03-22-00/
     RDKit          3D

 19 20  0  0  1  0  0  0  0  0999 V2000
    1.1787   -8.0297    3.5154 O   0  0  0  0  0  0  0  0  0  0  0  0
    0.9969   -8.9689    3.0048 C   0  0  0  0  0  0  0  0  0  0  0  0
    1.3055  -10.1056    3.6616 C   0  0  0  0  0  0  0  0  0  0  0  0
    1.1249  -11.3503    3.0941 C   0  0  0  0  0  0  0  0  0  0  0  0
    0.8216  -11.1570    1.7342 C   0  0  0  0  0  0  0  0  0  0  0  0
    0.7571  -10.1445    1.0354 C   0  0  0  0  0  0  0  0  0  0  0  0
    0.9105   -8.9825    1.6539 C   0  0  0  0  0  0  0  0  0  0  0  0
    0.7894   -7.6759    1.1359 C   0  0  1  0  0  0  0  0  0  0  0  0
    1.6577   -6.7736    1.4306 N   0  0  0  0  0  0  0  0  0  0  0  0
    1.1676  -12.6288    3.7005 C   0  0  0  0  0  0  0  0  0  0  0  0
    1.3430  -13.7172    2.8078 O   0  0  0  0  0  0  0  0  0  0  0  0
   -0.1411   -7.4945    0.1850 F   0  0  0  0  0  0  0  0  0  0  0  0
    1.0279  -12.7486    4.8808 O   0  0  0  0  0  0  0  0  0  0  0  0
    1.2101   -5.5274    1.7208 C   0  0  0  0  0  0  0  0  0  0  0  0
    1.6628   -4.8170    2.8088 C   0  0  0  0  0  0  0  0  0  0  0  0
    0.2647   -4.8259    0.8438 C   0  0  0  0  0  0  0  0  0  0  0  0
   -0.1044   -3.5413    1.1121 C   0  0  0  0  0  0  0  0  0  0  0  0
    0.3724   -2.9130    2.2381 C   0  0  0  0  0  0  0  0  0  0  0  0
    1.2448   -3.4686    3.0774 C   0  0  0  0  0  0  0  0  0  0  0  0
  1  2  1  0
  7  8  1  0
  8  9  1  0
  4 10  1  0
 10 11  2  0
  8 12  1  6
 10 13  1  0
  9 14  1  0
  2  3  2  0
  3  4  1  0
  4  5  2  0
  5  6  1  0
  6  7  2  0
  2  7  1  0
 14 15  2  0
 15 19  1  0
 18 19  2  0
 17 18  1  0
 16 17  2  0
 14 16  1  0
M  END

$$$$
No_2562-/export/home/yangzhenyu/potential_scad_32_flow//YTHDC2/2024-12-06-03-22-00/
     RDKit          3D

 20 21  0  0  0  0  0  0  0  0999 V2000
    1.1787   -8.0297    3.5154 C   0  0  0  0  0  0  0  0  0  0  0  0
    1.1048   -9.2215    3.2892 C   0  0  0  0  0  0  0  0  0  0  0  0
    1.2339   -9.7611    2.0189 C   0  0  0  0  0  0  0  0  0  0  0  0
    1.3583   -9.0036    0.9764 C   0  0  0  0  0  0  0  0  0  0  0  0
    1.5996   -7.6362    1.1311 C   0  0  0  0  0  0  0  0  0  0  0  0
    1.4830   -7.0928    2.3626 C   0  0  0  0  0  0  0  0  0  0  0  0
    1.3121   -5.7497    2.5440 C   0  0  0  0  0  0  0  0  0  0  0  0
    1.1998  -11.2296    1.8484 C   0  0  0  0  0  0  0  0  0  0  0  0
    0.8758  -11.6194    0.5866 O   0  0  0  0  0  0  0  0  0  0  0  0
    1.0912  -12.0705    2.7481 C   0  0  0  0  0  0  0  0  0  0  0  0
    1.9552  -12.3612    3.5195 C   0  0  0  0  0  0  0  0  0  0  0  0
    0.6908   -4.9828    1.6408 O   0  0  0  0  0  0  0  0  0  0  0  0
    1.5775   -5.0980    3.7645 O   0  0  0  0  0  0  0  0  0  0  0  0
    0.1344  -13.1717    2.4819 C   0  0  0  0  0  0  0  0  0  0  0  0
   -1.0405  -12.9940    1.9785 C   0  0  0  0  0  0  0  0  0  0  0  0
   -1.8847  -13.6796    2.3533 C   0  0  0  0  0  0  0  0  0  0  0  0
   -1.7225  -14.9190    2.9905 C   0  0  0  0  0  0  0  0  0  0  0  0
   -0.2524  -15.1844    3.1533 C   0  0  0  0  0  0  0  0  0  0  0  0
    0.6714  -14.2706    3.0206 C   0  0  0  0  0  0  0  0  0  0  0  0
    1.8593  -14.5639    3.5555 C   0  0  0  0  0  0  0  0  0  0  0  0
  6  7  1  0
  3  8  1  0
  8  9  2  0
  8 10  1  0
 10 11  2  0
  7 12  2  0
  7 13  1  0
 10 14  1  0
 19 20  1  0
  1  2  2  0
  2  3  1  0
  3  4  2  0
  4  5  1  0
  5  6  2  0
  1  6  1  0
 14 15  2  0
 15 16  1  0
 16 17  2  0
 17 18  1  0
 18 19  2  0
 14 19  1  0
M  END

$$$$
No_2563-/export/home/yangzhenyu/potential_scad_32_flow//YTHDC2/2024-12-06-03-22-00/
     RDKit          3D

 18 19  0  0  0  0  0  0  0  0999 V2000
    1.1787   -8.0297    3.5154 C   0  0  0  0  0  0  0  0  0  0  0  0
    1.0491   -6.8434    2.9820 C   0  0  0  0  0  0  0  0  0  0  0  0
    0.0950   -8.8404    3.2292 C   0  0  0  0  0  0  0  0  0  0  0  0
   -0.9173   -8.4596    2.5152 C   0  0  0  0  0  0  0  0  0  0  0  0
   -1.0331   -7.2162    2.0653 C   0  0  0  0  0  0  0  0  0  0  0  0
   -0.0105   -6.3168    2.3081 C   0  0  0  0  0  0  0  0  0  0  0  0
    0.1465  -10.2446    3.6981 C   0  0  0  0  0  0  0  0  0  0  0  0
    1.2433  -10.8239    4.0166 C   0  0  0  0  0  0  0  0  0  0  0  0
    2.4912  -10.5210    3.8610 C   0  0  0  0  0  0  0  0  0  0  0  0
   -0.0801   -5.0324    1.8109 C   0  0  0  0  0  0  0  0  0  0  0  0
   -0.5795   -4.7424    0.6972 C   0  0  0  0  0  0  0  0  0  0  0  0
   -1.3046   -5.3518    0.1001 C   0  0  0  0  0  0  0  0  0  0  0  0
   -2.0888   -4.9159   -1.0513 C   0  0  0  0  0  0  0  0  0  0  0  0
   -2.7381   -5.7021   -1.9071 C   0  0  0  0  0  0  0  0  0  0  0  0
   -2.6485   -7.0790   -1.8077 C   0  0  0  0  0  0  0  0  0  0  0  0
   -1.8937   -7.6458   -0.8620 C   0  0  0  0  0  0  0  0  0  0  0  0
   -1.1349   -6.8497   -0.0198 C   0  0  0  0  0  0  0  0  0  0  0  0
    3.4493  -10.8936    4.7536 C   0  0  0  0  0  0  0  0  0  0  0  0
  3  7  1  0
  7  8  2  3
  8  9  1  0
  6 10  1  0
 10 11  1  0
  9 18  1  0
 11 12  1  0
 12 13  2  0
 13 14  1  0
 14 15  2  0
 15 16  1  0
 16 17  2  0
 12 17  1  0
  1  2  2  0
  2  6  1  0
  5  6  2  0
  4  5  1  0
  3  4  2  0
  1  3  1  0
M  END

$$$$
No_2564-/export/home/yangzhenyu/potential_scad_32_flow//YTHDC2/2024-12-06-03-22-00/
     RDKit          3D

 18 18  0  0  1  0  0  0  0  0999 V2000
    1.1787   -8.0297    3.5154 C   0  0  0  0  0  0  0  0  0  0  0  0
    1.0491   -6.8434    2.9820 C   0  0  0  0  0  0  0  0  0  0  0  0
    0.9905   -9.0774    2.6527 C   0  0  0  0  0  0  0  0  0  0  0  0
    1.1655  -10.4663    3.1286 C   0  0  2  0  0  0  0  0  0  0  0  0
    1.7409  -10.6480    4.4599 C   0  0  0  0  0  0  0  0  0  0  0  0
    0.4783   -6.4688    1.7590 C   0  0  0  0  0  0  0  0  0  0  0  0
    0.2119   -7.5787    0.9640 C   0  0  0  0  0  0  0  0  0  0  0  0
    0.4248   -8.8744    1.3136 C   0  0  0  0  0  0  0  0  0  0  0  0
    1.0420  -11.5352    2.2989 C   0  0  0  0  0  0  0  0  0  0  0  0
    0.2719  -12.5305    2.5621 C   0  0  0  0  0  0  0  0  0  0  0  0
   -1.0302  -12.3630    2.6546 C   0  0  0  0  0  0  0  0  0  0  0  0
    0.3161   -5.0116    1.2302 C   0  0  0  0  0  0  0  0  0  0  0  0
   -1.7863  -12.4275    1.8454 C   0  0  0  0  0  0  0  0  0  0  0  0
   -3.2290  -12.1375    2.0815 C   0  0  0  0  0  0  0  0  0  0  0  0
    0.8733  -13.7997    2.7170 C   0  0  0  0  0  0  0  0  0  0  0  0
   -0.2461   -4.2143    1.9403 O   0  0  0  0  0  0  0  0  0  0  0  0
    0.3727  -14.7647    3.5252 C   0  0  0  0  0  0  0  0  0  0  0  0
    1.1023  -16.1192    3.4085 C   0  0  0  0  0  0  0  0  0  0  0  0
  3  4  1  0
  4  5  1  6
  4  9  1  0
  9 10  1  0
 10 11  1  0
  6 12  1  0
 11 13  2  3
 13 14  1  0
 10 15  1  0
 12 16  1  0
 15 17  1  0
 17 18  2  0
  1  2  2  0
  2  6  1  0
  6  7  2  0
  7  8  1  0
  3  8  2  0
  1  3  1  0
M  END

$$$$
No_2565-/export/home/yangzhenyu/potential_scad_32_flow//YTHDC2/2024-12-06-03-22-00/
     RDKit          3D

 18 18  0  0  0  0  0  0  0  0999 V2000
    1.1787   -8.0297    3.5154 C   0  0  0  0  0  0  0  0  0  0  0  0
    1.1048   -9.2215    3.2892 C   0  0  0  0  0  0  0  0  0  0  0  0
    1.3627  -10.1721    4.3044 C   0  0  0  0  0  0  0  0  0  0  0  0
    1.7354  -11.4730    3.9023 C   0  0  0  0  0  0  0  0  0  0  0  0
    1.8080  -11.8127    2.7216 C   0  0  0  0  0  0  0  0  0  0  0  0
    1.5854  -11.0021    1.7249 C   0  0  0  0  0  0  0  0  0  0  0  0
    1.3573   -9.7389    1.9287 C   0  0  0  0  0  0  0  0  0  0  0  0
    1.2865   -8.8078    0.9161 C   0  0  0  0  0  0  0  0  0  0  0  0
    0.9210   -7.5140    1.1674 O   0  0  0  0  0  0  0  0  0  0  0  0
    1.5321   -9.1645   -0.3432 N   0  0  0  0  0  0  0  0  0  0  0  0
    2.1331  -13.3851    2.2873 C   0  0  0  0  0  0  0  0  0  0  0  0
    1.9802  -14.3044    3.1195 O   0  0  0  0  0  0  0  0  0  0  0  0
    2.4824  -13.5900    1.0804 O   0  0  0  0  0  0  0  0  0  0  0  0
    2.4691   -7.3285    3.6558 O   0  0  0  0  0  0  0  0  0  0  0  0
    0.1561   -7.2758    3.7414 O   0  0  0  0  0  0  0  0  0  0  0  0
    1.5629   -8.3196   -1.4573 O   0  0  0  0  0  0  0  0  0  0  0  0
    1.4788  -15.5558    2.6779 C   0  0  0  0  0  0  0  0  0  0  0  0
    2.3162  -16.4317    2.6923 C   0  0  0  0  0  0  0  0  0  0  0  0
  1  2  1  0
  7  8  1  0
  8  9  2  0
  8 10  1  0
  5 11  1  0
 11 12  1  0
 11 13  2  0
  1 14  1  0
  1 15  2  0
 10 16  2  0
 12 17  1  0
 17 18  1  0
  2  3  2  0
  3  4  1  0
  4  5  2  0
  5  6  1  0
  6  7  2  0
  2  7  1  0
M  END

$$$$
No_2566-/export/home/yangzhenyu/potential_scad_32_flow//YTHDC2/2024-12-06-03-22-00/
     RDKit          3D

 20 22  0  0  0  0  0  0  0  0999 V2000
    1.1787   -8.0297    3.5154 C   0  0  0  0  0  0  0  0  0  0  0  0
    1.1048   -9.2215    3.2892 C   0  0  0  0  0  0  0  0  0  0  0  0
    1.3627  -10.1721    4.3044 C   0  0  0  0  0  0  0  0  0  0  0  0
    1.7354  -11.4730    3.9023 C   0  0  0  0  0  0  0  0  0  0  0  0
    1.8080  -11.8127    2.7216 C   0  0  0  0  0  0  0  0  0  0  0  0
    1.5854  -11.0021    1.7249 C   0  0  0  0  0  0  0  0  0  0  0  0
    1.3573   -9.7389    1.9287 C   0  0  0  0  0  0  0  0  0  0  0  0
    1.1102   -8.8712    0.9017 C   0  0  0  0  0  0  0  0  0  0  0  0
    0.5299   -7.6926    1.0325 C   0  0  0  0  0  0  0  0  0  0  0  0
    0.7526   -7.0802    2.3301 C   0  0  0  0  0  0  0  0  0  0  0  0
    2.0528  -13.2563    2.4302 F   0  0  0  0  0  0  0  0  0  0  0  0
    0.5709   -5.7111    2.5484 C   0  0  0  0  0  0  0  0  0  0  0  0
    1.0257   -4.8375    1.6464 N   0  0  0  0  0  0  0  0  0  0  0  0
    0.6446   -3.4512    1.6355 C   0  0  0  0  0  0  0  0  0  0  0  0
    0.6250   -2.9047    0.5543 C   0  0  0  0  0  0  0  0  0  0  0  0
   -0.3266   -2.1041    0.1148 C   0  0  0  0  0  0  0  0  0  0  0  0
   -1.0468   -1.4289    1.1277 C   0  0  0  0  0  0  0  0  0  0  0  0
   -0.9133   -1.8420    2.4302 C   0  0  0  0  0  0  0  0  0  0  0  0
   -0.0803   -2.8192    2.7047 C   0  0  0  0  0  0  0  0  0  0  0  0
    1.1634   -9.3182   -0.4470 C   0  0  0  0  0  0  0  0  0  0  0  0
  5 11  1  0
 10 12  1  0
 12 13  1  0
 13 14  1  0
  8 20  1  0
  1  2  2  0
  7  8  2  0
  8  9  1  0
  9 10  2  0
  1 10  1  0
  2  3  1  0
  3  4  2  0
  4  5  1  0
  5  6  2  0
  6  7  1  0
  2  7  1  0
 14 15  2  0
 15 16  1  0
 16 17  2  0
 17 18  1  0
 18 19  2  0
 14 19  1  0
M  END

$$$$
No_2567-/export/home/yangzhenyu/potential_scad_32_flow//YTHDC2/2024-12-06-03-22-00/
     RDKit          3D

 20 21  0  0  1  0  0  0  0  0999 V2000
    1.1787   -8.0297    3.5154 C   0  0  0  0  0  0  0  0  0  0  0  0
    1.0491   -6.8434    2.9820 C   0  0  0  0  0  0  0  0  0  0  0  0
    1.9985   -8.9840    2.8958 C   0  0  1  0  0  0  0  0  0  0  0  0
    1.9135  -10.3404    3.6266 C   0  0  0  0  0  0  0  0  0  0  0  0
    1.3291  -11.3908    3.0222 C   0  0  1  0  0  0  0  0  0  0  0  0
    1.0344  -11.3281    1.7959 C   0  0  0  0  0  0  0  0  0  0  0  0
    0.5050   -6.6553    1.7492 C   0  0  0  0  0  0  0  0  0  0  0  0
    1.6364  -10.2524    0.9337 C   0  0  0  0  0  0  0  0  0  0  0  0
    1.7369   -9.0242    1.6103 C   0  0  0  0  0  0  0  0  0  0  0  0
    0.9461   -5.5965    0.9838 C   0  0  0  0  0  0  0  0  0  0  0  0
    1.2649  -12.5347    3.6888 C   0  0  0  0  0  0  0  0  0  0  0  0
    1.5056   -4.4991    1.7698 C   0  0  0  0  0  0  0  0  0  0  0  0
    1.9205   -4.6459    3.0548 C   0  0  0  0  0  0  0  0  0  0  0  0
    1.7208   -5.8090    3.6680 N   0  0  0  0  0  0  0  0  0  0  0  0
    1.1291  -13.6676    2.8333 N   0  0  0  0  0  0  0  0  0  0  0  0
    1.5259  -10.3308   -0.3034 O   0  0  0  0  0  0  0  0  0  0  0  0
    2.3221  -14.3492    2.6288 C   0  0  0  0  0  0  0  0  0  0  0  0
   -0.0440  -14.3930    2.7324 C   0  0  0  0  0  0  0  0  0  0  0  0
    2.2702  -15.6059    1.9709 C   0  0  0  0  0  0  0  0  0  0  0  0
    1.2557  -16.2514    1.7105 C   0  0  0  0  0  0  0  0  0  0  0  0
  1  2  1  0
  3  1  1  1
  3  4  1  0
  4  5  1  0
  5  6  1  0
  6  8  1  0
  3  9  1  0
  8  9  1  0
  5 11  1  6
 11 15  1  0
  8 16  2  0
 15 17  1  0
 15 18  1  0
 17 19  1  0
 19 20  2  0
  2  7  2  0
  7 10  1  0
 10 12  2  0
 12 13  1  0
 13 14  2  0
  2 14  1  0
M  END

$$$$
No_2568-/export/home/yangzhenyu/potential_scad_32_flow//YTHDC2/2024-12-06-03-22-00/
     RDKit          3D

 18 18  0  0  0  0  0  0  0  0999 V2000
    1.1787   -8.0297    3.5154 C   0  0  0  0  0  0  0  0  0  0  0  0
    1.0491   -6.8434    2.9820 C   0  0  0  0  0  0  0  0  0  0  0  0
    0.0950   -8.8404    3.2292 C   0  0  0  0  0  0  0  0  0  0  0  0
   -0.9173   -8.4596    2.5152 C   0  0  0  0  0  0  0  0  0  0  0  0
   -1.0331   -7.2162    2.0653 C   0  0  0  0  0  0  0  0  0  0  0  0
   -0.0105   -6.3168    2.3081 C   0  0  0  0  0  0  0  0  0  0  0  0
    0.0485   -4.9783    1.8782 C   0  0  0  0  0  0  0  0  0  0  0  0
   -0.4744   -4.1559    2.2381 O   0  0  0  0  0  0  0  0  0  0  0  0
    0.9176   -4.7079    0.8087 O   0  0  0  0  0  0  0  0  0  0  0  0
    0.1801  -10.2855    3.6701 N   0  0  0  0  0  0  0  0  0  0  0  0
   -0.9727  -11.0113    3.8196 C   0  0  0  0  0  0  0  0  0  0  0  0
    1.3117  -10.6914    4.5164 C   0  0  0  0  0  0  0  0  0  0  0  0
    2.3127  -11.4065    3.7280 C   0  0  0  0  0  0  0  0  0  0  0  0
    1.8624  -12.0583    2.6971 C   0  0  0  0  0  0  0  0  0  0  0  0
    1.5967  -13.5720    2.9255 C   0  0  0  0  0  0  0  0  0  0  0  0
    1.5746  -14.4252    1.9059 C   0  0  0  0  0  0  0  0  0  0  0  0
    1.3882  -13.7806    0.7176 O   0  0  0  0  0  0  0  0  0  0  0  0
    1.3457  -15.6419    2.0265 O   0  0  0  0  0  0  0  0  0  0  0  0
  6  7  1  0
  7  8  2  0
  7  9  1  0
  3 10  1  0
 10 11  1  0
 10 12  1  0
 12 13  1  0
 13 14  1  0
 14 15  1  0
 15 16  1  0
 16 17  2  0
 16 18  1  0
  1  2  2  0
  2  6  1  0
  5  6  2  0
  4  5  1  0
  3  4  2  0
  1  3  1  0
M  END

$$$$
No_2569-/export/home/yangzhenyu/potential_scad_32_flow//YTHDC2/2024-12-06-03-22-00/
     RDKit          3D

 17 18  0  0  1  0  0  0  0  0999 V2000
    1.1787   -8.0297    3.5154 C   0  0  0  0  0  0  0  0  0  0  0  0
    1.1048   -9.2215    3.2892 C   0  0  0  0  0  0  0  0  0  0  0  0
    1.2339   -9.7611    2.0189 C   0  0  0  0  0  0  0  0  0  0  0  0
    1.3583   -9.0036    0.9764 C   0  0  0  0  0  0  0  0  0  0  0  0
    1.5996   -7.6362    1.1311 C   0  0  0  0  0  0  0  0  0  0  0  0
    1.4830   -7.0928    2.3626 C   0  0  0  0  0  0  0  0  0  0  0  0
    1.5395   -5.7300    2.6182 C   0  0  0  0  0  0  0  0  0  0  0  0
    1.1775  -11.2233    1.8407 C   0  0  0  0  0  0  0  0  0  0  0  0
    1.9057  -12.1147    2.3397 C   0  0  0  0  0  0  0  0  0  0  0  0
    1.6867  -13.4551    2.0621 C   0  0  2  0  0  0  0  0  0  0  0  0
    0.7025  -13.8511    1.3021 C   0  0  0  0  0  0  0  0  0  0  0  0
   -0.1111  -12.9140    0.6527 C   0  0  0  0  0  0  0  0  0  0  0  0
    0.1535  -11.5434    0.9240 C   0  0  0  0  0  0  0  0  0  0  0  0
    1.2825   -4.8055    1.6933 Cl  0  0  0  0  0  0  0  0  0  0  0  0
    2.5129  -14.4302    2.7642 Cl  0  0  0  0  0  0  0  0  0  0  0  0
   -0.6930  -10.6713    0.3289 O   0  0  0  0  0  0  0  0  0  0  0  0
    1.8192   -5.2577    3.9342 O   0  0  0  0  0  0  0  0  0  0  0  0
  6  7  1  0
  3  8  1  0
  8  9  1  0
 10 11  1  0
  8 13  1  0
 12 13  1  0
  7 14  1  0
 10 15  1  1
 13 16  2  0
  7 17  2  0
  9 10  1  0
 11 12  1  0
  1  2  2  0
  2  3  1  0
  3  4  2  0
  4  5  1  0
  5  6  2  0
  1  6  1  0
M  END

$$$$
No_2570-/export/home/yangzhenyu/potential_scad_32_flow//YTHDC2/2024-12-06-03-22-00/
     RDKit          3D

 19 19  0  0  1  0  0  0  0  0999 V2000
    1.1787   -8.0297    3.5154 C   0  0  0  0  0  0  0  0  0  0  0  0
    1.0491   -6.8434    2.9820 C   0  0  0  0  0  0  0  0  0  0  0  0
    1.9985   -8.9840    2.8958 C   0  0  2  0  0  0  0  0  0  0  0  0
    1.7297   -9.2108    1.6335 C   0  0  0  0  0  0  0  0  0  0  0  0
    1.7343   -8.0566    0.8408 C   0  0  1  0  0  0  0  0  0  0  0  0
    1.4996   -6.5076    2.0364 C   0  0  0  0  0  0  0  0  0  0  0  0
    1.3782   -5.0711    2.0043 C   0  0  0  0  0  0  0  0  0  0  0  0
    1.6369   -7.0620    0.8778 N   0  0  0  0  0  0  0  0  0  0  0  0
    1.1396   -4.4294    3.2229 C   0  0  0  0  0  0  0  0  0  0  0  0
    2.1456   -8.6608   -0.6702 C   0  0  0  0  0  0  0  0  0  0  0  0
    2.2048   -9.9378   -1.0351 O   0  0  0  0  0  0  0  0  0  0  0  0
    2.3300   -7.9975   -1.7030 O   0  0  0  0  0  0  0  0  0  0  0  0
    0.9968   -2.8577    3.1297 C   0  0  0  0  0  0  0  0  0  0  0  0
    1.8428  -10.4045    3.5591 C   0  0  0  0  0  0  0  0  0  0  0  0
    0.9503  -11.2784    3.4062 O   0  0  0  0  0  0  0  0  0  0  0  0
    2.9045  -10.6913    4.4326 O   0  0  0  0  0  0  0  0  0  0  0  0
    0.5133   -2.4361    4.1346 C   0  0  0  0  0  0  0  0  0  0  0  0
   -0.4800   -1.5064    4.0228 C   0  0  0  0  0  0  0  0  0  0  0  0
   -0.3626   -0.9528    2.9226 C   0  0  0  0  0  0  0  0  0  0  0  0
  1  2  1  0
  1  3  1  0
  3  4  1  0
  4  5  1  0
  2  6  1  0
  6  7  2  3
  5  8  1  0
  6  8  1  0
  7  9  1  0
  5 10  1  1
 10 11  2  0
 10 12  1  0
  9 13  1  0
  3 14  1  1
 14 15  2  0
 14 16  1  0
 13 17  1  0
 17 18  1  0
 18 19  1  0
M  END

$$$$
No_2571-/export/home/yangzhenyu/potential_scad_32_flow//YTHDC2/2024-12-06-03-22-00/
     RDKit          3D

 19 20  0  0  0  0  0  0  0  0999 V2000
    1.1787   -8.0297    3.5154 C   0  0  0  0  0  0  0  0  0  0  0  0
    1.1048   -9.2215    3.2892 C   0  0  0  0  0  0  0  0  0  0  0  0
    1.2339   -9.7611    2.0189 C   0  0  0  0  0  0  0  0  0  0  0  0
    1.3583   -9.0036    0.9764 C   0  0  0  0  0  0  0  0  0  0  0  0
    1.5996   -7.6362    1.1311 C   0  0  0  0  0  0  0  0  0  0  0  0
    1.4830   -7.0928    2.3626 C   0  0  0  0  0  0  0  0  0  0  0  0
    1.1008  -11.2372    1.8542 C   0  0  0  0  0  0  0  0  0  0  0  0
    0.5178  -11.9759    2.3445 C   0  0  0  0  0  0  0  0  0  0  0  0
    0.4575  -13.3705    2.1281 C   0  0  0  0  0  0  0  0  0  0  0  0
    1.1632  -14.1013    2.0451 C   0  0  0  0  0  0  0  0  0  0  0  0
    2.4646  -13.5566    1.4445 C   0  0  0  0  0  0  0  0  0  0  0  0
    1.0647  -15.5680    1.9364 C   0  0  0  0  0  0  0  0  0  0  0  0
    0.1453  -16.1121    1.4983 C   0  0  0  0  0  0  0  0  0  0  0  0
   -0.6991  -15.6078    0.5430 C   0  0  0  0  0  0  0  0  0  0  0  0
   -1.9435  -15.3508    0.7818 C   0  0  0  0  0  0  0  0  0  0  0  0
   -2.7615  -14.7086   -0.2594 C   0  0  0  0  0  0  0  0  0  0  0  0
   -2.4638  -14.0001   -1.0640 C   0  0  0  0  0  0  0  0  0  0  0  0
   -0.9446  -14.1265   -1.4471 C   0  0  0  0  0  0  0  0  0  0  0  0
   -0.1045  -14.8506   -0.6038 C   0  0  0  0  0  0  0  0  0  0  0  0
  3  7  1  0
  7  8  2  3
  8  9  1  0
  9 10  2  3
 10 11  1  0
 10 12  1  0
 12 13  2  3
 13 14  1  0
  1  2  2  0
  2  3  1  0
  3  4  2  0
  4  5  1  0
  5  6  2  0
  1  6  1  0
 14 15  2  0
 15 16  1  0
 16 17  2  0
 17 18  1  0
 18 19  2  0
 14 19  1  0
M  END

$$$$
No_2572-/export/home/yangzhenyu/potential_scad_32_flow//YTHDC2/2024-12-06-03-22-00/
     RDKit          3D

 17 17  0  0  1  0  0  0  0  0999 V2000
    1.1787   -8.0297    3.5154 C   0  0  0  0  0  0  0  0  0  0  0  0
    1.0491   -6.8434    2.9820 C   0  0  0  0  0  0  0  0  0  0  0  0
    0.9905   -9.0774    2.6527 C   0  0  0  0  0  0  0  0  0  0  0  0
    0.7897   -8.9519    1.3691 C   0  0  0  0  0  0  0  0  0  0  0  0
    0.7018   -7.7198    0.7892 C   0  0  0  0  0  0  0  0  0  0  0  0
    0.8918   -6.5957    1.6117 C   0  0  0  0  0  0  0  0  0  0  0  0
    1.0711  -10.4814    3.2282 C   0  0  0  0  0  0  0  0  0  0  0  0
    1.1227  -11.5770    2.4616 C   0  0  0  0  0  0  0  0  0  0  0  0
    1.1500  -12.9052    3.0782 C   0  0  0  0  0  0  0  0  0  0  0  0
    0.6701  -13.9897    2.4998 C   0  0  0  0  0  0  0  0  0  0  0  0
   -0.3775  -14.0361    1.8374 C   0  0  0  0  0  0  0  0  0  0  0  0
    1.5077  -15.2333    2.6455 C   0  0  1  0  0  0  0  0  0  0  0  0
    0.8409   -5.2759    1.1573 O   0  0  0  0  0  0  0  0  0  0  0  0
    2.8286  -15.2160    2.8932 C   0  0  0  0  0  0  0  0  0  0  0  0
   -1.6004  -13.9091    2.4850 O   0  0  0  0  0  0  0  0  0  0  0  0
    0.8314  -16.3865    2.6353 C   0  0  0  0  0  0  0  0  0  0  0  0
    3.4112  -16.4747    2.6132 O   0  0  0  0  0  0  0  0  0  0  0  0
  3  7  1  0
  7  8  2  3
  8  9  1  0
  9 10  1  0
 10 11  1  0
 10 12  1  0
  6 13  1  0
 12 14  1  0
 11 15  1  0
 12 16  1  1
 14 17  2  0
  1  2  2  0
  2  6  1  0
  5  6  2  0
  4  5  1  0
  3  4  2  0
  1  3  1  0
M  END

$$$$
No_2573-/export/home/yangzhenyu/potential_scad_32_flow//YTHDC2/2024-12-06-03-22-00/
     RDKit          3D

 19 21  0  0  0  0  0  0  0  0999 V2000
    1.1787   -8.0297    3.5154 C   0  0  0  0  0  0  0  0  0  0  0  0
    1.0491   -6.8434    2.9820 C   0  0  0  0  0  0  0  0  0  0  0  0
    0.9905   -9.0774    2.6527 C   0  0  0  0  0  0  0  0  0  0  0  0
    0.7897   -8.9519    1.3691 C   0  0  0  0  0  0  0  0  0  0  0  0
    0.7018   -7.7198    0.7892 C   0  0  0  0  0  0  0  0  0  0  0  0
    0.8918   -6.5957    1.6117 C   0  0  0  0  0  0  0  0  0  0  0  0
    1.0711  -10.4814    3.2282 C   0  0  0  0  0  0  0  0  0  0  0  0
   -0.1055  -11.1328    3.5223 C   0  0  0  0  0  0  0  0  0  0  0  0
   -0.7419  -11.5628    2.6150 C   0  0  0  0  0  0  0  0  0  0  0  0
   -0.0343  -12.3427    1.6572 C   0  0  0  0  0  0  0  0  0  0  0  0
    1.3771  -11.8881    1.4256 C   0  0  0  0  0  0  0  0  0  0  0  0
    1.8959  -10.9980    2.2490 C   0  0  0  0  0  0  0  0  0  0  0  0
   -0.5745  -13.1179    0.7280 C   0  0  0  0  0  0  0  0  0  0  0  0
   -0.1308  -14.3643    0.5653 C   0  0  0  0  0  0  0  0  0  0  0  0
   -0.7378  -15.1225   -0.4763 C   0  0  0  0  0  0  0  0  0  0  0  0
   -1.6241  -14.5828   -1.3365 C   0  0  0  0  0  0  0  0  0  0  0  0
   -1.9524  -13.3023   -1.3222 C   0  0  0  0  0  0  0  0  0  0  0  0
   -1.4553  -12.5198   -0.2829 C   0  0  0  0  0  0  0  0  0  0  0  0
    0.8883   -5.2662    1.1185 O   0  0  0  0  0  0  0  0  0  0  0  0
  3  7  1  0
 10 13  1  0
  6 19  1  0
 13 14  2  0
 14 15  1  0
 15 16  2  0
 16 17  1  0
 17 18  2  0
 13 18  1  0
  1  2  2  0
  2  6  1  0
  5  6  2  0
  4  5  1  0
  3  4  2  0
  1  3  1  0
  7  8  2  0
  8  9  1  0
  9 10  2  0
 10 11  1  0
 11 12  2  0
  7 12  1  0
M  END

$$$$
No_2574-/export/home/yangzhenyu/potential_scad_32_flow//YTHDC2/2024-12-06-03-22-00/
     RDKit          3D

 18 19  0  0  0  0  0  0  0  0999 V2000
    1.1787   -8.0297    3.5154 N   0  0  0  0  0  0  0  0  0  0  0  0
    1.0818   -9.0751    3.2053 C   0  0  0  0  0  0  0  0  0  0  0  0
    1.5216  -10.1164    3.9747 N   0  0  0  0  0  0  0  0  0  0  0  0
    1.4699  -11.3711    3.6561 C   0  0  0  0  0  0  0  0  0  0  0  0
    0.7756  -11.7642    2.6155 I   0  0  0  0  0  0  0  0  0  0  0  0
    0.9389   -6.9753    2.5561 C   0  0  0  0  0  0  0  0  0  0  0  0
    0.7565   -7.5423    1.3218 C   0  0  0  0  0  0  0  0  0  0  0  0
    0.6416   -8.7978    1.0972 C   0  0  0  0  0  0  0  0  0  0  0  0
    0.8824   -9.4549    1.9106 C   0  0  0  0  0  0  0  0  0  0  0  0
    0.4528   -9.1149   -0.2663 C   0  0  0  0  0  0  0  0  0  0  0  0
   -0.4976   -8.8970   -0.8318 O   0  0  0  0  0  0  0  0  0  0  0  0
    1.4194   -9.7206   -0.9168 O   0  0  0  0  0  0  0  0  0  0  0  0
    1.0468   -5.5976    3.0835 C   0  0  0  0  0  0  0  0  0  0  0  0
    1.8287   -5.3175    4.0911 C   0  0  0  0  0  0  0  0  0  0  0  0
    0.4412   -4.6354    2.3132 C   0  0  0  0  0  0  0  0  0  0  0  0
    0.5531   -3.3153    2.8625 C   0  0  0  0  0  0  0  0  0  0  0  0
    1.4237   -3.0412    3.8626 C   0  0  0  0  0  0  0  0  0  0  0  0
    1.9565   -4.0558    4.5303 N   0  0  0  0  0  0  0  0  0  0  0  0
  2  3  1  0
  3  4  2  3
  4  5  1  0
  8 10  1  0
 10 11  2  0
 10 12  1  0
  6 13  1  0
  1  2  2  0
  2  9  1  0
  8  9  2  0
  7  8  1  0
  6  7  2  0
  1  6  1  0
 13 14  2  0
 14 18  1  0
 17 18  2  0
 16 17  1  0
 15 16  2  0
 13 15  1  0
M  END

$$$$
No_2575-/export/home/yangzhenyu/potential_scad_32_flow//YTHDC2/2024-12-06-03-22-00/
     RDKit          3D

 19 20  0  0  1  0  0  0  0  0999 V2000
    1.1787   -8.0297    3.5154 C   0  0  0  0  0  0  0  0  0  0  0  0
    1.1048   -9.2215    3.2892 C   0  0  0  0  0  0  0  0  0  0  0  0
    1.2339   -9.7611    2.0189 C   0  0  0  0  0  0  0  0  0  0  0  0
    1.3583   -9.0036    0.9764 C   0  0  0  0  0  0  0  0  0  0  0  0
    1.5996   -7.6362    1.1311 C   0  0  0  0  0  0  0  0  0  0  0  0
    1.4830   -7.0928    2.3626 C   0  0  0  0  0  0  0  0  0  0  0  0
    1.1008  -11.2372    1.8542 C   0  0  1  0  0  0  0  0  0  0  0  0
    0.4812  -11.6084    0.6459 C   0  0  0  0  0  0  0  0  0  0  0  0
   -0.3691  -10.9312    0.0124 C   0  0  0  0  0  0  0  0  0  0  0  0
   -0.9284   -9.6856    0.5810 C   0  0  0  0  0  0  0  0  0  0  0  0
   -1.4676   -9.5790    1.5894 C   0  0  0  0  0  0  0  0  0  0  0  0
   -2.3307   -8.3987    1.8429 C   0  0  0  0  0  0  0  0  0  0  0  0
   -2.7703   -7.9321    2.9451 C   0  0  0  0  0  0  0  0  0  0  0  0
   -3.3425   -6.6223    3.1306 C   0  0  0  0  0  0  0  0  0  0  0  0
   -3.3459   -5.8559    2.0942 C   0  0  0  0  0  0  0  0  0  0  0  0
   -2.8535   -6.1720    0.8706 C   0  0  0  0  0  0  0  0  0  0  0  0
   -2.2504   -7.4405    0.6935 C   0  0  0  0  0  0  0  0  0  0  0  0
    1.5040   -5.4631    2.6944 O   0  0  0  0  0  0  0  0  0  0  0  0
    2.3686  -11.9305    2.1612 C   0  0  0  0  0  0  0  0  0  0  0  0
  3  7  1  0
  7  8  1  0
  8  9  2  3
  9 10  1  0
 10 11  2  3
 11 12  1  0
  6 18  1  0
  7 19  1  6
 12 13  2  0
 13 14  1  0
 14 15  2  0
 15 16  1  0
 16 17  2  0
 12 17  1  0
  1  2  2  0
  2  3  1  0
  3  4  2  0
  4  5  1  0
  5  6  2  0
  1  6  1  0
M  END

$$$$
No_2576-/export/home/yangzhenyu/potential_scad_32_flow//YTHDC2/2024-12-06-03-22-00/
     RDKit          3D

 18 19  0  0  0  0  0  0  0  0999 V2000
    1.1787   -8.0297    3.5154 O   0  0  0  0  0  0  0  0  0  0  0  0
    0.6747   -7.4019    2.7838 C   0  0  0  0  0  0  0  0  0  0  0  0
    0.5570   -6.0797    2.8560 C   0  0  0  0  0  0  0  0  0  0  0  0
    1.1189   -5.2588    2.0517 C   0  0  0  0  0  0  0  0  0  0  0  0
    1.6070   -5.7863    0.8484 C   0  0  0  0  0  0  0  0  0  0  0  0
    0.3731   -7.8947    1.6072 C   0  0  0  0  0  0  0  0  0  0  0  0
    1.3060   -7.1825    0.5917 C   0  0  0  0  0  0  0  0  0  0  0  0
    0.5993   -9.4302    1.5481 C   0  0  0  0  0  0  0  0  0  0  0  0
    1.4386  -10.0300    1.5190 C   0  0  0  0  0  0  0  0  0  0  0  0
    1.6490  -11.2256    1.6343 C   0  0  0  0  0  0  0  0  0  0  0  0
    0.6235  -12.0276    1.4273 C   0  0  0  0  0  0  0  0  0  0  0  0
   -0.6106  -11.5717    1.2955 C   0  0  0  0  0  0  0  0  0  0  0  0
   -0.6540  -10.1278    1.3353 C   0  0  0  0  0  0  0  0  0  0  0  0
    0.6755  -13.4588    1.4915 C   0  0  0  0  0  0  0  0  0  0  0  0
    1.8677  -14.0775    1.8474 C   0  0  0  0  0  0  0  0  0  0  0  0
    1.9603  -15.4089    2.0571 C   0  0  0  0  0  0  0  0  0  0  0  0
    1.0463  -16.2093    1.9609 C   0  0  0  0  0  0  0  0  0  0  0  0
   -0.2221  -15.6998    1.6363 C   0  0  0  0  0  0  0  0  0  0  0  0
  1  2  1  0
  6  8  1  0
 11 14  1  0
 14 15  1  0
 15 16  2  3
 16 17  1  0
 17 18  2  0
  2  3  2  0
  3  4  1  0
  4  5  2  0
  5  7  1  0
  6  7  2  0
  2  6  1  0
  8  9  2  0
  9 10  1  0
 10 11  2  0
 11 12  1  0
 12 13  2  0
  8 13  1  0
M  END

$$$$
No_2577-/export/home/yangzhenyu/potential_scad_32_flow//YTHDC2/2024-12-06-03-22-00/
     RDKit          3D

 19 20  0  0  1  0  0  0  0  0999 V2000
    1.1787   -8.0297    3.5154 C   0  0  0  0  0  0  0  0  0  0  0  0
    1.1048   -9.2215    3.2892 C   0  0  0  0  0  0  0  0  0  0  0  0
    1.3627  -10.1721    4.3044 C   0  0  0  0  0  0  0  0  0  0  0  0
    1.7354  -11.4730    3.9023 C   0  0  0  0  0  0  0  0  0  0  0  0
    1.8080  -11.8127    2.7216 C   0  0  0  0  0  0  0  0  0  0  0  0
    1.5854  -11.0021    1.7249 C   0  0  0  0  0  0  0  0  0  0  0  0
    1.3573   -9.7389    1.9287 C   0  0  0  0  0  0  0  0  0  0  0  0
    1.1102   -8.8712    0.9017 C   0  0  0  0  0  0  0  0  0  0  0  0
    0.5299   -7.6926    1.0325 C   0  0  0  0  0  0  0  0  0  0  0  0
    0.7526   -7.0802    2.3301 C   0  0  0  0  0  0  0  0  0  0  0  0
    2.1001  -13.4582    2.3997 N   0  0  0  0  0  0  0  0  0  0  0  0
    0.3513   -5.7500    2.5439 C   0  0  0  0  0  0  0  0  0  0  0  0
   -0.8511   -5.3556    2.1869 C   0  0  0  0  0  0  0  0  0  0  0  0
   -1.2024   -3.9138    2.2207 C   0  0  0  0  0  0  0  0  0  0  0  0
    1.2891  -14.2303    2.1253 C   0  0  1  0  0  0  0  0  0  0  0  0
    0.0529  -13.8576    1.6704 C   0  0  0  0  0  0  0  0  0  0  0  0
    1.6491  -15.4943    2.1207 C   0  0  0  0  0  0  0  0  0  0  0  0
    0.7594  -16.4778    1.8907 N   0  0  0  0  0  0  0  0  0  0  0  0
   -0.2094  -16.2518    1.7165 H   0  0  0  0  0  0  0  0  0  0  0  0
  5 11  1  0
 10 12  1  0
 12 13  2  3
 13 14  1  0
 11 15  1  0
 15 16  1  6
 15 17  1  0
 17 18  2  0
  1  2  2  0
  7  8  2  0
  8  9  1  0
  9 10  2  0
  1 10  1  0
  2  3  1  0
  3  4  2  0
  4  5  1  0
  5  6  2  0
  6  7  1  0
  2  7  1  0
 18 19  1  0
M  END

$$$$
No_2578-/export/home/yangzhenyu/potential_scad_32_flow//YTHDC2/2024-12-06-03-22-00/
     RDKit          3D

 12 12  0  0  0  0  0  0  0  0999 V2000
    1.1787   -8.0297    3.5154 C   0  0  0  0  0  0  0  0  0  0  0  0
    1.0491   -6.8434    2.9820 C   0  0  0  0  0  0  0  0  0  0  0  0
    1.0690   -9.1150    2.7206 C   0  0  0  0  0  0  0  0  0  0  0  0
    0.9689   -6.6391    1.6260 C   0  0  0  0  0  0  0  0  0  0  0  0
    0.9670   -9.0334    1.3824 C   0  0  0  0  0  0  0  0  0  0  0  0
    0.8189   -7.7113    0.8022 C   0  0  0  0  0  0  0  0  0  0  0  0
    1.2122  -10.5176    3.2445 C   0  0  0  0  0  0  0  0  0  0  0  0
    1.4410  -11.5402    2.6236 F   0  0  0  0  0  0  0  0  0  0  0  0
    1.5948  -10.5826    4.4929 F   0  0  0  0  0  0  0  0  0  0  0  0
    0.8747   -5.3683    1.0966 C   0  0  0  0  0  0  0  0  0  0  0  0
   -0.0966  -10.8831    3.4748 F   0  0  0  0  0  0  0  0  0  0  0  0
   -0.2495   -4.9378    0.6242 F   0  0  0  0  0  0  0  0  0  0  0  0
  3  7  1  0
  7  8  1  0
  7  9  1  0
  4 10  1  0
  7 11  1  0
 10 12  1  0
  1  2  2  0
  2  4  1  0
  4  6  2  0
  5  6  1  0
  3  5  2  0
  1  3  1  0
M  END

$$$$
No_2579-/export/home/yangzhenyu/potential_scad_32_flow//YTHDC2/2024-12-06-03-22-00/
     RDKit          3D

 20 20  0  0  1  0  0  0  0  0999 V2000
    1.1787   -8.0297    3.5154 C   0  0  0  0  0  0  0  0  0  0  0  0
    1.1048   -9.2215    3.2892 C   0  0  0  0  0  0  0  0  0  0  0  0
    1.2339   -9.7611    2.0189 C   0  0  0  0  0  0  0  0  0  0  0  0
    1.3583   -9.0036    0.9764 C   0  0  0  0  0  0  0  0  0  0  0  0
    1.5996   -7.6362    1.1311 C   0  0  0  0  0  0  0  0  0  0  0  0
    1.4830   -7.0928    2.3626 C   0  0  0  0  0  0  0  0  0  0  0  0
    1.3121   -5.7497    2.5440 C   0  0  0  0  0  0  0  0  0  0  0  0
    1.2165  -11.3822    1.8530 C   0  0  0  0  0  0  0  0  0  0  0  0
    1.7698  -12.1328    2.5755 N   0  0  0  0  0  0  0  0  0  0  0  0
    1.2840  -13.3580    2.7857 C   0  0  0  0  0  0  0  0  0  0  0  0
    1.9320  -14.5312    2.5318 C   0  0  2  0  0  0  0  0  0  0  0  0
    3.0927  -14.4718    1.8325 C   0  0  0  0  0  0  0  0  0  0  0  0
    1.1570  -15.7176    2.3648 C   0  0  0  0  0  0  0  0  0  0  0  0
    0.6101  -11.7610    0.7710 O   0  0  0  0  0  0  0  0  0  0  0  0
    1.7955  -16.8531    2.1897 C   0  0  0  0  0  0  0  0  0  0  0  0
    1.3974  -17.9541    2.7136 O   0  0  0  0  0  0  0  0  0  0  0  0
    2.7266  -16.8787    1.2802 O   0  0  0  0  0  0  0  0  0  0  0  0
    0.6811   -4.9841    1.6451 O   0  0  0  0  0  0  0  0  0  0  0  0
    1.8208   -5.0844    3.5995 O   0  0  0  0  0  0  0  0  0  0  0  0
    0.1841  -13.2422    3.5763 O   0  0  0  0  0  0  0  0  0  0  0  0
  6  7  1  0
  3  8  1  0
  8  9  1  0
  9 10  1  0
 10 11  1  0
 11 12  1  6
 11 13  1  0
  8 14  2  0
 13 15  1  0
 15 16  2  0
 15 17  1  0
  7 18  2  0
  7 19  1  0
 10 20  2  0
  1  2  2  0
  2  3  1  0
  3  4  2  0
  4  5  1  0
  5  6  2  0
  1  6  1  0
M  END

$$$$
No_2580-/export/home/yangzhenyu/potential_scad_32_flow//YTHDC2/2024-12-06-03-22-00/
     RDKit          3D

 17 18  0  0  0  0  0  0  0  0999 V2000
    1.1787   -8.0297    3.5154 C   0  0  0  0  0  0  0  0  0  0  0  0
    1.1048   -9.2215    3.2892 N   0  0  0  0  0  0  0  0  0  0  0  0
    1.0346   -9.7785    2.1176 C   0  0  0  0  0  0  0  0  0  0  0  0
    1.2597   -9.0826    1.0431 C   0  0  0  0  0  0  0  0  0  0  0  0
    1.5530   -7.7656    1.0977 C   0  0  0  0  0  0  0  0  0  0  0  0
    1.5300   -7.1323    2.3379 C   0  0  0  0  0  0  0  0  0  0  0  0
    1.5865   -5.7484    2.5734 C   0  0  0  0  0  0  0  0  0  0  0  0
    0.9746  -11.2434    2.1142 C   0  0  0  0  0  0  0  0  0  0  0  0
   -0.1968  -11.7589    1.6460 C   0  0  0  0  0  0  0  0  0  0  0  0
   -0.3433  -13.1581    1.6119 C   0  0  0  0  0  0  0  0  0  0  0  0
    0.7372  -13.9810    2.0310 C   0  0  0  0  0  0  0  0  0  0  0  0
    1.8009  -13.4503    2.6478 C   0  0  0  0  0  0  0  0  0  0  0  0
    1.8852  -12.0950    2.8148 C   0  0  0  0  0  0  0  0  0  0  0  0
    0.5355  -15.4083    2.1253 C   0  0  0  0  0  0  0  0  0  0  0  0
   -0.5999  -16.0598    2.1002 C   0  0  0  0  0  0  0  0  0  0  0  0
   -0.5703  -17.4732    2.1011 C   0  0  0  0  0  0  0  0  0  0  0  0
    0.7171  -18.1208    2.3701 C   0  0  0  0  0  0  0  0  0  0  0  0
  6  7  1  0
  3  8  1  0
 11 14  1  0
 14 15  2  3
 15 16  1  0
 16 17  2  0
  1  2  2  0
  2  3  1  0
  3  4  2  0
  4  5  1  0
  5  6  2  0
  1  6  1  0
  8  9  2  0
  9 10  1  0
 10 11  2  0
 11 12  1  0
 12 13  2  0
  8 13  1  0
M  END

$$$$
No_2581-/export/home/yangzhenyu/potential_scad_32_flow//YTHDC2/2024-12-06-03-22-00/
     RDKit          3D

 18 18  0  0  1  0  0  0  0  0999 V2000
    1.1787   -8.0297    3.5154 C   0  0  0  0  0  0  0  0  0  0  0  0
    1.0491   -6.8434    2.9820 C   0  0  0  0  0  0  0  0  0  0  0  0
    0.9905   -9.0774    2.6527 C   0  0  2  0  0  0  0  0  0  0  0  0
    0.7897   -8.9519    1.3691 C   0  0  0  0  0  0  0  0  0  0  0  0
    0.7018   -7.7198    0.7892 C   0  0  0  0  0  0  0  0  0  0  0  0
    0.8918   -6.5957    1.6117 C   0  0  1  0  0  0  0  0  0  0  0  0
    0.7872  -10.5507    3.4375 C   0  0  0  0  0  0  0  0  0  0  0  0
   -0.2181  -11.2065    3.4084 O   0  0  0  0  0  0  0  0  0  0  0  0
    2.0515  -11.2853    3.5023 N   0  0  0  0  0  0  0  0  0  0  0  0
    0.8678   -5.2658    1.1701 C   0  0  0  0  0  0  0  0  0  0  0  0
    1.3492   -5.7709    3.8252 O   0  0  0  0  0  0  0  0  0  0  0  0
    0.6433  -10.0526    0.4179 C   0  0  0  0  0  0  0  0  0  0  0  0
   -0.4528  -10.3254   -0.0742 O   0  0  0  0  0  0  0  0  0  0  0  0
    1.7679  -10.7427    0.1710 O   0  0  0  0  0  0  0  0  0  0  0  0
    2.1031  -12.5453    4.0893 C   0  0  0  0  0  0  0  0  0  0  0  0
    1.7565  -13.5441    3.0140 C   0  0  0  0  0  0  0  0  0  0  0  0
    2.0952  -13.3607    1.7476 O   0  0  0  0  0  0  0  0  0  0  0  0
    1.4419  -14.7249    3.4345 O   0  0  0  0  0  0  0  0  0  0  0  0
  1  2  1  0
  3  4  1  0
  2  6  1  0
  5  6  1  0
  3  7  1  1
  7  8  2  0
  7  9  1  0
  6 10  1  1
  2 11  2  0
  4 12  1  0
 12 13  1  0
 12 14  2  0
  9 15  1  0
 15 16  1  0
 16 17  2  0
 16 18  1  0
  1  3  1  0
  4  5  1  0
M  END

$$$$
No_2582-/export/home/yangzhenyu/potential_scad_32_flow//YTHDC2/2024-12-06-03-22-00/
     RDKit          3D

 18 19  0  0  1  0  0  0  0  0999 V2000
    1.1787   -8.0297    3.5154 C   0  0  0  0  0  0  0  0  0  0  0  0
    1.1048   -9.2215    3.2892 C   0  0  0  0  0  0  0  0  0  0  0  0
    1.3627  -10.1721    4.3044 C   0  0  0  0  0  0  0  0  0  0  0  0
    1.0682  -11.5187    4.0618 C   0  0  0  0  0  0  0  0  0  0  0  0
    0.6332  -11.9655    2.9682 C   0  0  0  0  0  0  0  0  0  0  0  0
    0.4776  -11.1308    1.9203 C   0  0  0  0  0  0  0  0  0  0  0  0
    0.7470   -9.8274    2.0368 C   0  0  0  0  0  0  0  0  0  0  0  0
    1.0387   -7.0301    2.5175 C   0  0  2  0  0  0  0  0  0  0  0  0
    0.9130   -7.5288    1.2013 C   0  0  0  0  0  0  0  0  0  0  0  0
    0.7893   -8.7979    0.9542 C   0  0  2  0  0  0  0  0  0  0  0  0
    0.5241   -9.2578   -0.2817 C   0  0  0  0  0  0  0  0  0  0  0  0
   -0.7560   -9.7391   -0.6285 O   0  0  0  0  0  0  0  0  0  0  0  0
    1.3962   -9.1917   -1.2143 O   0  0  0  0  0  0  0  0  0  0  0  0
    0.5074  -13.3746    2.6907 C   0  0  0  0  0  0  0  0  0  0  0  0
    1.4601  -14.2215    3.1906 Cl  0  0  0  0  0  0  0  0  0  0  0  0
   -0.9337  -13.7192    2.8885 O   0  0  0  0  0  0  0  0  0  0  0  0
    1.3066   -5.6056    2.6995 O   0  0  0  0  0  0  0  0  0  0  0  0
    0.8715   -6.6222    0.3132 O   0  0  0  0  0  0  0  0  0  0  0  0
  1  2  1  0
  8  9  1  0
  7 10  1  0
  9 10  1  0
 10 11  1  1
 11 12  2  0
 11 13  1  0
  5 14  1  0
 14 15  1  0
 14 16  2  0
  8 17  1  6
  9 18  2  0
  1  8  1  0
  2  3  2  0
  3  4  1  0
  4  5  2  0
  5  6  1  0
  6  7  2  0
  2  7  1  0
M  END

$$$$
No_2583-/export/home/yangzhenyu/potential_scad_32_flow//YTHDC2/2024-12-06-03-22-00/
     RDKit          3D

 18 18  0  0  0  0  0  0  0  0999 V2000
    1.1787   -8.0297    3.5154 C   0  0  0  0  0  0  0  0  0  0  0  0
    1.1048   -9.2215    3.2892 C   0  0  0  0  0  0  0  0  0  0  0  0
    1.2339   -9.7611    2.0189 C   0  0  0  0  0  0  0  0  0  0  0  0
    1.3583   -9.0036    0.9764 C   0  0  0  0  0  0  0  0  0  0  0  0
    1.5996   -7.6362    1.1311 C   0  0  0  0  0  0  0  0  0  0  0  0
    1.4830   -7.0928    2.3626 C   0  0  0  0  0  0  0  0  0  0  0  0
    1.1008  -11.2372    1.8542 C   0  0  0  0  0  0  0  0  0  0  0  0
    1.9749  -12.0938    2.2342 N   0  0  0  0  0  0  0  0  0  0  0  0
    1.7767  -13.3974    1.9600 C   0  0  0  0  0  0  0  0  0  0  0  0
    1.9308  -14.3519    2.9213 C   0  0  0  0  0  0  0  0  0  0  0  0
    1.7679  -14.2400    4.0385 O   0  0  0  0  0  0  0  0  0  0  0  0
    2.7296  -15.5756    2.6660 O   0  0  0  0  0  0  0  0  0  0  0  0
   -0.1007  -11.7741    1.4540 O   0  0  0  0  0  0  0  0  0  0  0  0
    1.5775   -5.6522    2.6403 Cl  0  0  0  0  0  0  0  0  0  0  0  0
    1.5566   -9.5006   -0.3349 C   0  0  0  0  0  0  0  0  0  0  0  0
    2.6244   -9.5869   -0.8710 O   0  0  0  0  0  0  0  0  0  0  0  0
    0.4236   -9.6763   -0.9773 Cl  0  0  0  0  0  0  0  0  0  0  0  0
    0.8511  -10.1301    4.4436 O   0  0  0  0  0  0  0  0  0  0  0  0
  3  7  1  0
  7  8  1  0
  8  9  1  0
  9 10  1  0
 10 11  2  0
 10 12  1  0
  7 13  2  0
  6 14  1  0
  4 15  1  0
 15 16  2  0
 15 17  1  0
  2 18  1  0
  1  2  2  0
  2  3  1  0
  3  4  2  0
  4  5  1  0
  5  6  2  0
  1  6  1  0
M  END

$$$$
No_2584-/export/home/yangzhenyu/potential_scad_32_flow//YTHDC2/2024-12-06-03-22-00/
     RDKit          3D

 19 19  0  0  0  0  0  0  0  0999 V2000
    1.1787   -8.0297    3.5154 C   0  0  0  0  0  0  0  0  0  0  0  0
    1.1048   -9.2215    3.2892 C   0  0  0  0  0  0  0  0  0  0  0  0
    1.3627  -10.1721    4.3044 C   0  0  0  0  0  0  0  0  0  0  0  0
    1.0682  -11.5187    4.0618 C   0  0  0  0  0  0  0  0  0  0  0  0
    0.6332  -11.9655    2.9682 C   0  0  0  0  0  0  0  0  0  0  0  0
    0.4776  -11.1308    1.9203 C   0  0  0  0  0  0  0  0  0  0  0  0
    0.1540  -11.7530    0.6168 C   0  0  0  0  0  0  0  0  0  0  0  0
    0.7979   -9.8320    2.0306 C   0  0  0  0  0  0  0  0  0  0  0  0
   -1.3071  -11.9040    0.4813 N   0  0  0  0  0  0  0  0  0  0  0  0
    0.5690   -8.8738    1.0947 C   0  0  0  0  0  0  0  0  0  0  0  0
    1.7712   -8.7109    0.1863 C   0  0  0  0  0  0  0  0  0  0  0  0
    2.0871   -9.1224   -0.8973 O   0  0  0  0  0  0  0  0  0  0  0  0
    2.7334   -7.7731    0.5046 O   0  0  0  0  0  0  0  0  0  0  0  0
    0.3880  -13.3468    2.7886 C   0  0  0  0  0  0  0  0  0  0  0  0
   -0.8683  -13.8260    2.7198 O   0  0  0  0  0  0  0  0  0  0  0  0
    1.4079  -14.3226    2.8942 N   0  0  0  0  0  0  0  0  0  0  0  0
    1.3232  -15.7146    2.7755 C   0  0  0  0  0  0  0  0  0  0  0  0
    0.7533  -16.4110    3.6679 C   0  0  0  0  0  0  0  0  0  0  0  0
    0.7100  -17.8003    3.5920 C   0  0  0  0  0  0  0  0  0  0  0  0
  1  2  1  0
  6  7  1  0
  7  9  1  0
  8 10  1  0
 10 11  1  0
 11 12  1  0
 11 13  2  0
  5 14  1  0
 14 15  2  0
 14 16  1  0
 16 17  1  0
 17 18  1  0
 18 19  2  0
  2  3  2  0
  3  4  1  0
  4  5  2  0
  5  6  1  0
  6  8  2  0
  2  8  1  0
M  END

$$$$
No_2585-/export/home/yangzhenyu/potential_scad_32_flow//YTHDC2/2024-12-06-03-22-00/
     RDKit          3D

 18 19  0  0  1  0  0  0  0  0999 V2000
    1.1787   -8.0297    3.5154 C   0  0  0  0  0  0  0  0  0  0  0  0
    1.0491   -6.8434    2.9820 C   0  0  0  0  0  0  0  0  0  0  0  0
    1.9985   -8.9840    2.8958 C   0  0  2  0  0  0  0  0  0  0  0  0
    1.7297   -9.2108    1.6335 C   0  0  0  0  0  0  0  0  0  0  0  0
    1.7343   -8.0566    0.8408 C   0  0  0  0  0  0  0  0  0  0  0  0
    1.0269   -6.8892    1.4456 C   0  0  0  0  0  0  0  0  0  0  0  0
    2.4114   -7.8399   -0.2028 O   0  0  0  0  0  0  0  0  0  0  0  0
    1.9528  -10.3635    3.5860 C   0  0  2  0  0  0  0  0  0  0  0  0
    2.8874  -10.5965    4.4354 C   0  0  0  0  0  0  0  0  0  0  0  0
    1.0783  -11.2810    3.2278 C   0  0  0  0  0  0  0  0  0  0  0  0
   -0.2701  -10.9842    3.4392 C   0  0  0  0  0  0  0  0  0  0  0  0
   -0.6078  -10.3198    4.6849 C   0  0  0  0  0  0  0  0  0  0  0  0
    3.1788  -11.6832    5.1311 O   0  0  0  0  0  0  0  0  0  0  0  0
   -1.9557   -9.9843    4.8453 C   0  0  0  0  0  0  0  0  0  0  0  0
   -2.8529  -10.4699    3.8742 C   0  0  0  0  0  0  0  0  0  0  0  0
   -2.5801  -11.0729    2.8108 C   0  0  0  0  0  0  0  0  0  0  0  0
   -1.2750  -11.4741    2.6458 C   0  0  0  0  0  0  0  0  0  0  0  0
   -4.2611  -10.1119    4.1377 P   0  0  0  0  0  0  0  0  0  0  0  0
  1  2  1  0
  3  1  1  1
  3  4  1  0
  4  5  1  0
  2  6  1  0
  5  6  1  0
  5  7  2  0
  3  8  1  0
  8  9  1  0
  8 10  1  6
 10 11  1  0
  9 13  2  0
 15 18  1  0
 11 12  2  0
 12 14  1  0
 14 15  2  0
 15 16  1  0
 16 17  2  0
 11 17  1  0
M  END

$$$$
No_2586-/export/home/yangzhenyu/potential_scad_32_flow//YTHDC2/2024-12-06-03-22-00/
     RDKit          3D

 18 18  0  0  1  0  0  0  0  0999 V2000
    1.1787   -8.0297    3.5154 C   0  0  0  0  0  0  0  0  0  0  0  0
    1.0491   -6.8434    2.9820 C   0  0  0  0  0  0  0  0  0  0  0  0
    1.9985   -8.9840    2.8958 C   0  0  0  0  0  0  0  0  0  0  0  0
    1.9135  -10.3404    3.6266 C   0  0  0  0  0  0  0  0  0  0  0  0
    1.3291  -11.3908    3.0222 C   0  0  2  0  0  0  0  0  0  0  0  0
    1.2749  -12.5326    3.7562 C   0  0  0  0  0  0  0  0  0  0  0  0
    0.4248   -6.6481    1.7861 C   0  0  0  0  0  0  0  0  0  0  0  0
    0.4186   -7.4786    1.0077 C   0  0  0  0  0  0  0  0  0  0  0  0
    0.7923  -13.6634    3.1270 C   0  0  0  0  0  0  0  0  0  0  0  0
    0.4633  -13.6746    1.8523 C   0  0  0  0  0  0  0  0  0  0  0  0
    0.5910  -12.6127    1.0903 C   0  0  0  0  0  0  0  0  0  0  0  0
    1.1058  -11.4527    1.6029 C   0  0  0  0  0  0  0  0  0  0  0  0
    1.1541  -10.3506    0.7757 O   0  0  0  0  0  0  0  0  0  0  0  0
    0.0694   -5.3108    1.5221 O   0  0  0  0  0  0  0  0  0  0  0  0
    0.6906  -14.8381    3.9263 O   0  0  0  0  0  0  0  0  0  0  0  0
    2.6542  -10.3597    4.7515 O   0  0  0  0  0  0  0  0  0  0  0  0
    0.5442  -16.0803    3.3980 C   0  0  0  0  0  0  0  0  0  0  0  0
    0.8742  -16.9606    4.0316 C   0  0  0  0  0  0  0  0  0  0  0  0
  1  2  1  0
  1  3  1  0
  3  4  1  0
  5  4  1  6
  5  6  1  0
  2  7  1  0
  7  8  1  0
  9 10  1  0
  5 12  1  0
 11 12  1  0
 12 13  2  0
  7 14  2  0
  9 15  1  0
  4 16  2  0
 15 17  1  0
 17 18  1  0
  6  9  1  0
 10 11  1  0
M  END

$$$$
No_2587-/export/home/yangzhenyu/potential_scad_32_flow//YTHDC2/2024-12-06-03-22-00/
     RDKit          3D

 20 21  0  0  1  0  0  0  0  0999 V2000
    1.1787   -8.0297    3.5154 N   0  0  0  0  0  0  0  0  0  0  0  0
    1.0818   -9.0751    3.2053 C   0  0  0  0  0  0  0  0  0  0  0  0
    0.7576   -9.3725    1.9159 C   0  0  0  0  0  0  0  0  0  0  0  0
    0.8823   -8.4917    1.0547 C   0  0  0  0  0  0  0  0  0  0  0  0
    1.4631   -7.3107    1.2451 C   0  0  0  0  0  0  0  0  0  0  0  0
    1.6470   -6.9326    2.5669 C   0  0  0  0  0  0  0  0  0  0  0  0
    0.8237  -10.1305    4.2407 C   0  0  0  0  0  0  0  0  0  0  0  0
    1.7644  -11.1125    4.2479 C   0  0  0  0  0  0  0  0  0  0  0  0
    0.8218   -8.8684   -0.5112 C   0  0  0  0  0  0  0  0  0  0  0  0
   -0.5223   -9.0297   -0.7401 O   0  0  0  0  0  0  0  0  0  0  0  0
    1.6223   -8.8956   -1.2846 O   0  0  0  0  0  0  0  0  0  0  0  0
    1.6053  -12.0649    3.3286 C   0  0  1  0  0  0  0  0  0  0  0  0
    0.9400  -13.1330    3.6111 C   0  0  0  0  0  0  0  0  0  0  0  0
    0.7016  -14.0283    2.3606 C   0  0  2  0  0  0  0  0  0  0  0  0
    0.9451  -13.5262    1.2031 C   0  0  0  0  0  0  0  0  0  0  0  0
    1.6516  -12.3027    1.0144 C   0  0  0  0  0  0  0  0  0  0  0  0
    1.9299  -11.4525    2.0706 C   0  0  0  0  0  0  0  0  0  0  0  0
    0.1536  -15.1899    2.5193 C   0  0  0  0  0  0  0  0  0  0  0  0
   -1.0173  -15.5798    2.0819 N   0  0  0  0  0  0  0  0  0  0  0  0
   -1.5981  -14.9421    1.5565 H   0  0  0  0  0  0  0  0  0  0  0  0
  2  7  1  0
  7  8  1  0
  4  9  1  0
  9 10  2  0
  9 11  1  0
 12  8  1  1
 12 13  1  0
 13 14  1  0
 14 15  1  0
 15 16  1  0
 12 17  1  0
 16 17  1  0
 14 18  1  6
 18 19  2  0
  1  2  2  0
  2  3  1  0
  3  4  2  0
  4  5  1  0
  5  6  2  0
  1  6  1  0
 19 20  1  0
M  END

$$$$
No_2588-/export/home/yangzhenyu/potential_scad_32_flow//YTHDC2/2024-12-06-03-22-00/
     RDKit          3D

 19 20  0  0  1  0  0  0  0  0999 V2000
    1.1787   -8.0297    3.5154 C   0  0  0  0  0  0  0  0  0  0  0  0
    1.1048   -9.2215    3.2892 C   0  0  1  0  0  0  0  0  0  0  0  0
    1.2339   -9.7611    2.0189 C   0  0  1  0  0  0  0  0  0  0  0  0
    1.1954  -11.2312    1.8661 C   0  0  0  0  0  0  0  0  0  0  0  0
    1.5546  -12.1691    2.7931 C   0  0  0  0  0  0  0  0  0  0  0  0
    0.9527   -7.0669    2.3918 C   0  0  2  0  0  0  0  0  0  0  0  0
    1.0618   -7.6392    1.0692 C   0  0  0  0  0  0  0  0  0  0  0  0
    1.2060   -8.9530    0.8578 C   0  0  0  0  0  0  0  0  0  0  0  0
    1.5159  -13.5011    2.3738 C   0  0  0  0  0  0  0  0  0  0  0  0
    1.1409  -13.8990    1.1908 C   0  0  0  0  0  0  0  0  0  0  0  0
    0.9249  -13.0546    0.2183 C   0  0  0  0  0  0  0  0  0  0  0  0
    0.9227  -11.6707    0.5316 C   0  0  0  0  0  0  0  0  0  0  0  0
    1.0078   -5.6071    2.4628 Cl  0  0  0  0  0  0  0  0  0  0  0  0
    1.1879   -9.4187   -0.3804 O   0  0  0  0  0  0  0  0  0  0  0  0
    1.9421  -14.5232    3.6368 O   0  0  0  0  0  0  0  0  0  0  0  0
    0.7868  -15.4660    3.6599 C   0  0  0  0  0  0  0  0  0  0  0  0
    1.0960   -6.8839    0.0641 O   0  0  0  0  0  0  0  0  0  0  0  0
    1.2450  -10.0874    4.3964 O   0  0  0  0  0  0  0  0  0  0  0  0
    1.2377  -15.2633    0.9130 O   0  0  0  0  0  0  0  0  0  0  0  0
  1  2  1  0
  3  4  1  6
  6  7  1  0
  3  8  1  0
  7  8  1  0
  6 13  1  6
  8 14  2  0
  9 15  1  0
 15 16  1  0
  7 17  2  0
  2 18  1  1
 10 19  1  0
  2  3  1  0
  1  6  1  0
  4  5  2  0
  5  9  1  0
  9 10  2  0
 10 11  1  0
 11 12  2  0
  4 12  1  0
M  END

$$$$
No_2589-/export/home/yangzhenyu/potential_scad_32_flow//YTHDC2/2024-12-06-03-22-00/
     RDKit          3D

 19 20  0  0  0  0  0  0  0  0999 V2000
    1.1787   -8.0297    3.5154 C   0  0  0  0  0  0  0  0  0  0  0  0
    1.0491   -6.8434    2.9820 C   0  0  0  0  0  0  0  0  0  0  0  0
    0.0950   -8.8404    3.2292 C   0  0  0  0  0  0  0  0  0  0  0  0
   -0.9173   -8.4596    2.5152 C   0  0  0  0  0  0  0  0  0  0  0  0
   -1.0331   -7.2162    2.0653 C   0  0  0  0  0  0  0  0  0  0  0  0
   -0.0105   -6.3168    2.3081 C   0  0  0  0  0  0  0  0  0  0  0  0
    0.0485   -4.9783    1.8782 C   0  0  0  0  0  0  0  0  0  0  0  0
    0.9625   -4.1072    2.3252 C   0  0  0  0  0  0  0  0  0  0  0  0
    0.1334  -10.2884    3.6719 Cl  0  0  0  0  0  0  0  0  0  0  0  0
    1.2325   -2.7769    1.8592 C   0  0  0  0  0  0  0  0  0  0  0  0
    0.3919   -2.4459    0.8066 C   0  0  0  0  0  0  0  0  0  0  0  0
   -0.5304   -3.2048    0.2315 C   0  0  0  0  0  0  0  0  0  0  0  0
   -0.7351   -4.5066    0.7382 C   0  0  0  0  0  0  0  0  0  0  0  0
   -1.3336   -2.7957   -0.8541 C   0  0  0  0  0  0  0  0  0  0  0  0
   -1.7177   -3.6474   -1.8407 O   0  0  0  0  0  0  0  0  0  0  0  0
   -0.9618   -1.6470   -1.4333 O   0  0  0  0  0  0  0  0  0  0  0  0
   -2.6042   -3.2899   -2.7542 C   0  0  0  0  0  0  0  0  0  0  0  0
   -3.8141   -2.9366   -2.4852 C   0  0  0  0  0  0  0  0  0  0  0  0
   -4.4120   -3.5670   -1.6655 C   0  0  0  0  0  0  0  0  0  0  0  0
  6  7  1  0
  3  9  1  0
 12 14  1  0
 14 15  1  0
 14 16  2  0
 15 17  1  0
 17 18  1  0
 18 19  1  0
  1  2  2  0
  2  6  1  0
  5  6  2  0
  4  5  1  0
  3  4  2  0
  1  3  1  0
  7  8  2  0
  8 10  1  0
 10 11  2  0
 11 12  1  0
 12 13  2  0
  7 13  1  0
M  END

$$$$
No_2590-/export/home/yangzhenyu/potential_scad_32_flow//YTHDC2/2024-12-06-03-22-00/
     RDKit          3D

 17 17  0  0  1  0  0  0  0  0999 V2000
    1.1787   -8.0297    3.5154 C   0  0  0  0  0  0  0  0  0  0  0  0
    1.1048   -9.2215    3.2892 C   0  0  0  0  0  0  0  0  0  0  0  0
    1.2339   -9.7611    2.0189 C   0  0  0  0  0  0  0  0  0  0  0  0
    1.1954  -11.2312    1.8661 C   0  0  0  0  0  0  0  0  0  0  0  0
    1.2996  -11.5815    0.5387 O   0  0  0  0  0  0  0  0  0  0  0  0
    1.0827  -12.1075    2.7373 N   0  0  0  0  0  0  0  0  0  0  0  0
    0.5627   -7.0207    2.7169 C   0  0  0  0  0  0  0  0  0  0  0  0
    0.9613   -5.5873    2.7970 C   0  0  1  0  0  0  0  0  0  0  0  0
    1.0406  -13.2408    2.6877 C   0  0  0  0  0  0  0  0  0  0  0  0
   -0.1303  -14.0675    2.5094 C   0  0  0  0  0  0  0  0  0  0  0  0
   -0.1239  -15.4083    2.4346 C   0  0  0  0  0  0  0  0  0  0  0  0
    1.1332  -16.0781    2.5624 C   0  0  0  0  0  0  0  0  0  0  0  0
    2.3645  -15.3300    2.6540 C   0  0  0  0  0  0  0  0  0  0  0  0
    2.3021  -13.9919    2.7680 C   0  0  0  0  0  0  0  0  0  0  0  0
    1.6573   -5.2418    3.9719 C   0  0  0  0  0  0  0  0  0  0  0  0
    1.3120   -4.9980    1.5674 C   0  0  0  0  0  0  0  0  0  0  0  0
    0.4509   -4.0790    1.1037 C   0  0  0  0  0  0  0  0  0  0  0  0
  1  2  1  0
  2  3  2  3
  3  4  1  0
  4  5  2  0
  4  6  1  0
  1  7  2  3
  7  8  1  0
  6  9  1  0
  8 15  1  1
  8 16  1  0
 16 17  1  0
  9 10  2  0
 10 11  1  0
 11 12  2  0
 12 13  1  0
 13 14  2  0
  9 14  1  0
M  END

$$$$
No_2591-/export/home/yangzhenyu/potential_scad_32_flow//YTHDC2/2024-12-06-03-22-00/
     RDKit          3D

 19 20  0  0  1  0  0  0  0  0999 V2000
    1.1787   -8.0297    3.5154 C   0  0  0  0  0  0  0  0  0  0  0  0
    1.1048   -9.2215    3.2892 C   0  0  0  0  0  0  0  0  0  0  0  0
    1.3627  -10.1721    4.3044 C   0  0  0  0  0  0  0  0  0  0  0  0
    1.0682  -11.5187    4.0618 C   0  0  0  0  0  0  0  0  0  0  0  0
    0.6332  -11.9655    2.9682 C   0  0  1  0  0  0  0  0  0  0  0  0
    0.4776  -11.1308    1.9203 C   0  0  0  0  0  0  0  0  0  0  0  0
    0.7470   -9.8274    2.0368 C   0  0  0  0  0  0  0  0  0  0  0  0
    1.8805   -7.1616    3.5538 C   0  0  0  0  0  0  0  0  0  0  0  0
    0.3661  -13.4265    2.7867 C   0  0  2  0  0  0  0  0  0  0  0  0
    1.3569  -14.3327    3.1423 C   0  0  0  0  0  0  0  0  0  0  0  0
    1.1359  -15.7043    3.0228 C   0  0  0  0  0  0  0  0  0  0  0  0
   -0.0207  -16.1306    2.5660 C   0  0  0  0  0  0  0  0  0  0  0  0
   -0.9484  -15.2894    2.1282 C   0  0  0  0  0  0  0  0  0  0  0  0
   -0.7046  -13.9106    2.2634 C   0  0  0  0  0  0  0  0  0  0  0  0
    0.7657   -9.0443    0.9428 O   0  0  0  0  0  0  0  0  0  0  0  0
   -1.7664  -13.0343    1.9296 O   0  0  0  0  0  0  0  0  0  0  0  0
    1.4934   -5.6748    3.6564 C   0  0  0  0  0  0  0  0  0  0  0  0
    0.8367   -4.8698    3.0695 C   0  0  0  0  0  0  0  0  0  0  0  0
    0.3718   -5.4646    1.7881 C   0  0  0  0  0  0  0  0  0  0  0  0
  1  2  1  0
  2  3  1  0
  5  4  1  6
  2  7  1  0
  6  7  1  0
  1  8  2  3
  5  9  1  0
  9 10  1  6
 11 12  1  0
  9 14  1  0
 13 14  1  0
  7 15  2  0
 14 16  2  0
  8 17  1  0
 17 18  2  3
 18 19  1  0
 10 11  1  0
 12 13  1  0
  3  4  1  0
  5  6  1  0
M  END

$$$$
No_2592-/export/home/yangzhenyu/potential_scad_32_flow//YTHDC2/2024-12-06-03-22-00/
     RDKit          3D

 21 22  0  0  1  0  0  0  0  0999 V2000
    1.1787   -8.0297    3.5154 C   0  0  0  0  0  0  0  0  0  0  0  0
    1.0491   -6.8434    2.9820 C   0  0  0  0  0  0  0  0  0  0  0  0
    0.9905   -9.0774    2.6527 C   0  0  0  0  0  0  0  0  0  0  0  0
    0.7897   -8.9519    1.3691 C   0  0  0  0  0  0  0  0  0  0  0  0
    0.6550  -10.0985    0.4848 C   0  0  0  0  0  0  0  0  0  0  0  0
    0.7849   -6.5836    1.6043 C   0  0  0  0  0  0  0  0  0  0  0  0
    0.6652   -7.6671    0.8008 C   0  0  0  0  0  0  0  0  0  0  0  0
    1.2441  -11.1828    0.5777 O   0  0  0  0  0  0  0  0  0  0  0  0
    0.0856   -9.8969   -0.8187 O   0  0  0  0  0  0  0  0  0  0  0  0
    0.6557   -5.1296    1.0417 Cl  0  0  0  0  0  0  0  0  0  0  0  0
    1.2861  -10.6454    3.3260 C   0  0  2  0  0  0  0  0  0  0  0  0
    0.2197  -11.2563    3.7232 C   0  0  0  0  0  0  0  0  0  0  0  0
   -0.9100  -10.4832    4.0889 C   0  0  0  0  0  0  0  0  0  0  0  0
   -2.1139  -10.7229    3.4154 C   0  0  0  0  0  0  0  0  0  0  0  0
   -3.2321   -9.9780    3.7459 C   0  0  0  0  0  0  0  0  0  0  0  0
   -4.2279   -9.7978    2.9359 C   0  0  0  0  0  0  0  0  0  0  0  0
   -4.2276  -10.5038    1.7215 C   0  0  0  0  0  0  0  0  0  0  0  0
   -3.1189  -11.3369    1.3820 C   0  0  0  0  0  0  0  0  0  0  0  0
   -2.0179  -11.4068    2.2199 C   0  0  0  0  0  0  0  0  0  0  0  0
    2.5970  -10.7379    3.4812 C   0  0  0  0  0  0  0  0  0  0  0  0
    2.8087  -11.8922    4.4851 Cl  0  0  0  0  0  0  0  0  0  0  0  0
  4  5  1  0
  5  8  2  0
  5  9  1  0
  6 10  1  0
  3 11  1  0
 11 12  1  1
 12 13  1  0
 11 20  1  0
 20 21  1  0
 13 14  1  0
 14 15  2  0
 15 16  1  0
 16 17  2  0
 17 18  1  0
 18 19  2  0
 14 19  1  0
  1  2  2  0
  2  6  1  0
  6  7  2  0
  4  7  1  0
  3  4  2  0
  1  3  1  0
M  END

$$$$
No_2593-/export/home/yangzhenyu/potential_scad_32_flow//YTHDC2/2024-12-06-03-22-00/
     RDKit          3D

 18 19  0  0  0  0  0  0  0  0999 V2000
    1.1787   -8.0297    3.5154 C   0  0  0  0  0  0  0  0  0  0  0  0
    1.1048   -9.2215    3.2892 C   0  0  0  0  0  0  0  0  0  0  0  0
    1.3627  -10.1721    4.3044 C   0  0  0  0  0  0  0  0  0  0  0  0
    1.0682  -11.5187    4.0618 C   0  0  0  0  0  0  0  0  0  0  0  0
    0.6332  -11.9655    2.9682 C   0  0  0  0  0  0  0  0  0  0  0  0
    0.4776  -11.1308    1.9203 C   0  0  0  0  0  0  0  0  0  0  0  0
    0.7470   -9.8274    2.0368 C   0  0  0  0  0  0  0  0  0  0  0  0
    1.0387   -7.0301    2.5175 C   0  0  0  0  0  0  0  0  0  0  0  0
    1.1485   -5.5562    2.7652 C   0  0  0  0  0  0  0  0  0  0  0  0
    0.4339  -13.5730    2.7982 C   0  0  0  0  0  0  0  0  0  0  0  0
    1.3384  -14.2847    3.3434 C   0  0  0  0  0  0  0  0  0  0  0  0
    1.1786  -15.7122    3.1287 C   0  0  0  0  0  0  0  0  0  0  0  0
    0.1078  -16.1799    2.5340 C   0  0  0  0  0  0  0  0  0  0  0  0
   -0.7771  -15.3387    1.9694 C   0  0  0  0  0  0  0  0  0  0  0  0
   -0.5693  -13.9998    2.0869 C   0  0  0  0  0  0  0  0  0  0  0  0
    0.8387   -4.6488    1.9246 N   0  0  0  0  0  0  0  0  0  0  0  0
    0.2183   -4.8939    0.9593 C   0  0  0  0  0  0  0  0  0  0  0  0
   -0.1364   -6.1377    0.6010 C   0  0  0  0  0  0  0  0  0  0  0  0
  1  2  1  0
  1  8  2  3
  8  9  1  0
  5 10  1  0
  9 16  1  0
 16 17  1  0
 17 18  2  0
  2  3  2  0
  3  4  1  0
  4  5  2  0
  5  6  1  0
  6  7  2  0
  2  7  1  0
 10 11  2  0
 11 12  1  0
 12 13  2  0
 13 14  1  0
 14 15  2  0
 10 15  1  0
M  END

$$$$
No_2594-/export/home/yangzhenyu/potential_scad_32_flow//YTHDC2/2024-12-06-03-22-00/
     RDKit          3D

 17 18  0  0  0  0  0  0  0  0999 V2000
    1.1787   -8.0297    3.5154 Cl  0  0  0  0  0  0  0  0  0  0  0  0
    0.7279   -9.0023    2.8722 C   0  0  0  0  0  0  0  0  0  0  0  0
    1.3852  -10.2194    3.0621 C   0  0  0  0  0  0  0  0  0  0  0  0
    1.4545  -11.1895    2.1693 C   0  0  0  0  0  0  0  0  0  0  0  0
    0.8014  -11.1600    1.0315 C   0  0  0  0  0  0  0  0  0  0  0  0
    0.2687  -10.0102    0.6759 C   0  0  0  0  0  0  0  0  0  0  0  0
    0.1996   -8.9577    1.5190 C   0  0  0  0  0  0  0  0  0  0  0  0
   -0.5305   -7.8263    1.1578 C   0  0  0  0  0  0  0  0  0  0  0  0
   -1.7448   -7.7825    1.2310 N   0  0  0  0  0  0  0  0  0  0  0  0
   -2.4698   -8.1820    2.0210 C   0  0  0  0  0  0  0  0  0  0  0  0
   -3.8079   -7.9471    2.1494 C   0  0  0  0  0  0  0  0  0  0  0  0
   -4.2900   -7.2749    1.0798 C   0  0  0  0  0  0  0  0  0  0  0  0
   -3.4757   -6.7001    0.1831 C   0  0  0  0  0  0  0  0  0  0  0  0
   -2.1605   -6.9711    0.1488 C   0  0  0  0  0  0  0  0  0  0  0  0
    0.2863   -6.9605    0.5264 O   0  0  0  0  0  0  0  0  0  0  0  0
    2.0735  -12.4986    2.4589 C   0  0  0  0  0  0  0  0  0  0  0  0
    2.0003  -13.0442    3.6761 C   0  0  0  0  0  0  0  0  0  0  0  0
  1  2  1  0
  7  8  1  0
  8  9  1  0
  9 10  1  0
 11 12  1  0
  9 14  1  0
 13 14  1  0
  8 15  2  0
  4 16  1  0
 16 17  1  0
 10 11  1  0
 12 13  1  0
  2  3  2  0
  3  4  1  0
  4  5  2  0
  5  6  1  0
  6  7  2  0
  2  7  1  0
M  END

$$$$
No_2595-/export/home/yangzhenyu/potential_scad_32_flow//YTHDC2/2024-12-06-03-22-00/
     RDKit          3D

 17 19  0  0  1  0  0  0  0  0999 V2000
    1.1787   -8.0297    3.5154 C   0  0  0  0  0  0  0  0  0  0  0  0
    1.1048   -9.2215    3.2892 C   0  0  0  0  0  0  0  0  0  0  0  0
    1.3627  -10.1721    4.3044 C   0  0  0  0  0  0  0  0  0  0  0  0
    1.0682  -11.5187    4.0618 C   0  0  0  0  0  0  0  0  0  0  0  0
    0.7653  -11.7320    2.7387 C   0  0  0  0  0  0  0  0  0  0  0  0
    0.7465  -10.3365    2.0821 C   0  0  2  0  0  0  0  0  0  0  0  0
    1.0657   -7.1804    2.2093 C   0  0  2  0  0  0  0  0  0  0  0  0
    1.2911   -7.7456    1.0323 C   0  0  0  0  0  0  0  0  0  0  0  0
    1.0710   -9.2074    0.9637 C   0  0  0  0  0  0  0  0  0  0  0  0
    0.8868   -9.7792   -0.2373 O   0  0  0  0  0  0  0  0  0  0  0  0
    0.5332  -12.6012    1.9662 C   0  0  0  0  0  0  0  0  0  0  0  0
    1.4981  -13.4711    1.6203 C   0  0  0  0  0  0  0  0  0  0  0  0
    1.3083   -5.6914    2.2798 C   0  0  0  0  0  0  0  0  0  0  0  0
    1.3495  -14.7897    1.2311 C   0  0  0  0  0  0  0  0  0  0  0  0
    0.1240  -15.2225    1.0273 C   0  0  0  0  0  0  0  0  0  0  0  0
   -0.9605  -14.5059    1.4671 C   0  0  0  0  0  0  0  0  0  0  0  0
   -0.7387  -13.1986    1.8221 C   0  0  0  0  0  0  0  0  0  0  0  0
  1  2  1  0
  2  3  1  0
  3  4  2  0
  4  5  1  0
  2  6  1  0
  6  5  1  6
  7  8  1  0
  6  9  1  0
  8  9  1  0
  9 10  2  0
  5 11  1  0
  7 13  1  1
  1  7  1  0
 11 12  2  0
 12 14  1  0
 14 15  2  0
 15 16  1  0
 16 17  2  0
 11 17  1  0
M  END

$$$$
No_2596-/export/home/yangzhenyu/potential_scad_32_flow//YTHDC2/2024-12-06-03-22-00/
     RDKit          3D

 18 18  0  0  1  0  0  0  0  0999 V2000
    1.1787   -8.0297    3.5154 C   0  0  0  0  0  0  0  0  0  0  0  0
    1.1048   -9.2215    3.2892 C   0  0  0  0  0  0  0  0  0  0  0  0
    1.3627  -10.1721    4.3044 C   0  0  0  0  0  0  0  0  0  0  0  0
    1.0682  -11.5187    4.0618 C   0  0  0  0  0  0  0  0  0  0  0  0
    0.7653  -11.7320    2.7387 C   0  0  0  0  0  0  0  0  0  0  0  0
    0.4825  -13.1282    2.3241 C   0  0  0  0  0  0  0  0  0  0  0  0
    0.8938  -10.6702    2.0029 C   0  0  0  0  0  0  0  0  0  0  0  0
    1.0500   -9.4863    2.1297 C   0  0  0  0  0  0  0  0  0  0  0  0
    1.0732  -13.6867    1.5775 C   0  0  1  0  0  0  0  0  0  0  0  0
    2.2327  -13.2333    0.9420 C   0  0  0  0  0  0  0  0  0  0  0  0
    1.1926   -8.5477    1.1085 C   0  0  0  0  0  0  0  0  0  0  0  0
    1.3228   -9.0573   -0.2364 C   0  0  0  0  0  0  0  0  0  0  0  0
    0.2769   -9.3280   -0.8730 O   0  0  0  0  0  0  0  0  0  0  0  0
    2.4954   -9.2203   -0.7775 O   0  0  0  0  0  0  0  0  0  0  0  0
    1.3499  -15.1158    2.1261 C   0  0  0  0  0  0  0  0  0  0  0  0
    0.5340  -15.8014    2.7089 C   0  0  0  0  0  0  0  0  0  0  0  0
    0.6895  -16.0238    4.0848 C   0  0  0  0  0  0  0  0  0  0  0  0
   -0.2114  -16.8595    4.7297 C   0  0  0  0  0  0  0  0  0  0  0  0
  1  2  1  0
  5  6  1  0
  6  9  1  0
  9 10  1  1
  8 11  1  0
 11 12  1  0
 12 13  1  0
 12 14  2  0
  9 15  1  0
 15 16  1  0
 16 17  1  0
 17 18  2  0
  2  3  2  0
  3  4  1  0
  4  5  2  0
  5  7  1  0
  7  8  2  0
  2  8  1  0
M  END

$$$$
No_2597-/export/home/yangzhenyu/potential_scad_32_flow//YTHDC2/2024-12-06-03-22-00/
     RDKit          3D

 18 18  0  0  0  0  0  0  0  0999 V2000
    1.1787   -8.0297    3.5154 C   0  0  0  0  0  0  0  0  0  0  0  0
    1.1048   -9.2215    3.2892 C   0  0  0  0  0  0  0  0  0  0  0  0
    1.3627  -10.1721    4.3044 C   0  0  0  0  0  0  0  0  0  0  0  0
    1.7354  -11.4730    3.9023 C   0  0  0  0  0  0  0  0  0  0  0  0
    1.8080  -11.8127    2.7216 C   0  0  0  0  0  0  0  0  0  0  0  0
    1.5854  -11.0021    1.7249 C   0  0  0  0  0  0  0  0  0  0  0  0
    1.3573   -9.7389    1.9287 C   0  0  0  0  0  0  0  0  0  0  0  0
    1.2865   -8.8078    0.9161 C   0  0  0  0  0  0  0  0  0  0  0  0
    1.6845   -9.1638   -0.2896 C   0  0  0  0  0  0  0  0  0  0  0  0
    1.0768   -8.8580   -1.3382 O   0  0  0  0  0  0  0  0  0  0  0  0
    2.9730   -9.5145   -0.5934 O   0  0  0  0  0  0  0  0  0  0  0  0
    2.0318  -13.2452    2.4010 C   0  0  0  0  0  0  0  0  0  0  0  0
    1.7917  -14.1990    3.2187 C   0  0  0  0  0  0  0  0  0  0  0  0
    1.2718  -15.4179    2.6354 C   0  0  0  0  0  0  0  0  0  0  0  0
    0.3064  -16.0016    3.0141 C   0  0  0  0  0  0  0  0  0  0  0  0
    0.4142  -17.0710    3.9156 C   0  0  0  0  0  0  0  0  0  0  0  0
   -0.4760  -17.5307    4.8230 C   0  0  0  0  0  0  0  0  0  0  0  0
   -1.7704  -16.9997    4.6126 C   0  0  0  0  0  0  0  0  0  0  0  0
  1  2  1  0
  7  8  1  0
  8  9  1  0
  9 10  1  0
  9 11  2  0
  5 12  1  0
 12 13  1  0
 13 14  1  0
 14 15  1  0
 15 16  1  0
 16 17  2  3
 17 18  1  0
  2  3  2  0
  3  4  1  0
  4  5  2  0
  5  6  1  0
  6  7  2  0
  2  7  1  0
M  END

$$$$
No_2598-/export/home/yangzhenyu/potential_scad_32_flow//YTHDC2/2024-12-06-03-22-00/
     RDKit          3D

 12 12  0  0  0  0  0  0  0  0999 V2000
    1.1787   -8.0297    3.5154 C   0  0  0  0  0  0  0  0  0  0  0  0
    1.0491   -6.8434    2.9820 C   0  0  0  0  0  0  0  0  0  0  0  0
    1.9985   -8.9840    2.8958 C   0  0  0  0  0  0  0  0  0  0  0  0
    1.1815  -10.1889    2.5497 C   0  0  0  0  0  0  0  0  0  0  0  0
    0.9817  -11.1388    2.8134 C   0  0  0  0  0  0  0  0  0  0  0  0
    0.1125  -12.0891    2.4838 C   0  0  0  0  0  0  0  0  0  0  0  0
   -0.6446  -11.8250    1.4596 C   0  0  0  0  0  0  0  0  0  0  0  0
   -0.2941  -10.7598    0.6431 C   0  0  0  0  0  0  0  0  0  0  0  0
    0.5711   -9.8346    1.1239 C   0  0  0  0  0  0  0  0  0  0  0  0
    1.7128   -5.7488    3.1464 O   0  0  0  0  0  0  0  0  0  0  0  0
    0.9112   -8.6589    0.4747 C   0  0  0  0  0  0  0  0  0  0  0  0
    0.0107   -7.8164    0.2541 C   0  0  0  0  0  0  0  0  0  0  0  0
  1  2  1  0
  1  3  1  0
  3  4  1  0
  2 10  1  0
  9 11  1  0
 11 12  2  0
  4  5  2  0
  5  6  1  0
  6  7  2  0
  7  8  1  0
  8  9  2  0
  4  9  1  0
M  END

$$$$
No_2599-/export/home/yangzhenyu/potential_scad_32_flow//YTHDC2/2024-12-06-03-22-00/
     RDKit          3D

 19 21  0  0  0  0  0  0  0  0999 V2000
    1.1787   -8.0297    3.5154 C   0  0  0  0  0  0  0  0  0  0  0  0
    1.1048   -9.2215    3.2892 C   0  0  0  0  0  0  0  0  0  0  0  0
    1.2339   -9.7611    2.0189 C   0  0  0  0  0  0  0  0  0  0  0  0
    1.3583   -9.0036    0.9764 C   0  0  0  0  0  0  0  0  0  0  0  0
    1.5996   -7.6362    1.1311 C   0  0  0  0  0  0  0  0  0  0  0  0
    1.4830   -7.0928    2.3626 C   0  0  0  0  0  0  0  0  0  0  0  0
    1.1008  -11.2372    1.8542 C   0  0  0  0  0  0  0  0  0  0  0  0
    1.9749  -12.0938    2.2342 C   0  0  0  0  0  0  0  0  0  0  0  0
    1.5180  -13.3509    2.5910 C   0  0  0  0  0  0  0  0  0  0  0  0
    0.4120  -13.9272    2.2191 C   0  0  0  0  0  0  0  0  0  0  0  0
   -0.5860  -13.0563    1.8308 C   0  0  0  0  0  0  0  0  0  0  0  0
   -0.2264  -11.7453    1.4928 C   0  0  0  0  0  0  0  0  0  0  0  0
    1.6029   -5.4505    2.6854 Cl  0  0  0  0  0  0  0  0  0  0  0  0
    0.0975  -15.2159    2.5385 C   0  0  0  0  0  0  0  0  0  0  0  0
    1.0241  -16.0195    3.2050 N   0  0  0  0  0  0  0  0  0  0  0  0
   -0.9990  -15.7787    2.4576 C   0  0  0  0  0  0  0  0  0  0  0  0
    1.2421  -17.2141    2.9795 C   0  0  0  0  0  0  0  0  0  0  0  0
    0.1199  -17.9546    2.6429 C   0  0  0  0  0  0  0  0  0  0  0  0
   -0.9684  -17.2508    2.2771 C   0  0  0  0  0  0  0  0  0  0  0  0
  3  7  1  0
  6 13  1  0
 10 14  1  0
  1  2  2  0
  2  3  1  0
  3  4  2  0
  4  5  1  0
  5  6  2  0
  1  6  1  0
 14 15  2  0
 15 17  1  0
 17 18  2  0
 18 19  1  0
 16 19  2  0
 14 16  1  0
  7  8  2  0
  8  9  1  0
  9 10  2  0
 10 11  1  0
 11 12  2  0
  7 12  1  0
M  END

$$$$
No_2600-/export/home/yangzhenyu/potential_scad_32_flow//YTHDC2/2024-12-06-03-22-00/
     RDKit          3D

 20 20  0  0  1  0  0  0  0  0999 V2000
    1.1787   -8.0297    3.5154 C   0  0  0  0  0  0  0  0  0  0  0  0
    1.1048   -9.2215    3.2892 C   0  0  0  0  0  0  0  0  0  0  0  0
    1.3627  -10.1721    4.3044 C   0  0  0  0  0  0  0  0  0  0  0  0
    1.7354  -11.4730    3.9023 C   0  0  0  0  0  0  0  0  0  0  0  0
    1.8080  -11.8127    2.7216 C   0  0  0  0  0  0  0  0  0  0  0  0
    1.5854  -11.0021    1.7249 C   0  0  0  0  0  0  0  0  0  0  0  0
    1.3573   -9.7389    1.9287 C   0  0  0  0  0  0  0  0  0  0  0  0
    1.1102   -8.8712    0.9017 C   0  0  0  0  0  0  0  0  0  0  0  0
    1.5724   -9.1697   -0.3048 C   0  0  0  0  0  0  0  0  0  0  0  0
    2.8854   -9.3955   -0.5183 O   0  0  0  0  0  0  0  0  0  0  0  0
    0.9279   -9.1810   -1.3560 O   0  0  0  0  0  0  0  0  0  0  0  0
    2.1114  -13.4596    2.3791 O   0  0  0  0  0  0  0  0  0  0  0  0
    0.8623   -7.0802    3.0371 O   0  0  0  0  0  0  0  0  0  0  0  0
    1.7212  -13.8807    1.2524 C   0  0  0  0  0  0  0  0  0  0  0  0
    0.8781  -14.9243    1.4303 C   0  0  1  0  0  0  0  0  0  0  0  0
    0.0088  -15.0739    0.5485 C   0  0  0  0  0  0  0  0  0  0  0  0
   -0.6872  -14.0584    0.0577 O   0  0  0  0  0  0  0  0  0  0  0  0
   -0.7110  -16.2215    0.2763 O   0  0  0  0  0  0  0  0  0  0  0  0
    1.4216  -16.0960    2.0337 C   0  0  0  0  0  0  0  0  0  0  0  0
    2.6259  -16.7389    1.5908 C   0  0  0  0  0  0  0  0  0  0  0  0
  1  2  1  0
  7  8  1  0
  8  9  1  0
  9 10  1  0
  9 11  2  0
  5 12  1  0
  1 13  2  0
 12 14  1  0
 15 14  1  6
 15 16  1  0
 16 17  2  0
 16 18  1  0
 15 19  1  0
 19 20  1  0
  2  3  2  0
  3  4  1  0
  4  5  2  0
  5  6  1  0
  6  7  2  0
  2  7  1  0
M  END

$$$$
No_2601-/export/home/yangzhenyu/potential_scad_32_flow//YTHDC2/2024-12-06-03-22-00/
     RDKit          3D

 19 22  0  0  1  0  0  0  0  0999 V2000
    1.1787   -8.0297    3.5154 C   0  0  0  0  0  0  0  0  0  0  0  0
    1.1048   -9.2215    3.2892 C   0  0  0  0  0  0  0  0  0  0  0  0
    1.2339   -9.7611    2.0189 C   0  0  0  0  0  0  0  0  0  0  0  0
    1.3583   -9.0036    0.9764 C   0  0  0  0  0  0  0  0  0  0  0  0
    1.5996   -7.6362    1.1311 C   0  0  0  0  0  0  0  0  0  0  0  0
    1.4830   -7.0928    2.3626 C   0  0  0  0  0  0  0  0  0  0  0  0
    1.1008  -11.2372    1.8542 C   0  0  0  0  0  0  0  0  0  0  0  0
    1.9749  -12.0938    2.2342 C   0  0  0  0  0  0  0  0  0  0  0  0
    1.5180  -13.3509    2.5910 C   0  0  0  0  0  0  0  0  0  0  0  0
    0.4053  -13.4434    3.4089 C   0  0  0  0  0  0  0  0  0  0  0  0
   -0.5707  -12.7853    2.8087 C   0  0  2  0  0  0  0  0  0  0  0  0
   -1.9250  -12.8943    3.0363 C   0  0  0  0  0  0  0  0  0  0  0  0
   -0.1251  -11.6138    1.2669 C   0  0  0  0  0  0  0  0  0  0  0  0
   -0.4057  -10.9826   -0.0547 C   0  0  0  0  0  0  0  0  0  0  0  0
   -0.9525  -12.3299    1.7832 C   0  0  0  0  0  0  0  0  0  0  0  0
   -1.6012  -11.3957   -0.5992 C   0  0  0  0  0  0  0  0  0  0  0  0
   -2.4069  -12.1093   -0.2895 C   0  0  0  0  0  0  0  0  0  0  0  0
   -2.1669  -12.7491    1.0641 C   0  0  0  0  0  0  0  0  0  0  0  0
   -2.9530  -13.0618    2.0654 N   0  0  0  0  0  0  0  0  0  0  0  0
  3  7  1  0
  7  8  1  0
  8  9  1  0
  9 10  1  0
 11 10  1  6
 11 12  1  0
  7 13  1  0
 11 15  1  0
 12 19  2  0
 18 19  1  0
  1  2  2  0
  2  3  1  0
  3  4  2  0
  4  5  1  0
  5  6  2  0
  1  6  1  0
 13 14  2  0
 14 16  1  0
 16 17  2  0
 17 18  1  0
 15 18  2  0
 13 15  1  0
M  END

$$$$
No_2602-/export/home/yangzhenyu/potential_scad_32_flow//YTHDC2/2024-12-06-03-22-00/
     RDKit          3D

 18 20  0  0  0  0  0  0  0  0999 V2000
    1.1787   -8.0297    3.5154 C   0  0  0  0  0  0  0  0  0  0  0  0
    1.1048   -9.2215    3.2892 C   0  0  0  0  0  0  0  0  0  0  0  0
    1.3627  -10.1721    4.3044 C   0  0  0  0  0  0  0  0  0  0  0  0
    1.0682  -11.5187    4.0618 C   0  0  0  0  0  0  0  0  0  0  0  0
    0.6332  -11.9655    2.9682 C   0  0  0  0  0  0  0  0  0  0  0  0
    0.4776  -11.1308    1.9203 N   0  0  0  0  0  0  0  0  0  0  0  0
    0.7538   -9.8638    2.0376 C   0  0  0  0  0  0  0  0  0  0  0  0
    0.9824   -7.0282    2.5539 C   0  0  0  0  0  0  0  0  0  0  0  0
    0.8892   -7.5377    1.2054 C   0  0  0  0  0  0  0  0  0  0  0  0
    0.7771   -8.8131    0.9659 C   0  0  0  0  0  0  0  0  0  0  0  0
    0.3631  -13.4739    2.6587 C   0  0  0  0  0  0  0  0  0  0  0  0
    0.8256  -14.0640    1.7019 C   0  0  0  0  0  0  0  0  0  0  0  0
    0.1750  -14.6358    0.9383 C   0  0  0  0  0  0  0  0  0  0  0  0
   -1.1275  -14.7680    1.1426 C   0  0  0  0  0  0  0  0  0  0  0  0
   -1.6478  -14.2766    2.3453 C   0  0  0  0  0  0  0  0  0  0  0  0
   -0.8194  -13.6153    3.1131 N   0  0  0  0  0  0  0  0  0  0  0  0
    1.4477   -9.2659   -0.2321 C   0  0  0  0  0  0  0  0  0  0  0  0
    2.2430  -10.2302   -0.3160 O   0  0  0  0  0  0  0  0  0  0  0  0
  5 11  1  0
 10 17  1  0
 17 18  2  0
 11 12  2  0
 12 13  1  0
 13 14  2  0
 14 15  1  0
 15 16  2  0
 11 16  1  0
  2  3  1  0
  3  4  2  0
  4  5  1  0
  5  6  2  0
  6  7  1  0
  1  2  2  0
  2  7  1  0
  7 10  2  0
  9 10  1  0
  8  9  2  0
  1  8  1  0
M  END

$$$$
No_2603-/export/home/yangzhenyu/potential_scad_32_flow//YTHDC2/2024-12-06-03-22-00/
     RDKit          3D

 18 18  0  0  0  0  0  0  0  0999 V2000
    1.1787   -8.0297    3.5154 C   0  0  0  0  0  0  0  0  0  0  0  0
    1.1048   -9.2215    3.2892 C   0  0  0  0  0  0  0  0  0  0  0  0
    1.2339   -9.7611    2.0189 C   0  0  0  0  0  0  0  0  0  0  0  0
    1.3583   -9.0036    0.9764 C   0  0  0  0  0  0  0  0  0  0  0  0
    1.7077   -9.6100   -0.3010 C   0  0  0  0  0  0  0  0  0  0  0  0
    1.3637   -7.1087    2.3226 C   0  0  0  0  0  0  0  0  0  0  0  0
    1.4257   -7.6645    1.0231 C   0  0  0  0  0  0  0  0  0  0  0  0
    1.9364   -8.8976   -1.3212 O   0  0  0  0  0  0  0  0  0  0  0  0
    1.2982  -10.7764   -0.4341 O   0  0  0  0  0  0  0  0  0  0  0  0
    1.1232  -10.1782    4.3891 Cl  0  0  0  0  0  0  0  0  0  0  0  0
    1.3263   -5.5864    2.5353 C   0  0  0  0  0  0  0  0  0  0  0  0
    1.0094   -4.8102    1.5777 N   0  0  0  0  0  0  0  0  0  0  0  0
    1.4080   -5.1928    3.8329 O   0  0  0  0  0  0  0  0  0  0  0  0
    0.9755   -3.4441    1.7133 C   0  0  0  0  0  0  0  0  0  0  0  0
    0.2540   -2.8451    0.8466 C   0  0  0  0  0  0  0  0  0  0  0  0
   -0.7048   -3.4571    0.1679 C   0  0  0  0  0  0  0  0  0  0  0  0
   -1.6014   -2.7270   -0.4660 C   0  0  0  0  0  0  0  0  0  0  0  0
   -1.4522   -1.3474   -0.7035 C   0  0  0  0  0  0  0  0  0  0  0  0
  4  5  1  0
  5  8  1  0
  5  9  2  0
  2 10  1  0
  6 11  1  0
 11 12  1  0
 11 13  2  0
 12 14  1  0
 14 15  1  0
 15 16  1  0
 16 17  2  3
 17 18  1  0
  1  2  2  0
  2  3  1  0
  3  4  2  0
  4  7  1  0
  6  7  2  0
  1  6  1  0
M  END

$$$$
No_2604-/export/home/yangzhenyu/potential_scad_32_flow//YTHDC2/2024-12-06-03-22-00/
     RDKit          3D

 19 19  0  0  0  0  0  0  0  0999 V2000
    1.1787   -8.0297    3.5154 C   0  0  0  0  0  0  0  0  0  0  0  0
    1.1048   -9.2215    3.2892 C   0  0  0  0  0  0  0  0  0  0  0  0
    1.2339   -9.7611    2.0189 C   0  0  0  0  0  0  0  0  0  0  0  0
    1.3583   -9.0036    0.9764 C   0  0  0  0  0  0  0  0  0  0  0  0
    1.7077   -9.6100   -0.3010 C   0  0  0  0  0  0  0  0  0  0  0  0
    1.3637   -7.1087    2.3226 C   0  0  0  0  0  0  0  0  0  0  0  0
    1.1857   -5.6971    2.3625 C   0  0  0  0  0  0  0  0  0  0  0  0
    1.5303   -7.6562    1.0219 C   0  0  0  0  0  0  0  0  0  0  0  0
    2.1021   -8.9543   -1.2739 O   0  0  0  0  0  0  0  0  0  0  0  0
    1.0984  -10.6781   -0.5748 O   0  0  0  0  0  0  0  0  0  0  0  0
    1.7397   -5.0294    3.3720 C   0  0  0  0  0  0  0  0  0  0  0  0
    1.4838   -3.6174    3.3558 N   0  0  0  0  0  0  0  0  0  0  0  0
    1.0747   -4.9278    1.2002 O   0  0  0  0  0  0  0  0  0  0  0  0
    1.2200  -11.1864    1.8988 C   0  0  0  0  0  0  0  0  0  0  0  0
    0.1850  -11.9233    1.9932 C   0  0  0  0  0  0  0  0  0  0  0  0
   -1.0069  -11.4542    2.0289 C   0  0  0  0  0  0  0  0  0  0  0  0
   -1.8557  -11.9006    2.7675 C   0  0  0  0  0  0  0  0  0  0  0  0
   -1.6628  -13.1705    3.3005 C   0  0  0  0  0  0  0  0  0  0  0  0
   -0.5567  -13.8447    3.1798 C   0  0  0  0  0  0  0  0  0  0  0  0
  4  5  1  0
  6  7  1  0
  5  9  1  0
  5 10  2  0
  7 11  1  0
 11 12  1  0
  7 13  2  0
  3 14  1  0
 14 15  1  0
 15 16  1  0
 16 17  2  3
 17 18  1  0
 18 19  2  0
  1  2  2  0
  2  3  1  0
  3  4  2  0
  4  8  1  0
  6  8  2  0
  1  6  1  0
M  END

$$$$
No_2605-/export/home/yangzhenyu/potential_scad_32_flow//YTHDC2/2024-12-06-03-22-00/
     RDKit          3D

 18 19  0  0  1  0  0  0  0  0999 V2000
    1.1787   -8.0297    3.5154 C   0  0  0  0  0  0  0  0  0  0  0  0
    1.1048   -9.2215    3.2892 C   0  0  0  0  0  0  0  0  0  0  0  0
    1.2339   -9.7611    2.0189 C   0  0  0  0  0  0  0  0  0  0  0  0
    1.3583   -9.0036    0.9764 C   0  0  0  0  0  0  0  0  0  0  0  0
    1.5996   -7.6362    1.1311 C   0  0  0  0  0  0  0  0  0  0  0  0
    1.4830   -7.0928    2.3626 C   0  0  0  0  0  0  0  0  0  0  0  0
    1.1171  -11.3311    1.8661 C   0  0  2  0  0  0  0  0  0  0  0  0
    1.9975  -12.1095    2.2478 C   0  0  0  0  0  0  0  0  0  0  0  0
    1.7697  -13.4418    1.9079 C   0  0  0  0  0  0  0  0  0  0  0  0
    0.5967  -13.4804    1.0730 C   0  0  1  0  0  0  0  0  0  0  0  0
    0.2939  -12.0199    1.0637 C   0  0  0  0  0  0  0  0  0  0  0  0
    1.5306   -5.6429    2.6183 Cl  0  0  0  0  0  0  0  0  0  0  0  0
    2.4272  -14.6660    2.1152 C   0  0  0  0  0  0  0  0  0  0  0  0
    1.8431  -15.6157    2.9415 N   0  0  0  0  0  0  0  0  0  0  0  0
    0.7074  -15.3916    3.6253 C   0  0  0  0  0  0  0  0  0  0  0  0
    2.0285  -17.0173    2.6888 C   0  0  0  0  0  0  0  0  0  0  0  0
    1.5328  -17.9239    3.4518 O   0  0  0  0  0  0  0  0  0  0  0  0
    0.0314  -14.3460    0.3962 C   0  0  0  0  0  0  0  0  0  0  0  0
  7  3  1  6
  7  8  1  0
  8  9  2  0
  9 10  1  0
  7 11  1  0
 10 11  1  0
  6 12  1  0
  9 13  1  0
 13 14  1  0
 14 15  1  0
 14 16  1  0
 16 17  2  0
 10 18  1  6
  1  2  2  0
  2  3  1  0
  3  4  2  0
  4  5  1  0
  5  6  2  0
  1  6  1  0
M  END

$$$$
No_2606-/export/home/yangzhenyu/potential_scad_32_flow//YTHDC2/2024-12-06-03-22-00/
     RDKit          3D

 19 20  0  0  0  0  0  0  0  0999 V2000
    1.1787   -8.0297    3.5154 C   0  0  0  0  0  0  0  0  0  0  0  0
    1.0491   -6.8434    2.9820 C   0  0  0  0  0  0  0  0  0  0  0  0
    0.0950   -8.8404    3.2292 C   0  0  0  0  0  0  0  0  0  0  0  0
   -0.9173   -8.4596    2.5152 C   0  0  0  0  0  0  0  0  0  0  0  0
   -1.0331   -7.2162    2.0653 C   0  0  0  0  0  0  0  0  0  0  0  0
   -0.0105   -6.3168    2.3081 C   0  0  0  0  0  0  0  0  0  0  0  0
    0.1150   -4.9910    1.8495 C   0  0  0  0  0  0  0  0  0  0  0  0
   -0.5774   -4.1593    2.0596 N   0  0  0  0  0  0  0  0  0  0  0  0
    0.1680  -10.2877    3.7012 C   0  0  0  0  0  0  0  0  0  0  0  0
   -1.0762  -10.9526    3.8329 C   0  0  0  0  0  0  0  0  0  0  0  0
    1.3613  -10.8020    4.3070 C   0  0  0  0  0  0  0  0  0  0  0  0
    1.4770  -12.1438    4.4399 C   0  0  0  0  0  0  0  0  0  0  0  0
   -0.9472  -12.3272    4.0898 C   0  0  0  0  0  0  0  0  0  0  0  0
    0.3666  -12.9289    4.2677 C   0  0  0  0  0  0  0  0  0  0  0  0
   -1.6970   -4.0868    2.0706 C   0  0  0  0  0  0  0  0  0  0  0  0
   -2.3580   -4.0473    0.9217 C   0  0  0  0  0  0  0  0  0  0  0  0
   -3.8506   -3.9441    0.9176 C   0  0  0  0  0  0  0  0  0  0  0  0
   -4.5125   -3.9298    2.0787 C   0  0  0  0  0  0  0  0  0  0  0  0
   -3.9011   -3.9281    3.2689 C   0  0  0  0  0  0  0  0  0  0  0  0
  6  7  1  0
  7  8  1  0
  3  9  1  0
  8 15  1  0
 15 16  2  3
 16 17  1  0
 17 18  2  3
 18 19  1  0
  9 10  2  0
 10 13  1  0
 13 14  2  0
 12 14  1  0
 11 12  2  0
  9 11  1  0
  1  2  2  0
  2  6  1  0
  5  6  2  0
  4  5  1  0
  3  4  2  0
  1  3  1  0
M  END

$$$$
No_2607-/export/home/yangzhenyu/potential_scad_32_flow//YTHDC2/2024-12-06-03-22-00/
     RDKit          3D

 17 19  0  0  0  0  0  0  0  0999 V2000
    1.1787   -8.0297    3.5154 C   0  0  0  0  0  0  0  0  0  0  0  0
    1.1048   -9.2215    3.2892 C   0  0  0  0  0  0  0  0  0  0  0  0
    1.2339   -9.7611    2.0189 C   0  0  0  0  0  0  0  0  0  0  0  0
    1.3583   -9.0036    0.9764 C   0  0  0  0  0  0  0  0  0  0  0  0
    1.5996   -7.6362    1.1311 C   0  0  0  0  0  0  0  0  0  0  0  0
    1.4830   -7.0928    2.3626 C   0  0  0  0  0  0  0  0  0  0  0  0
    1.1171  -11.3311    1.8661 N   0  0  0  0  0  0  0  0  0  0  0  0
    0.3979  -11.6512    0.7629 C   0  0  0  0  0  0  0  0  0  0  0  0
   -0.3741  -10.9903    0.0693 C   0  0  0  0  0  0  0  0  0  0  0  0
   -1.0973  -11.4916   -0.9815 C   0  0  0  0  0  0  0  0  0  0  0  0
   -1.8051  -10.6547   -1.8314 C   0  0  0  0  0  0  0  0  0  0  0  0
   -1.8260   -9.2578   -1.5260 C   0  0  0  0  0  0  0  0  0  0  0  0
   -1.1395   -8.7531   -0.4807 C   0  0  0  0  0  0  0  0  0  0  0  0
   -0.3700   -9.5495    0.3041 C   0  0  0  0  0  0  0  0  0  0  0  0
    0.5609   -9.2872   -0.0508 N   0  0  0  0  0  0  0  0  0  0  0  0
    1.5480  -12.1536    2.8821 C   0  0  0  0  0  0  0  0  0  0  0  0
    1.6428  -13.5550    2.6379 C   0  0  0  0  0  0  0  0  0  0  0  0
  3  7  1  0
  7  8  1  0
  4 15  1  0
 14 15  1  0
  7 16  1  0
 16 17  1  0
  8  9  1  0
  1  2  2  0
  2  3  1  0
  3  4  2  0
  4  5  1  0
  5  6  2  0
  1  6  1  0
  9 10  2  0
 10 11  1  0
 11 12  2  0
 12 13  1  0
 13 14  2  0
  9 14  1  0
M  END

$$$$
No_2608-/export/home/yangzhenyu/potential_scad_32_flow//YTHDC2/2024-12-06-03-22-00/
     RDKit          3D

 20 21  0  0  0  0  0  0  0  0999 V2000
    1.1787   -8.0297    3.5154 C   0  0  0  0  0  0  0  0  0  0  0  0
    1.1048   -9.2215    3.2892 C   0  0  0  0  0  0  0  0  0  0  0  0
    1.2339   -9.7611    2.0189 C   0  0  0  0  0  0  0  0  0  0  0  0
    1.3583   -9.0036    0.9764 C   0  0  0  0  0  0  0  0  0  0  0  0
    1.5996   -7.6362    1.1311 C   0  0  0  0  0  0  0  0  0  0  0  0
    1.4830   -7.0928    2.3626 C   0  0  0  0  0  0  0  0  0  0  0  0
    1.4898   -5.7274    2.6199 C   0  0  0  0  0  0  0  0  0  0  0  0
    1.1681  -11.2222    1.8390 C   0  0  0  0  0  0  0  0  0  0  0  0
    0.5014  -11.9760    2.2068 C   0  0  0  0  0  0  0  0  0  0  0  0
   -0.6069  -11.4784    3.2188 C   0  0  0  0  0  0  0  0  0  0  0  0
    0.4273  -13.3928    1.9315 F   0  0  0  0  0  0  0  0  0  0  0  0
    1.6942   -5.1650    3.8583 O   0  0  0  0  0  0  0  0  0  0  0  0
    1.3213   -4.8455    1.6604 O   0  0  0  0  0  0  0  0  0  0  0  0
   -1.7009  -11.6711    3.0162 C   0  0  0  0  0  0  0  0  0  0  0  0
   -2.6542  -10.9814    3.8953 C   0  0  0  0  0  0  0  0  0  0  0  0
   -2.1285  -10.3338    5.0594 C   0  0  0  0  0  0  0  0  0  0  0  0
   -0.8107  -10.1426    5.1893 C   0  0  0  0  0  0  0  0  0  0  0  0
    0.0621  -10.7058    4.3522 C   0  0  0  0  0  0  0  0  0  0  0  0
    1.3096  -11.1183    4.7227 N   0  0  0  0  0  0  0  0  0  0  0  0
   -4.0404  -11.0973    3.5885 C   0  0  0  0  0  0  0  0  0  0  0  0
  6  7  1  0
  3  8  1  0
  8  9  2  3
  9 10  1  0
  9 11  1  0
  7 12  1  0
  7 13  2  0
 15 20  1  0
 18 19  1  0
  1  2  2  0
  2  3  1  0
  3  4  2  0
  4  5  1  0
  5  6  2  0
  1  6  1  0
 10 14  2  0
 14 15  1  0
 15 16  2  0
 16 17  1  0
 17 18  2  0
 10 18  1  0
M  END

$$$$
No_2609-/export/home/yangzhenyu/potential_scad_32_flow//YTHDC2/2024-12-06-03-22-00/
     RDKit          3D

 19 21  0  0  0  0  0  0  0  0999 V2000
    1.1787   -8.0297    3.5154 C   0  0  0  0  0  0  0  0  0  0  0  0
    1.0491   -6.8434    2.9820 C   0  0  0  0  0  0  0  0  0  0  0  0
    0.9905   -9.0774    2.6527 C   0  0  0  0  0  0  0  0  0  0  0  0
    0.7897   -8.9519    1.3691 C   0  0  0  0  0  0  0  0  0  0  0  0
    0.7018   -7.7198    0.7892 C   0  0  0  0  0  0  0  0  0  0  0  0
    0.8918   -6.5957    1.6117 C   0  0  0  0  0  0  0  0  0  0  0  0
    1.0711  -10.4814    3.2282 C   0  0  0  0  0  0  0  0  0  0  0  0
   -0.1055  -11.1328    3.5223 C   0  0  0  0  0  0  0  0  0  0  0  0
   -1.2061  -10.3495    3.8837 C   0  0  0  0  0  0  0  0  0  0  0  0
   -1.2715   -9.5949    5.0137 C   0  0  0  0  0  0  0  0  0  0  0  0
   -2.3226   -8.7872    5.3499 C   0  0  0  0  0  0  0  0  0  0  0  0
   -3.3409   -8.6873    4.5477 C   0  0  0  0  0  0  0  0  0  0  0  0
   -4.3778   -7.7570    4.7142 C   0  0  0  0  0  0  0  0  0  0  0  0
   -0.1000  -12.4326    3.3647 O   0  0  0  0  0  0  0  0  0  0  0  0
   -4.9761   -7.4377    3.9350 C   0  0  0  0  0  0  0  0  0  0  0  0
   -5.1829   -7.9299    2.6993 C   0  0  0  0  0  0  0  0  0  0  0  0
   -4.1382   -8.7709    2.3318 C   0  0  0  0  0  0  0  0  0  0  0  0
   -3.1323   -9.1582    3.2669 C   0  0  0  0  0  0  0  0  0  0  0  0
   -2.3199  -10.2117    3.0824 N   0  0  0  0  0  0  0  0  0  0  0  0
  3  7  1  0
  7  8  1  0
  8  9  1  0
  8 14  2  0
  9 10  2  0
 10 11  1  0
 11 12  2  0
 18 19  2  0
  9 19  1  0
  1  2  2  0
  2  6  1  0
  5  6  2  0
  4  5  1  0
  3  4  2  0
  1  3  1  0
 12 13  1  0
 13 15  2  0
 15 16  1  0
 16 17  2  0
 17 18  1  0
 12 18  1  0
M  END

$$$$
No_2610-/export/home/yangzhenyu/potential_scad_32_flow//YTHDC2/2024-12-06-03-22-00/
     RDKit          3D

 12 12  0  0  0  0  0  0  0  0999 V2000
    1.1787   -8.0297    3.5154 C   0  0  0  0  0  0  0  0  0  0  0  0
    1.1048   -9.2215    3.2892 C   0  0  0  0  0  0  0  0  0  0  0  0
    1.2339   -9.7611    2.0189 C   0  0  0  0  0  0  0  0  0  0  0  0
    1.3583   -9.0036    0.9764 C   0  0  0  0  0  0  0  0  0  0  0  0
    1.5996   -7.6362    1.1311 C   0  0  0  0  0  0  0  0  0  0  0  0
    1.4830   -7.0928    2.3626 C   0  0  0  0  0  0  0  0  0  0  0  0
    1.1008  -11.2372    1.8542 Cl  0  0  0  0  0  0  0  0  0  0  0  0
    1.5701   -9.5303   -0.4293 C   0  0  0  0  0  0  0  0  0  0  0  0
    0.4011   -9.9312   -0.8728 O   0  0  0  0  0  0  0  0  0  0  0  0
    2.5847   -9.4347   -1.0644 O   0  0  0  0  0  0  0  0  0  0  0  0
    1.5479   -5.6337    2.6505 Cl  0  0  0  0  0  0  0  0  0  0  0  0
    0.9134  -10.1536    4.3620 Cl  0  0  0  0  0  0  0  0  0  0  0  0
  3  7  1  0
  4  8  1  0
  8  9  2  0
  8 10  1  0
  6 11  1  0
  2 12  1  0
  1  2  2  0
  2  3  1  0
  3  4  2  0
  4  5  1  0
  5  6  2  0
  1  6  1  0
M  END

$$$$
No_2611-/export/home/yangzhenyu/potential_scad_32_flow//YTHDC2/2024-12-06-03-22-00/
     RDKit          3D

 19 20  0  0  0  0  0  0  0  0999 V2000
    1.1787   -8.0297    3.5154 C   0  0  0  0  0  0  0  0  0  0  0  0
    1.1048   -9.2215    3.2892 F   0  0  0  0  0  0  0  0  0  0  0  0
    2.1516   -7.3031    2.6108 C   0  0  0  0  0  0  0  0  0  0  0  0
    1.4984   -5.9916    2.2868 C   0  0  0  0  0  0  0  0  0  0  0  0
    0.3482   -5.4441    2.7477 C   0  0  0  0  0  0  0  0  0  0  0  0
   -0.4903   -6.3558    3.3540 C   0  0  0  0  0  0  0  0  0  0  0  0
   -0.1554   -7.6185    3.6422 C   0  0  0  0  0  0  0  0  0  0  0  0
   -0.0809   -4.0752    2.2016 Cl  0  0  0  0  0  0  0  0  0  0  0  0
   -0.8981   -8.4053    4.4993 C   0  0  0  0  0  0  0  0  0  0  0  0
   -0.8485   -9.6798    4.6317 C   0  0  0  0  0  0  0  0  0  0  0  0
   -2.2713   -7.8218    4.9383 O   0  0  0  0  0  0  0  0  0  0  0  0
   -1.8618  -10.5158    4.4114 C   0  0  0  0  0  0  0  0  0  0  0  0
   -2.2466  -10.8118    3.3417 C   0  0  0  0  0  0  0  0  0  0  0  0
   -3.4194  -11.7740    3.2462 C   0  0  0  0  0  0  0  0  0  0  0  0
   -4.5589  -11.4590    3.7993 C   0  0  0  0  0  0  0  0  0  0  0  0
   -5.4164  -12.5773    3.8021 C   0  0  0  0  0  0  0  0  0  0  0  0
   -5.1516  -13.7079    3.1645 C   0  0  0  0  0  0  0  0  0  0  0  0
   -3.9892  -13.9815    2.6390 C   0  0  0  0  0  0  0  0  0  0  0  0
   -3.0054  -13.0154    2.6981 C   0  0  0  0  0  0  0  0  0  0  0  0
  1  2  1  0
  5  8  1  0
  7  9  1  0
  9 10  2  3
  9 11  1  0
 10 12  1  0
 12 13  2  3
 13 14  1  0
 14 15  2  0
 15 16  1  0
 16 17  2  0
 17 18  1  0
 18 19  2  0
 14 19  1  0
  1  3  2  0
  3  4  1  0
  4  5  2  0
  5  6  1  0
  6  7  2  0
  1  7  1  0
M  END

$$$$
No_2612-/export/home/yangzhenyu/potential_scad_32_flow//YTHDC2/2024-12-06-03-22-00/
     RDKit          3D

 20 21  0  0  1  0  0  0  0  0999 V2000
    1.1787   -8.0297    3.5154 C   0  0  0  0  0  0  0  0  0  0  0  0
    1.1048   -9.2215    3.2892 C   0  0  0  0  0  0  0  0  0  0  0  0
    1.2339   -9.7611    2.0189 C   0  0  0  0  0  0  0  0  0  0  0  0
    1.3583   -9.0036    0.9764 C   0  0  0  0  0  0  0  0  0  0  0  0
    1.5996   -7.6362    1.1311 C   0  0  0  0  0  0  0  0  0  0  0  0
    1.4830   -7.0928    2.3626 C   0  0  0  0  0  0  0  0  0  0  0  0
    1.1008  -11.2372    1.8542 C   0  0  1  0  0  0  0  0  0  0  0  0
    0.4812  -11.6084    0.6459 C   0  0  0  0  0  0  0  0  0  0  0  0
    0.5134  -13.0269    0.4830 C   0  0  0  0  0  0  0  0  0  0  0  0
    1.2057  -13.8685    1.2734 C   0  0  2  0  0  0  0  0  0  0  0  0
    1.9819  -13.3990    2.3594 C   0  0  1  0  0  0  0  0  0  0  0  0
    1.8610  -12.0988    2.6716 C   0  0  0  0  0  0  0  0  0  0  0  0
    2.4163  -11.5839    3.7861 O   0  0  0  0  0  0  0  0  0  0  0  0
    1.5574   -5.6480    2.6418 Cl  0  0  0  0  0  0  0  0  0  0  0  0
    1.5766   -9.5103   -0.5795 N   0  0  0  0  0  0  0  0  0  0  0  0
    2.5222  -14.3357    3.1596 Cl  0  0  0  0  0  0  0  0  0  0  0  0
    1.6929   -8.5864   -1.4634 O   0  0  0  0  0  0  0  0  0  0  0  0
    1.2087  -15.1634    0.9098 S   0  0  0  0  0  0  0  0  0  0  0  0
    0.6301  -15.4587   -0.4134 O   0  0  0  0  0  0  0  0  0  0  0  0
    0.2283  -16.0232    1.9214 C   0  0  0  0  0  0  0  0  0  0  0  0
  7  3  1  6
  7  8  1  0
 10  9  1  6
  7 12  1  0
 11 12  1  0
 12 13  2  0
  6 14  1  0
  4 15  1  0
 11 16  1  1
 15 17  2  0
 10 18  1  0
 18 19  2  0
 18 20  1  1
  8  9  1  0
 10 11  1  0
  1  2  2  0
  2  3  1  0
  3  4  2  0
  4  5  1  0
  5  6  2  0
  1  6  1  0
M  END

$$$$
No_2613-/export/home/yangzhenyu/potential_scad_32_flow//YTHDC2/2024-12-06-03-22-00/
     RDKit          3D

 20 22  0  0  0  0  0  0  0  0999 V2000
    1.1787   -8.0297    3.5154 C   0  0  0  0  0  0  0  0  0  0  0  0
    1.0491   -6.8434    2.9820 C   0  0  0  0  0  0  0  0  0  0  0  0
    1.9985   -8.9840    2.8958 C   0  0  0  0  0  0  0  0  0  0  0  0
    1.7297   -9.2108    1.6335 C   0  0  0  0  0  0  0  0  0  0  0  0
    2.3837  -10.5083    1.0902 C   0  0  0  0  0  0  0  0  0  0  0  0
    1.2756   -8.2697    0.7856 C   0  0  0  0  0  0  0  0  0  0  0  0
    1.5225   -6.5204    2.0166 C   0  0  0  0  0  0  0  0  0  0  0  0
    1.4110   -6.9978    0.7389 C   0  0  0  0  0  0  0  0  0  0  0  0
    1.6233  -11.4056    0.6508 N   0  0  0  0  0  0  0  0  0  0  0  0
    0.2021  -10.9507    0.6921 C   0  0  0  0  0  0  0  0  0  0  0  0
    0.2109   -9.4316    0.1116 C   0  0  0  0  0  0  0  0  0  0  0  0
    1.0567   -4.8384    1.7533 C   0  0  0  0  0  0  0  0  0  0  0  0
   -0.6541   -8.8963   -0.8411 C   0  0  0  0  0  0  0  0  0  0  0  0
   -0.2289   -8.7534   -2.0868 C   0  0  0  0  0  0  0  0  0  0  0  0
   -1.0867   -8.3074   -3.0796 C   0  0  0  0  0  0  0  0  0  0  0  0
   -2.2749   -7.8825   -2.7839 C   0  0  0  0  0  0  0  0  0  0  0  0
   -2.8143   -8.0055   -1.4938 C   0  0  0  0  0  0  0  0  0  0  0  0
   -1.9955   -8.5514   -0.5485 C   0  0  0  0  0  0  0  0  0  0  0  0
   -2.4506   -8.7079    0.7806 C   0  0  0  0  0  0  0  0  0  0  0  0
   -0.5699   -8.1542   -4.4269 O   0  0  0  0  0  0  0  0  0  0  0  0
  1  2  1  0
  1  3  1  0
  2  7  2  0
  6  8  1  0
  7  8  1  0
  7 12  1  0
 11 13  1  0
 18 19  1  0
 15 20  1  0
  3  4  1  0
 13 14  2  0
 14 15  1  0
 15 16  2  0
 16 17  1  0
 17 18  2  0
 13 18  1  0
  4  5  2  0
  5  9  1  0
  9 10  2  0
 10 11  1  0
  6 11  2  0
  4  6  1  0
M  END

$$$$
No_2614-/export/home/yangzhenyu/potential_scad_32_flow//YTHDC2/2024-12-06-03-22-00/
     RDKit          3D

 18 20  0  0  0  0  0  0  0  0999 V2000
    1.1787   -8.0297    3.5154 C   0  0  0  0  0  0  0  0  0  0  0  0
    1.1048   -9.2215    3.2892 C   0  0  0  0  0  0  0  0  0  0  0  0
    1.3627  -10.1721    4.3044 C   0  0  0  0  0  0  0  0  0  0  0  0
    1.0682  -11.5187    4.0618 C   0  0  0  0  0  0  0  0  0  0  0  0
    0.6332  -11.9655    2.9682 C   0  0  0  0  0  0  0  0  0  0  0  0
    0.4776  -11.1308    1.9203 C   0  0  0  0  0  0  0  0  0  0  0  0
    0.7470   -9.8274    2.0368 C   0  0  0  0  0  0  0  0  0  0  0  0
    0.5535   -7.1314    2.6862 C   0  0  0  0  0  0  0  0  0  0  0  0
    0.2950   -7.6000    1.3276 C   0  0  0  0  0  0  0  0  0  0  0  0
    0.2692   -8.8631    1.0973 C   0  0  0  0  0  0  0  0  0  0  0  0
    0.4787  -13.3960    2.7088 C   0  0  0  0  0  0  0  0  0  0  0  0
   -0.7335  -13.8737    2.3241 C   0  0  0  0  0  0  0  0  0  0  0  0
    1.5400  -14.2651    2.6845 C   0  0  0  0  0  0  0  0  0  0  0  0
    1.2983  -15.6277    2.5822 C   0  0  0  0  0  0  0  0  0  0  0  0
    0.1618  -16.1083    2.3084 C   0  0  0  0  0  0  0  0  0  0  0  0
   -0.9052  -15.1855    2.2263 C   0  0  0  0  0  0  0  0  0  0  0  0
   -0.1225   -9.2587   -0.2051 N   0  0  0  0  0  0  0  0  0  0  0  0
   -0.7696   -8.5276   -1.0639 C   0  0  0  0  0  0  0  0  0  0  0  0
  5 11  1  0
 10 17  1  0
 17 18  1  0
  2  3  1  0
  3  4  2  0
  4  5  1  0
  5  6  2  0
  6  7  1  0
  1  2  2  0
  2  7  1  0
  7 10  2  0
  9 10  1  0
  8  9  2  0
  1  8  1  0
 11 12  2  0
 12 16  1  0
 15 16  2  0
 14 15  1  0
 13 14  2  0
 11 13  1  0
M  END

$$$$
No_2615-/export/home/yangzhenyu/potential_scad_32_flow//YTHDC2/2024-12-06-03-22-00/
     RDKit          3D

 19 20  0  0  1  0  0  0  0  0999 V2000
    1.1787   -8.0297    3.5154 N   0  0  0  0  0  0  0  0  0  0  0  0
    1.0818   -9.0751    3.2053 C   0  0  0  0  0  0  0  0  0  0  0  0
    1.5216  -10.1164    3.9747 C   0  0  0  0  0  0  0  0  0  0  0  0
    1.4420  -11.4363    3.6461 C   0  0  0  0  0  0  0  0  0  0  0  0
    0.5969  -11.7648    2.6785 C   0  0  0  0  0  0  0  0  0  0  0  0
    0.0096  -10.8332    1.9506 C   0  0  0  0  0  0  0  0  0  0  0  0
    0.3359   -9.5186    2.1388 C   0  0  0  0  0  0  0  0  0  0  0  0
    0.8819   -6.9011    2.6487 S   0  0  0  0  0  0  0  0  0  0  0  0
    0.4383   -7.2113    1.3104 C   0  0  0  0  0  0  0  0  0  0  0  0
    0.0922   -8.5618    1.0844 C   0  0  1  0  0  0  0  0  0  0  0  0
    1.2408   -5.5098    2.8920 O   0  0  0  0  0  0  0  0  0  0  0  0
   -0.3713   -8.9385   -0.1215 C   0  0  0  0  0  0  0  0  0  0  0  0
   -1.7163   -9.0840   -0.3378 O   0  0  0  0  0  0  0  0  0  0  0  0
    0.3932   -9.0198   -1.2272 O   0  0  0  0  0  0  0  0  0  0  0  0
    0.3405  -13.1950    2.4316 C   0  0  0  0  0  0  0  0  0  0  0  0
    0.5832  -13.8113    1.6290 C   0  0  0  0  0  0  0  0  0  0  0  0
    1.4254  -13.1981    0.4509 C   0  0  0  0  0  0  0  0  0  0  0  0
    0.5086  -15.3119    1.4955 C   0  0  0  0  0  0  0  0  0  0  0  0
   -0.3153  -15.8456    0.7682 N   0  0  0  0  0  0  0  0  0  0  0  0
  1  2  1  0
  1  8  1  0
  8  9  1  6
  7 10  1  0
  9 10  1  0
  8 11  2  0
 10 12  1  6
 12 13  2  0
 12 14  1  0
  5 15  1  0
 15 16  2  3
 16 17  1  0
 16 18  1  0
 18 19  1  0
  2  3  2  0
  3  4  1  0
  4  5  2  0
  5  6  1  0
  6  7  2  0
  2  7  1  0
M  END

$$$$
No_2616-/export/home/yangzhenyu/potential_scad_32_flow//YTHDC2/2024-12-06-03-22-00/
     RDKit          3D

 19 20  0  0  0  0  0  0  0  0999 V2000
    1.1787   -8.0297    3.5154 C   0  0  0  0  0  0  0  0  0  0  0  0
    1.1048   -9.2215    3.2892 C   0  0  0  0  0  0  0  0  0  0  0  0
    1.3627  -10.1721    4.3044 C   0  0  0  0  0  0  0  0  0  0  0  0
    2.3720  -10.8948    4.2468 C   0  0  0  0  0  0  0  0  0  0  0  0
    0.8234   -7.0464    2.5717 C   0  0  0  0  0  0  0  0  0  0  0  0
    0.4328   -7.4736    1.3042 C   0  0  0  0  0  0  0  0  0  0  0  0
    0.3532   -8.7488    0.9919 C   0  0  0  0  0  0  0  0  0  0  0  0
    0.7039   -9.7094    1.9672 C   0  0  0  0  0  0  0  0  0  0  0  0
    0.6986  -10.9809    1.7122 C   0  0  0  0  0  0  0  0  0  0  0  0
   -0.1824  -11.8267    2.1190 C   0  0  0  0  0  0  0  0  0  0  0  0
   -0.0651  -13.2415    1.9847 C   0  0  0  0  0  0  0  0  0  0  0  0
   -1.0025  -14.1068    2.5488 S   0  0  0  0  0  0  0  0  0  0  0  0
   -2.1465  -12.9234    2.8898 C   0  0  0  0  0  0  0  0  0  0  0  0
   -1.5108  -11.6635    2.5434 N   0  0  0  0  0  0  0  0  0  0  0  0
   -3.3072  -12.9046    3.3728 O   0  0  0  0  0  0  0  0  0  0  0  0
    1.6897  -11.3519    0.7936 O   0  0  0  0  0  0  0  0  0  0  0  0
    0.9755   -5.3759    2.8562 O   0  0  0  0  0  0  0  0  0  0  0  0
    2.5978  -11.7788    3.6839 O   0  0  0  0  0  0  0  0  0  0  0  0
    3.2854  -10.7453    5.4936 O   0  0  0  0  0  0  0  0  0  0  0  0
  2  3  1  0
  3  4  1  0
  8  9  1  0
  9 10  1  0
 10 11  2  0
 11 12  1  0
 12 13  1  0
 10 14  1  0
 13 14  1  0
 13 15  2  0
  9 16  2  0
  5 17  1  0
  4 18  2  0
  4 19  1  0
  1  2  2  0
  2  8  1  0
  7  8  2  0
  6  7  1  0
  5  6  2  0
  1  5  1  0
M  END

$$$$
No_2617-/export/home/yangzhenyu/potential_scad_32_flow//YTHDC2/2024-12-06-03-22-00/
     RDKit          3D

 19 20  0  0  1  0  0  0  0  0999 V2000
    1.1787   -8.0297    3.5154 C   0  0  0  0  0  0  0  0  0  0  0  0
    1.1048   -9.2215    3.2892 C   0  0  0  0  0  0  0  0  0  0  0  0
    1.2339   -9.7611    2.0189 C   0  0  0  0  0  0  0  0  0  0  0  0
    1.3583   -9.0036    0.9764 C   0  0  0  0  0  0  0  0  0  0  0  0
    1.5996   -7.6362    1.1311 C   0  0  0  0  0  0  0  0  0  0  0  0
    1.4830   -7.0928    2.3626 C   0  0  0  0  0  0  0  0  0  0  0  0
    1.5395   -5.7300    2.6182 C   0  0  0  0  0  0  0  0  0  0  0  0
    1.1775  -11.2233    1.8407 C   0  0  0  0  0  0  0  0  0  0  0  0
    1.9057  -12.1147    2.3397 C   0  0  0  0  0  0  0  0  0  0  0  0
    1.6867  -13.4551    2.0621 C   0  0  2  0  0  0  0  0  0  0  0  0
    0.7025  -13.8511    1.3021 C   0  0  0  0  0  0  0  0  0  0  0  0
   -0.1111  -12.9140    0.6527 C   0  0  0  0  0  0  0  0  0  0  0  0
    0.1535  -11.5434    0.9240 C   0  0  0  0  0  0  0  0  0  0  0  0
    1.2825   -4.8055    1.6933 O   0  0  0  0  0  0  0  0  0  0  0  0
    1.5277   -5.1878    3.9178 O   0  0  0  0  0  0  0  0  0  0  0  0
    2.5145  -14.4245    2.7645 O   0  0  0  0  0  0  0  0  0  0  0  0
   -0.7712  -10.7098    0.4390 O   0  0  0  0  0  0  0  0  0  0  0  0
   -1.0870  -13.3936   -0.2568 C   0  0  0  0  0  0  0  0  0  0  0  0
   -0.6804  -13.4978   -1.6147 O   0  0  0  0  0  0  0  0  0  0  0  0
  6  7  1  0
  3  8  1  0
  8  9  1  0
 10 11  1  0
  8 13  1  0
 12 13  1  0
  7 14  2  0
  7 15  1  0
 10 16  1  1
 13 17  2  0
 12 18  1  0
 18 19  2  0
  9 10  1  0
 11 12  1  0
  1  2  2  0
  2  3  1  0
  3  4  2  0
  4  5  1  0
  5  6  2  0
  1  6  1  0
M  END

$$$$
No_2618-/export/home/yangzhenyu/potential_scad_32_flow//YTHDC2/2024-12-06-03-22-00/
     RDKit          3D

 14 14  0  0  0  0  0  0  0  0999 V2000
    1.1787   -8.0297    3.5154 C   0  0  0  0  0  0  0  0  0  0  0  0
    1.1048   -9.2215    3.2892 C   0  0  0  0  0  0  0  0  0  0  0  0
    1.2339   -9.7611    2.0189 C   0  0  0  0  0  0  0  0  0  0  0  0
    1.3583   -9.0036    0.9764 C   0  0  0  0  0  0  0  0  0  0  0  0
    1.5996   -7.6362    1.1311 C   0  0  0  0  0  0  0  0  0  0  0  0
    1.4830   -7.0928    2.3626 C   0  0  0  0  0  0  0  0  0  0  0  0
    1.4898   -5.7274    2.6199 C   0  0  0  0  0  0  0  0  0  0  0  0
    1.1882  -11.3736    1.8424 C   0  0  0  0  0  0  0  0  0  0  0  0
    1.0670  -11.6643    0.5390 O   0  0  0  0  0  0  0  0  0  0  0  0
    1.3209  -12.0782    2.7410 O   0  0  0  0  0  0  0  0  0  0  0  0
    1.6854   -5.1771    3.8627 O   0  0  0  0  0  0  0  0  0  0  0  0
    1.3603   -4.8377    1.6603 O   0  0  0  0  0  0  0  0  0  0  0  0
    1.5575   -9.4296   -0.3544 C   0  0  0  0  0  0  0  0  0  0  0  0
    2.6026   -9.8224   -0.7210 O   0  0  0  0  0  0  0  0  0  0  0  0
  6  7  1  0
  3  8  1  0
  8  9  1  0
  8 10  2  0
  7 11  1  0
  7 12  2  0
  4 13  1  0
 13 14  1  0
  1  2  2  0
  2  3  1  0
  3  4  2  0
  4  5  1  0
  5  6  2  0
  1  6  1  0
M  END

$$$$
No_2619-/export/home/yangzhenyu/potential_scad_32_flow//YTHDC2/2024-12-06-03-22-00/
     RDKit          3D

 17 18  0  0  1  0  0  0  0  0999 V2000
    1.1787   -8.0297    3.5154 C   0  0  0  0  0  0  0  0  0  0  0  0
    1.1048   -9.2215    3.2892 C   0  0  0  0  0  0  0  0  0  0  0  0
    1.2339   -9.7611    2.0189 C   0  0  0  0  0  0  0  0  0  0  0  0
    1.3583   -9.0036    0.9764 C   0  0  0  0  0  0  0  0  0  0  0  0
    1.5996   -7.6362    1.1311 C   0  0  0  0  0  0  0  0  0  0  0  0
    1.4830   -7.0928    2.3626 C   0  0  0  0  0  0  0  0  0  0  0  0
    1.1008  -11.2372    1.8542 C   0  0  2  0  0  0  0  0  0  0  0  0
    0.4812  -11.6084    0.6459 F   0  0  0  0  0  0  0  0  0  0  0  0
    0.5220  -11.8870    2.7951 C   0  0  0  0  0  0  0  0  0  0  0  0
    1.4187  -12.8164    3.4852 C   0  0  0  0  0  0  0  0  0  0  0  0
    1.0216  -14.2127    2.9512 C   0  0  0  0  0  0  0  0  0  0  0  0
    0.9887  -14.4577    1.8730 C   0  0  0  0  0  0  0  0  0  0  0  0
    0.9070  -15.8169    1.5331 C   0  0  0  0  0  0  0  0  0  0  0  0
    0.8534  -16.8299    2.4859 C   0  0  0  0  0  0  0  0  0  0  0  0
    0.9392  -16.5374    3.7890 C   0  0  0  0  0  0  0  0  0  0  0  0
    1.0541  -15.1491    4.1354 C   0  0  0  0  0  0  0  0  0  0  0  0
    1.6249   -5.4644    2.7151 Cl  0  0  0  0  0  0  0  0  0  0  0  0
  3  7  1  0
  7  8  1  6
  7  9  1  0
  9 10  1  0
 10 11  1  0
  6 17  1  0
 11 12  2  0
 12 13  1  0
 13 14  2  0
 14 15  1  0
 15 16  2  0
 11 16  1  0
  1  2  2  0
  2  3  1  0
  3  4  2  0
  4  5  1  0
  5  6  2  0
  1  6  1  0
M  END

$$$$
No_2620-/export/home/yangzhenyu/potential_scad_32_flow//YTHDC2/2024-12-06-03-22-00/
     RDKit          3D

 18 18  0  0  0  0  0  0  0  0999 V2000
    1.1787   -8.0297    3.5154 C   0  0  0  0  0  0  0  0  0  0  0  0
    1.0491   -6.8434    2.9820 C   0  0  0  0  0  0  0  0  0  0  0  0
    0.0950   -8.8404    3.2292 C   0  0  0  0  0  0  0  0  0  0  0  0
   -0.9173   -8.4596    2.5152 C   0  0  0  0  0  0  0  0  0  0  0  0
   -1.0331   -7.2162    2.0653 C   0  0  0  0  0  0  0  0  0  0  0  0
   -0.0105   -6.3168    2.3081 C   0  0  0  0  0  0  0  0  0  0  0  0
    0.0485   -4.9783    1.8782 C   0  0  0  0  0  0  0  0  0  0  0  0
   -0.6974   -4.6139    0.8644 O   0  0  0  0  0  0  0  0  0  0  0  0
    1.2383   -4.1589    1.9599 O   0  0  0  0  0  0  0  0  0  0  0  0
    0.1492  -10.2817    3.6478 C   0  0  0  0  0  0  0  0  0  0  0  0
    1.2086  -10.9361    4.1009 C   0  0  0  0  0  0  0  0  0  0  0  0
    1.1085  -12.3189    4.3561 C   0  0  0  0  0  0  0  0  0  0  0  0
    0.9660  -13.0493    3.1826 C   0  0  0  0  0  0  0  0  0  0  0  0
    0.1288  -12.5876    2.2330 C   0  0  0  0  0  0  0  0  0  0  0  0
   -0.2479  -13.3233    1.0992 C   0  0  0  0  0  0  0  0  0  0  0  0
   -1.0231  -12.5868    0.2054 C   0  0  0  0  0  0  0  0  0  0  0  0
   -1.4187  -13.3704   -0.8150 C   0  0  0  0  0  0  0  0  0  0  0  0
   -1.0303  -14.6490   -1.0252 C   0  0  0  0  0  0  0  0  0  0  0  0
  6  7  1  0
  7  8  2  0
  7  9  1  0
  3 10  1  0
 10 11  2  3
 11 12  1  0
 12 13  2  3
 13 14  1  0
 14 15  2  3
 15 16  1  0
 16 17  2  3
 17 18  1  0
  1  2  2  0
  2  6  1  0
  5  6  2  0
  4  5  1  0
  3  4  2  0
  1  3  1  0
M  END

$$$$
No_2621-/export/home/yangzhenyu/potential_scad_32_flow//YTHDC2/2024-12-06-03-22-00/
     RDKit          3D

 18 18  0  0  0  0  0  0  0  0999 V2000
    1.1787   -8.0297    3.5154 C   0  0  0  0  0  0  0  0  0  0  0  0
    1.1048   -9.2215    3.2892 C   0  0  0  0  0  0  0  0  0  0  0  0
    1.2339   -9.7611    2.0189 C   0  0  0  0  0  0  0  0  0  0  0  0
    1.3583   -9.0036    0.9764 C   0  0  0  0  0  0  0  0  0  0  0  0
    1.5996   -7.6362    1.1311 C   0  0  0  0  0  0  0  0  0  0  0  0
    1.4830   -7.0928    2.3626 C   0  0  0  0  0  0  0  0  0  0  0  0
    1.4898   -5.7274    2.6199 C   0  0  0  0  0  0  0  0  0  0  0  0
    1.1681  -11.2222    1.8390 C   0  0  0  0  0  0  0  0  0  0  0  0
    0.7145  -11.5870    0.5424 O   0  0  0  0  0  0  0  0  0  0  0  0
    2.0067  -12.0298    2.4274 N   0  0  0  0  0  0  0  0  0  0  0  0
    1.9152  -13.3994    2.2381 C   0  0  0  0  0  0  0  0  0  0  0  0
    1.0522  -14.0707    3.2678 C   0  0  0  0  0  0  0  0  0  0  0  0
    0.9219  -15.4547    3.0842 O   0  0  0  0  0  0  0  0  0  0  0  0
    0.6835   -4.9780    2.7147 C   0  0  0  0  0  0  0  0  0  0  0  0
    0.6851   -3.4928    2.9360 C   0  0  0  0  0  0  0  0  0  0  0  0
    0.0362  -16.0208    3.6936 C   0  0  0  0  0  0  0  0  0  0  0  0
   -0.7957   -5.4225    2.3624 C   0  0  0  0  0  0  0  0  0  0  0  0
   -1.6727   -5.1830    2.8057 C   0  0  0  0  0  0  0  0  0  0  0  0
  6  7  1  0
  3  8  1  0
  8  9  2  0
  8 10  1  0
 10 11  1  0
 11 12  1  0
 12 13  1  0
  7 14  2  3
 14 15  1  0
 13 16  1  0
 14 17  1  0
 17 18  2  0
  1  2  2  0
  2  3  1  0
  3  4  2  0
  4  5  1  0
  5  6  2  0
  1  6  1  0
M  END

$$$$
No_2622-/export/home/yangzhenyu/potential_scad_32_flow//YTHDC2/2024-12-06-03-22-00/
     RDKit          3D

 16 17  0  0  1  0  0  0  0  0999 V2000
    1.1787   -8.0297    3.5154 C   0  0  0  0  0  0  0  0  0  0  0  0
    1.1048   -9.2215    3.2892 C   0  0  0  0  0  0  0  0  0  0  0  0
    1.3627  -10.1721    4.3044 C   0  0  0  0  0  0  0  0  0  0  0  0
    1.7354  -11.4730    3.9023 C   0  0  0  0  0  0  0  0  0  0  0  0
    1.8080  -11.8127    2.7216 C   0  0  0  0  0  0  0  0  0  0  0  0
    1.5854  -11.0021    1.7249 C   0  0  0  0  0  0  0  0  0  0  0  0
    1.3573   -9.7389    1.9287 C   0  0  0  0  0  0  0  0  0  0  0  0
    1.2865   -8.8078    0.9161 C   0  0  0  0  0  0  0  0  0  0  0  0
    1.6845   -9.1638   -0.2896 O   0  0  0  0  0  0  0  0  0  0  0  0
    0.9531   -7.5121    1.0883 C   0  0  0  0  0  0  0  0  0  0  0  0
    0.9076   -7.0289    2.4159 C   0  0  2  0  0  0  0  0  0  0  0  0
    0.7839   -5.6649    2.6528 C   0  0  0  0  0  0  0  0  0  0  0  0
    2.0650  -13.2223    2.3602 N   0  0  0  0  0  0  0  0  0  0  0  0
   -0.3430   -5.0442    2.1046 O   0  0  0  0  0  0  0  0  0  0  0  0
    1.8015   -4.8211    3.0653 O   0  0  0  0  0  0  0  0  0  0  0  0
    2.1041  -13.7470    1.0966 O   0  0  0  0  0  0  0  0  0  0  0  0
  1  2  1  0
  7  8  1  0
  8  9  2  0
  8 10  1  0
  1 11  1  0
 10 11  1  0
 11 12  1  6
  5 13  1  0
 12 14  2  0
 12 15  1  0
 13 16  2  0
  2  3  2  0
  3  4  1  0
  4  5  2  0
  5  6  1  0
  6  7  2  0
  2  7  1  0
M  END

$$$$
No_2623-/export/home/yangzhenyu/potential_scad_32_flow//YTHDC2/2024-12-06-03-22-00/
     RDKit          3D

 19 20  0  0  0  0  0  0  0  0999 V2000
    1.1787   -8.0297    3.5154 C   0  0  0  0  0  0  0  0  0  0  0  0
    1.1048   -9.2215    3.2892 C   0  0  0  0  0  0  0  0  0  0  0  0
    1.2339   -9.7611    2.0189 C   0  0  0  0  0  0  0  0  0  0  0  0
    1.3583   -9.0036    0.9764 C   0  0  0  0  0  0  0  0  0  0  0  0
    1.5996   -7.6362    1.1311 C   0  0  0  0  0  0  0  0  0  0  0  0
    1.4830   -7.0928    2.3626 C   0  0  0  0  0  0  0  0  0  0  0  0
    1.5395   -5.7300    2.6182 C   0  0  0  0  0  0  0  0  0  0  0  0
    1.1775  -11.2233    1.8407 C   0  0  0  0  0  0  0  0  0  0  0  0
    0.5085  -11.9762    2.1989 C   0  0  0  0  0  0  0  0  0  0  0  0
    0.4247  -13.3704    2.0465 C   0  0  0  0  0  0  0  0  0  0  0  0
    1.6054  -14.1557    2.4664 C   0  0  0  0  0  0  0  0  0  0  0  0
    1.8180  -15.4260    2.0939 C   0  0  0  0  0  0  0  0  0  0  0  0
    0.9438  -16.1028    1.4958 C   0  0  0  0  0  0  0  0  0  0  0  0
   -0.2598  -15.5795    1.2163 C   0  0  0  0  0  0  0  0  0  0  0  0
   -0.4852  -14.2047    1.4619 C   0  0  0  0  0  0  0  0  0  0  0  0
   -1.7693  -13.7278    1.3235 C   0  0  0  0  0  0  0  0  0  0  0  0
   -2.5926  -13.3779    2.2686 C   0  0  0  0  0  0  0  0  0  0  0  0
   -3.2815  -14.0701    2.8679 C   0  0  0  0  0  0  0  0  0  0  0  0
   -3.0596  -15.5282    2.7105 N   0  0  0  0  0  0  0  0  0  0  0  0
  6  7  1  0
  3  8  1  0
  8  9  2  3
  9 10  1  0
 15 16  1  0
 16 17  1  0
 17 18  1  0
 18 19  1  0
  1  2  2  0
  2  3  1  0
  3  4  2  0
  4  5  1  0
  5  6  2  0
  1  6  1  0
 10 11  2  0
 11 12  1  0
 12 13  2  0
 13 14  1  0
 14 15  2  0
 10 15  1  0
M  END

$$$$
No_2624-/export/home/yangzhenyu/potential_scad_32_flow//YTHDC2/2024-12-06-03-22-00/
     RDKit          3D

 12 13  0  0  0  0  0  0  0  0999 V2000
    1.1787   -8.0297    3.5154 C   0  0  0  0  0  0  0  0  0  0  0  0
    1.1048   -9.2215    3.2892 C   0  0  0  0  0  0  0  0  0  0  0  0
    1.3627  -10.1721    4.3044 C   0  0  0  0  0  0  0  0  0  0  0  0
    1.0682  -11.5187    4.0618 C   0  0  0  0  0  0  0  0  0  0  0  0
    0.6332  -11.9655    2.9682 C   0  0  0  0  0  0  0  0  0  0  0  0
    0.4776  -11.1308    1.9203 C   0  0  0  0  0  0  0  0  0  0  0  0
    0.7470   -9.8274    2.0368 C   0  0  0  0  0  0  0  0  0  0  0  0
    1.0387   -7.0301    2.5175 N   0  0  0  0  0  0  0  0  0  0  0  0
    0.9298   -7.5514    1.2672 C   0  0  0  0  0  0  0  0  0  0  0  0
    0.7823   -8.7713    0.9713 C   0  0  0  0  0  0  0  0  0  0  0  0
    0.6486   -9.2285   -0.2792 C   0  0  0  0  0  0  0  0  0  0  0  0
   -0.7454   -9.4326   -0.6987 N   0  0  0  0  0  0  0  0  0  0  0  0
 10 11  1  0
 11 12  1  0
  2  3  1  0
  3  4  2  0
  4  5  1  0
  5  6  2  0
  6  7  1  0
  1  2  2  0
  2  7  1  0
  7 10  2  0
  9 10  1  0
  8  9  2  0
  1  8  1  0
M  END

$$$$
No_2625-/export/home/yangzhenyu/potential_scad_32_flow//YTHDC2/2024-12-06-03-22-00/
     RDKit          3D

 19 20  0  0  0  0  0  0  0  0999 V2000
    1.1787   -8.0297    3.5154 C   0  0  0  0  0  0  0  0  0  0  0  0
    1.0491   -6.8434    2.9820 C   0  0  0  0  0  0  0  0  0  0  0  0
    0.0950   -8.8404    3.2292 C   0  0  0  0  0  0  0  0  0  0  0  0
   -0.9173   -8.4596    2.5152 C   0  0  0  0  0  0  0  0  0  0  0  0
   -1.0331   -7.2162    2.0653 C   0  0  0  0  0  0  0  0  0  0  0  0
    0.1897   -6.3124    2.3579 C   0  0  0  0  0  0  0  0  0  0  0  0
    0.1193  -10.2475    3.6957 C   0  0  0  0  0  0  0  0  0  0  0  0
    1.2103  -10.8364    4.0231 C   0  0  0  0  0  0  0  0  0  0  0  0
    1.0317  -12.3055    4.3670 C   0  0  0  0  0  0  0  0  0  0  0  0
   -0.0208  -12.8683    3.9116 C   0  0  0  0  0  0  0  0  0  0  0  0
   -1.0883  -12.2918    3.5055 C   0  0  0  0  0  0  0  0  0  0  0  0
   -1.0734  -10.9607    3.3452 C   0  0  0  0  0  0  0  0  0  0  0  0
    0.0667   -4.9693    1.8580 O   0  0  0  0  0  0  0  0  0  0  0  0
    0.8751   -4.0490    2.4438 C   0  0  0  0  0  0  0  0  0  0  0  0
   -2.1078   -6.6207    1.3925 C   0  0  0  0  0  0  0  0  0  0  0  0
   -3.2043   -6.3249    1.7283 C   0  0  0  0  0  0  0  0  0  0  0  0
   -4.2735   -6.0353    0.9298 C   0  0  0  0  0  0  0  0  0  0  0  0
   -4.1624   -6.3384   -0.3739 C   0  0  0  0  0  0  0  0  0  0  0  0
   -2.9431   -6.6935   -0.8948 C   0  0  0  0  0  0  0  0  0  0  0  0
  3  7  1  0
  6 13  1  0
 13 14  1  0
  5 15  1  0
 15 16  2  3
 16 17  1  0
 17 18  2  3
 18 19  1  0
  1  2  2  0
  2  6  1  0
  5  6  2  0
  4  5  1  0
  3  4  2  0
  1  3  1  0
  7  8  2  0
  8  9  1  0
  9 10  2  0
 10 11  1  0
 11 12  2  0
  7 12  1  0
M  END

$$$$
No_2626-/export/home/yangzhenyu/potential_scad_32_flow//YTHDC2/2024-12-06-03-22-00/
     RDKit          3D

 21 22  0  0  1  0  0  0  0  0999 V2000
    1.1787   -8.0297    3.5154 C   0  0  0  0  0  0  0  0  0  0  0  0
    1.1048   -9.2215    3.2892 C   0  0  0  0  0  0  0  0  0  0  0  0
    1.3627  -10.1721    4.3044 C   0  0  0  0  0  0  0  0  0  0  0  0
    1.0682  -11.5187    4.0618 C   0  0  0  0  0  0  0  0  0  0  0  0
    0.6332  -11.9655    2.9682 C   0  0  0  0  0  0  0  0  0  0  0  0
    0.6698  -11.3145    2.0035 C   0  0  0  0  0  0  0  0  0  0  0  0
    0.9069   -9.8966    2.0084 C   0  0  0  0  0  0  0  0  0  0  0  0
    1.0124   -7.0534    2.4581 C   0  0  0  0  0  0  0  0  0  0  0  0
    0.9325   -7.6170    1.1269 C   0  0  0  0  0  0  0  0  0  0  0  0
    0.8653   -8.9137    0.9167 C   0  0  0  0  0  0  0  0  0  0  0  0
    0.5449  -13.4060    2.7637 C   0  0  0  0  0  0  0  0  0  0  0  0
    0.9771  -14.0233    1.6973 C   0  0  1  0  0  0  0  0  0  0  0  0
    2.3573  -13.9421    1.3578 C   0  0  0  0  0  0  0  0  0  0  0  0
    0.6338   -9.3953   -0.3820 C   0  0  0  0  0  0  0  0  0  0  0  0
   -0.2310   -8.8489   -1.1403 N   0  0  0  0  0  0  0  0  0  0  0  0
   -1.2505   -8.2369   -0.9274 C   0  0  0  0  0  0  0  0  0  0  0  0
   -2.1835   -8.1944   -1.6722 O   0  0  0  0  0  0  0  0  0  0  0  0
   -1.3781   -7.7294    0.5189 O   0  0  0  0  0  0  0  0  0  0  0  0
    0.7092  -15.5181    1.6229 C   0  0  0  0  0  0  0  0  0  0  0  0
   -0.0487  -15.9885    0.8139 C   0  0  0  0  0  0  0  0  0  0  0  0
   -0.2035  -17.2373    0.6170 C   0  0  0  0  0  0  0  0  0  0  0  0
  5 11  1  0
 11 12  1  0
 12 13  1  1
 10 14  1  0
 14 15  1  0
 15 16  1  0
 16 17  2  0
 16 18  1  0
 12 19  1  0
 19 20  1  0
 20 21  2  0
  2  3  1  0
  3  4  2  0
  4  5  1  0
  5  6  2  0
  6  7  1  0
  1  2  2  0
  2  7  1  0
  7 10  2  0
  9 10  1  0
  8  9  2  0
  1  8  1  0
M  END

$$$$
No_2627-/export/home/yangzhenyu/potential_scad_32_flow//YTHDC2/2024-12-06-03-22-00/
     RDKit          3D

 15 16  0  0  0  0  0  0  0  0999 V2000
    1.1787   -8.0297    3.5154 C   0  0  0  0  0  0  0  0  0  0  0  0
    1.0491   -6.8434    2.9820 C   0  0  0  0  0  0  0  0  0  0  0  0
    0.9905   -9.0774    2.6527 C   0  0  0  0  0  0  0  0  0  0  0  0
    0.7897   -8.9519    1.3691 C   0  0  0  0  0  0  0  0  0  0  0  0
    0.7018   -7.7198    0.7892 C   0  0  0  0  0  0  0  0  0  0  0  0
    0.8918   -6.5957    1.6117 C   0  0  0  0  0  0  0  0  0  0  0  0
    1.0998  -10.4710    3.2437 C   0  0  0  0  0  0  0  0  0  0  0  0
    0.0472  -11.2546    3.3963 C   0  0  0  0  0  0  0  0  0  0  0  0
    0.1622  -12.5732    3.4140 C   0  0  0  0  0  0  0  0  0  0  0  0
    1.4182  -13.1957    3.4048 C   0  0  0  0  0  0  0  0  0  0  0  0
    2.1789  -12.8763    2.7170 C   0  0  0  0  0  0  0  0  0  0  0  0
    2.2524  -11.2965    2.5835 C   0  0  0  0  0  0  0  0  0  0  0  0
    0.8837   -5.2636    1.1801 O   0  0  0  0  0  0  0  0  0  0  0  0
    1.1918  -14.6396    3.2980 N   0  0  0  0  0  0  0  0  0  0  0  0
    2.0155  -15.5533    2.8360 O   0  0  0  0  0  0  0  0  0  0  0  0
  1  2  1  0
  3  4  1  0
  2  6  1  0
  5  6  1  0
  3  7  1  0
  6 13  2  0
 10 14  1  0
 14 15  2  0
  1  3  1  0
  4  5  1  0
  7  8  2  0
  8  9  1  0
  9 10  2  0
 10 11  1  0
 11 12  2  0
  7 12  1  0
M  END

$$$$
No_2628-/export/home/yangzhenyu/potential_scad_32_flow//YTHDC2/2024-12-06-03-22-00/
     RDKit          3D

 18 19  0  0  1  0  0  0  0  0999 V2000
    1.1787   -8.0297    3.5154 C   0  0  2  0  0  0  0  0  0  0  0  0
    1.1048   -9.2215    3.2892 F   0  0  0  0  0  0  0  0  0  0  0  0
    0.0668   -7.3577    3.4997 C   0  0  0  0  0  0  0  0  0  0  0  0
   -0.9580   -8.1684    3.6884 C   0  0  0  0  0  0  0  0  0  0  0  0
   -1.2353   -8.4505    5.0290 C   0  0  0  0  0  0  0  0  0  0  0  0
    2.1641   -7.4245    3.0400 C   0  0  0  0  0  0  0  0  0  0  0  0
   -2.3715   -9.2342    5.3011 C   0  0  0  0  0  0  0  0  0  0  0  0
   -3.0703   -9.7311    4.3029 C   0  0  0  0  0  0  0  0  0  0  0  0
   -2.7319   -9.5832    3.0328 C   0  0  0  0  0  0  0  0  0  0  0  0
   -1.6749   -8.7286    2.7497 C   0  0  0  0  0  0  0  0  0  0  0  0
   -4.1050  -10.6852    4.5065 O   0  0  0  0  0  0  0  0  0  0  0  0
   -5.0936  -10.4192    5.0769 C   0  0  0  0  0  0  0  0  0  0  0  0
   -5.9888  -11.4530    5.4692 C   0  0  0  0  0  0  0  0  0  0  0  0
   -7.1299  -11.1740    6.3767 C   0  0  0  0  0  0  0  0  0  0  0  0
   -7.4066   -9.8470    6.6678 C   0  0  0  0  0  0  0  0  0  0  0  0
   -6.5278   -8.8241    6.2406 C   0  0  0  0  0  0  0  0  0  0  0  0
   -5.4253   -9.1243    5.5015 C   0  0  0  0  0  0  0  0  0  0  0  0
   -5.7473  -12.7834    5.1685 C   0  0  0  0  0  0  0  0  0  0  0  0
  1  2  1  0
  1  3  1  0
  3  4  1  0
  1  6  1  6
  8 11  1  0
 11 12  1  0
 13 18  1  0
 12 13  2  0
 13 14  1  0
 14 15  2  0
 15 16  1  0
 16 17  2  0
 12 17  1  0
  4  5  2  0
  5  7  1  0
  7  8  2  0
  8  9  1  0
  9 10  2  0
  4 10  1  0
M  END

$$$$
No_2629-/export/home/yangzhenyu/potential_scad_32_flow//YTHDC2/2024-12-06-03-22-00/
     RDKit          3D

 19 20  0  0  0  0  0  0  0  0999 V2000
    1.1787   -8.0297    3.5154 C   0  0  0  0  0  0  0  0  0  0  0  0
    1.1048   -9.2215    3.2892 C   0  0  0  0  0  0  0  0  0  0  0  0
    1.0240   -9.7790    2.0239 C   0  0  0  0  0  0  0  0  0  0  0  0
    1.1393   -9.0211    0.9686 C   0  0  0  0  0  0  0  0  0  0  0  0
    1.4051   -7.6500    1.1251 C   0  0  0  0  0  0  0  0  0  0  0  0
    1.4868   -7.1041    2.3534 C   0  0  0  0  0  0  0  0  0  0  0  0
    0.9659  -10.1420    4.4543 C   0  0  0  0  0  0  0  0  0  0  0  0
    1.7734  -11.5020    4.1857 N   0  0  0  0  0  0  0  0  0  0  0  0
    1.1663   -9.5417   -0.4598 C   0  0  0  0  0  0  0  0  0  0  0  0
    1.9665   -9.3308   -1.2744 Cl  0  0  0  0  0  0  0  0  0  0  0  0
   -0.0503  -10.1873   -0.6890 O   0  0  0  0  0  0  0  0  0  0  0  0
    1.1369  -12.4138    3.5759 C   0  0  0  0  0  0  0  0  0  0  0  0
    1.8079  -13.5147    3.0395 C   0  0  0  0  0  0  0  0  0  0  0  0
    1.0922  -14.6424    2.5855 C   0  0  0  0  0  0  0  0  0  0  0  0
   -0.1879  -14.7098    2.6465 C   0  0  0  0  0  0  0  0  0  0  0  0
   -0.9454  -13.5964    3.0995 C   0  0  0  0  0  0  0  0  0  0  0  0
   -0.3110  -12.4516    3.5454 C   0  0  0  0  0  0  0  0  0  0  0  0
    1.8766  -15.7475    2.1449 O   0  0  0  0  0  0  0  0  0  0  0  0
    1.5113   -5.6503    2.5910 O   0  0  0  0  0  0  0  0  0  0  0  0
  2  7  1  0
  7  8  1  0
  4  9  1  0
  9 10  1  0
  9 11  2  0
  8 12  1  0
 14 18  1  0
  6 19  1  0
 12 13  2  0
 13 14  1  0
 14 15  2  0
 15 16  1  0
 16 17  2  0
 12 17  1  0
  1  2  2  0
  2  3  1  0
  3  4  2  0
  4  5  1  0
  5  6  2  0
  1  6  1  0
M  END

$$$$
No_2630-/export/home/yangzhenyu/potential_scad_32_flow//YTHDC2/2024-12-06-03-22-00/
     RDKit          3D

 15 16  0  0  0  0  0  0  0  0999 V2000
    1.1787   -8.0297    3.5154 C   0  0  0  0  0  0  0  0  0  0  0  0
    1.0491   -6.8434    2.9820 C   0  0  0  0  0  0  0  0  0  0  0  0
    0.9905   -9.0774    2.6527 C   0  0  0  0  0  0  0  0  0  0  0  0
    0.7897   -8.9519    1.3691 C   0  0  0  0  0  0  0  0  0  0  0  0
    0.7018   -7.7198    0.7892 C   0  0  0  0  0  0  0  0  0  0  0  0
    0.8918   -6.5957    1.6117 C   0  0  0  0  0  0  0  0  0  0  0  0
    1.0711  -10.4814    3.2282 C   0  0  0  0  0  0  0  0  0  0  0  0
   -0.1055  -11.1328    3.5223 C   0  0  0  0  0  0  0  0  0  0  0  0
   -0.1824  -12.4513    3.3816 C   0  0  0  0  0  0  0  0  0  0  0  0
    0.9472  -13.2655    3.1726 C   0  0  0  0  0  0  0  0  0  0  0  0
    2.1715  -12.6012    2.9116 C   0  0  0  0  0  0  0  0  0  0  0  0
    2.2064  -11.2741    2.8264 C   0  0  0  0  0  0  0  0  0  0  0  0
    0.8996  -14.6381    3.2447 N   0  0  0  0  0  0  0  0  0  0  0  0
   -0.0889  -15.3994    3.3545 O   0  0  0  0  0  0  0  0  0  0  0  0
    0.8447   -5.2762    1.1115 O   0  0  0  0  0  0  0  0  0  0  0  0
  3  7  1  0
 10 13  1  0
 13 14  2  0
  6 15  1  0
  1  2  2  0
  2  6  1  0
  5  6  2  0
  4  5  1  0
  3  4  2  0
  1  3  1  0
  7  8  2  0
  8  9  1  0
  9 10  2  0
 10 11  1  0
 11 12  2  0
  7 12  1  0
M  END

$$$$
No_2631-/export/home/yangzhenyu/potential_scad_32_flow//YTHDC2/2024-12-06-03-22-00/
     RDKit          3D

 19 21  0  0  0  0  0  0  0  0999 V2000
    1.1787   -8.0297    3.5154 C   0  0  0  0  0  0  0  0  0  0  0  0
    1.1048   -9.2215    3.2892 N   0  0  0  0  0  0  0  0  0  0  0  0
    1.0346   -9.7785    2.1176 C   0  0  0  0  0  0  0  0  0  0  0  0
    1.2597   -9.0826    1.0431 C   0  0  0  0  0  0  0  0  0  0  0  0
    1.5530   -7.7656    1.0977 C   0  0  0  0  0  0  0  0  0  0  0  0
    1.5300   -7.1323    2.3379 C   0  0  0  0  0  0  0  0  0  0  0  0
    1.6813   -5.7666    2.5762 C   0  0  0  0  0  0  0  0  0  0  0  0
    0.9576  -11.2422    2.1140 C   0  0  0  0  0  0  0  0  0  0  0  0
    1.9370  -12.0290    2.4379 C   0  0  0  0  0  0  0  0  0  0  0  0
    1.7573  -13.4162    2.2858 C   0  0  0  0  0  0  0  0  0  0  0  0
    0.5873  -13.9084    1.8749 C   0  0  0  0  0  0  0  0  0  0  0  0
   -0.4850  -13.1515    1.6321 C   0  0  0  0  0  0  0  0  0  0  0  0
   -0.3332  -11.7826    1.6717 C   0  0  0  0  0  0  0  0  0  0  0  0
    0.4201  -15.5377    1.8578 C   0  0  0  0  0  0  0  0  0  0  0  0
    0.8767  -16.2248    2.9479 C   0  0  0  0  0  0  0  0  0  0  0  0
    0.6477  -17.5297    3.0909 C   0  0  0  0  0  0  0  0  0  0  0  0
    0.0409  -18.1919    2.1110 C   0  0  0  0  0  0  0  0  0  0  0  0
   -0.3502  -17.5740    1.0087 C   0  0  0  0  0  0  0  0  0  0  0  0
   -0.2070  -16.1956    0.9068 C   0  0  0  0  0  0  0  0  0  0  0  0
  6  7  1  0
  3  8  1  0
 11 14  1  0
  1  2  2  0
  2  3  1  0
  3  4  2  0
  4  5  1  0
  5  6  2  0
  1  6  1  0
  8  9  2  0
  9 10  1  0
 10 11  2  0
 11 12  1  0
 12 13  2  0
  8 13  1  0
 14 15  2  0
 15 16  1  0
 16 17  2  0
 17 18  1  0
 18 19  2  0
 14 19  1  0
M  END

$$$$
No_2632-/export/home/yangzhenyu/potential_scad_32_flow//YTHDC2/2024-12-06-03-22-00/
     RDKit          3D

 19 20  0  0  1  0  0  0  0  0999 V2000
    1.1787   -8.0297    3.5154 C   0  0  0  0  0  0  0  0  0  0  0  0
    1.0491   -6.8434    2.9820 C   0  0  0  0  0  0  0  0  0  0  0  0
    1.9985   -8.9840    2.8958 C   0  0  2  0  0  0  0  0  0  0  0  0
    1.7297   -9.2108    1.6335 C   0  0  0  0  0  0  0  0  0  0  0  0
    1.7343   -8.0566    0.8408 C   0  0  1  0  0  0  0  0  0  0  0  0
    1.4996   -6.5076    2.0364 C   0  0  0  0  0  0  0  0  0  0  0  0
    1.5802   -6.8584    0.8700 C   0  0  0  0  0  0  0  0  0  0  0  0
    2.2270   -8.5830   -0.6071 C   0  0  0  0  0  0  0  0  0  0  0  0
    2.4422   -7.9290   -1.5862 O   0  0  0  0  0  0  0  0  0  0  0  0
    2.3790   -9.9056   -0.8549 O   0  0  0  0  0  0  0  0  0  0  0  0
    1.9123  -10.3569    3.5536 C   0  0  0  0  0  0  0  0  0  0  0  0
    1.3401  -11.4373    3.2712 C   0  0  0  0  0  0  0  0  0  0  0  0
    1.8869  -12.6877    3.1670 C   0  0  0  0  0  0  0  0  0  0  0  0
    1.3593  -13.6845    2.4493 C   0  0  0  0  0  0  0  0  0  0  0  0
    0.2371  -13.5494    1.8421 C   0  0  0  0  0  0  0  0  0  0  0  0
   -0.4094  -12.3475    1.8398 C   0  0  0  0  0  0  0  0  0  0  0  0
    0.1153  -11.2645    2.5489 C   0  0  0  0  0  0  0  0  0  0  0  0
    2.1686  -15.1386    2.4254 O   0  0  0  0  0  0  0  0  0  0  0  0
    2.8606  -10.4230    4.5762 O   0  0  0  0  0  0  0  0  0  0  0  0
  1  2  1  0
  1  3  1  0
  3  4  1  0
  4  5  1  0
  2  6  2  0
  5  7  1  0
  6  7  1  0
  5  8  1  1
  8  9  2  0
  8 10  1  0
  3 11  1  1
 11 12  1  0
 14 18  1  0
 11 19  2  0
 12 13  2  0
 13 14  1  0
 14 15  2  0
 15 16  1  0
 16 17  2  0
 12 17  1  0
M  END

$$$$
No_2633-/export/home/yangzhenyu/potential_scad_32_flow//YTHDC2/2024-12-06-03-22-00/
     RDKit          3D

 19 21  0  0  0  0  0  0  0  0999 V2000
    1.1787   -8.0297    3.5154 C   0  0  0  0  0  0  0  0  0  0  0  0
    1.1048   -9.2215    3.2892 C   0  0  0  0  0  0  0  0  0  0  0  0
    1.3627  -10.1721    4.3044 C   0  0  0  0  0  0  0  0  0  0  0  0
    1.7354  -11.4730    3.9023 C   0  0  0  0  0  0  0  0  0  0  0  0
    1.8080  -11.8127    2.7216 C   0  0  0  0  0  0  0  0  0  0  0  0
    1.5854  -11.0021    1.7249 C   0  0  0  0  0  0  0  0  0  0  0  0
    1.3573   -9.7389    1.9287 C   0  0  0  0  0  0  0  0  0  0  0  0
    1.2865   -8.8078    0.9161 C   0  0  0  0  0  0  0  0  0  0  0  0
    0.9210   -7.5140    1.1674 C   0  0  0  0  0  0  0  0  0  0  0  0
    1.0097   -7.0192    2.4369 C   0  0  0  0  0  0  0  0  0  0  0  0
    2.0228  -13.2586    2.4222 C   0  0  0  0  0  0  0  0  0  0  0  0
    1.7593  -14.1964    3.3244 C   0  0  0  0  0  0  0  0  0  0  0  0
    1.8334  -15.5686    2.9052 C   0  0  0  0  0  0  0  0  0  0  0  0
    2.4033  -15.8490    1.7562 C   0  0  0  0  0  0  0  0  0  0  0  0
    2.8532  -14.9911    0.9552 C   0  0  0  0  0  0  0  0  0  0  0  0
    2.6220  -13.5898    1.2288 C   0  0  0  0  0  0  0  0  0  0  0  0
    0.8828   -5.6073    2.6988 O   0  0  0  0  0  0  0  0  0  0  0  0
    1.4232   -9.2302   -0.5962 C   0  0  0  0  0  0  0  0  0  0  0  0
    0.2742   -9.5231   -1.1473 O   0  0  0  0  0  0  0  0  0  0  0  0
  5 11  1  0
 10 17  1  0
  8 18  1  0
 18 19  2  0
  1  2  2  0
  7  8  2  0
  8  9  1  0
  9 10  2  0
  1 10  1  0
  2  3  1  0
  3  4  2  0
  4  5  1  0
  5  6  2  0
  6  7  1  0
  2  7  1  0
 11 12  2  0
 12 13  1  0
 13 14  2  0
 14 15  1  0
 15 16  2  0
 11 16  1  0
M  END

$$$$
No_2634-/export/home/yangzhenyu/potential_scad_32_flow//YTHDC2/2024-12-06-03-22-00/
     RDKit          3D

 19 19  0  0  0  0  0  0  0  0999 V2000
    1.1787   -8.0297    3.5154 N   0  0  0  0  0  0  0  0  0  0  0  0
    1.0818   -9.0751    3.2053 C   0  0  0  0  0  0  0  0  0  0  0  0
    0.7576   -9.3725    1.9159 C   0  0  0  0  0  0  0  0  0  0  0  0
    0.8823   -8.4917    1.0547 C   0  0  0  0  0  0  0  0  0  0  0  0
    1.4631   -7.3107    1.2451 C   0  0  0  0  0  0  0  0  0  0  0  0
    1.6470   -6.9326    2.5669 C   0  0  0  0  0  0  0  0  0  0  0  0
    0.8161  -10.1250    4.2446 C   0  0  0  0  0  0  0  0  0  0  0  0
   -0.4877  -10.6098    4.4191 C   0  0  0  0  0  0  0  0  0  0  0  0
    1.9151  -10.7236    4.7966 C   0  0  0  0  0  0  0  0  0  0  0  0
    2.8187  -11.2330    4.6234 C   0  0  0  0  0  0  0  0  0  0  0  0
    0.8793   -8.8789   -0.4249 C   0  0  0  0  0  0  0  0  0  0  0  0
    1.7682   -8.8198   -1.2068 O   0  0  0  0  0  0  0  0  0  0  0  0
   -0.3539   -9.1201   -0.8666 O   0  0  0  0  0  0  0  0  0  0  0  0
   -0.7366  -11.8116    4.8087 C   0  0  0  0  0  0  0  0  0  0  0  0
   -1.6409   -9.5641    4.4205 C   0  0  0  0  0  0  0  0  0  0  0  0
   -1.5906   -8.3851    5.0037 O   0  0  0  0  0  0  0  0  0  0  0  0
   -2.8398   -9.9821    4.1162 N   0  0  0  0  0  0  0  0  0  0  0  0
   -3.9871   -9.2042    4.2671 C   0  0  0  0  0  0  0  0  0  0  0  0
   -4.7077   -9.4278    5.2940 C   0  0  0  0  0  0  0  0  0  0  0  0
  2  7  1  0
  7  8  2  3
  7  9  1  0
  9 10  3  0
  4 11  1  0
 11 12  2  0
 11 13  1  0
  8 14  1  0
  8 15  1  0
 15 16  2  0
 15 17  1  0
 17 18  1  0
 18 19  1  0
  1  2  2  0
  2  3  1  0
  3  4  2  0
  4  5  1  0
  5  6  2  0
  1  6  1  0
M  END

$$$$
No_2635-/export/home/yangzhenyu/potential_scad_32_flow//YTHDC2/2024-12-06-03-22-00/
     RDKit          3D

 19 20  0  0  1  0  0  0  0  0999 V2000
    1.1787   -8.0297    3.5154 C   0  0  0  0  0  0  0  0  0  0  0  0
    1.0491   -6.8434    2.9820 C   0  0  0  0  0  0  0  0  0  0  0  0
    0.9905   -9.0774    2.6527 C   0  0  0  0  0  0  0  0  0  0  0  0
    0.7897   -8.9519    1.3691 C   0  0  0  0  0  0  0  0  0  0  0  0
    0.7018   -7.7198    0.7892 C   0  0  0  0  0  0  0  0  0  0  0  0
    0.8918   -6.5957    1.6117 C   0  0  0  0  0  0  0  0  0  0  0  0
    1.0998  -10.4710    3.2437 C   0  0  0  0  0  0  0  0  0  0  0  0
    1.3102  -11.5554    2.5214 C   0  0  0  0  0  0  0  0  0  0  0  0
    1.4257  -12.8124    3.1919 C   0  0  0  0  0  0  0  0  0  0  0  0
    1.4301  -14.0627    2.4374 C   0  0  2  0  0  0  0  0  0  0  0  0
    0.8799   -5.2656    1.2046 C   0  0  0  0  0  0  0  0  0  0  0  0
    1.0419  -15.2242    3.0612 C   0  0  0  0  0  0  0  0  0  0  0  0
    1.4567  -16.5014    2.5928 C   0  0  0  0  0  0  0  0  0  0  0  0
    2.5166  -16.2209    1.5580 C   0  0  0  0  0  0  0  0  0  0  0  0
    2.5971  -14.6075    1.6834 C   0  0  0  0  0  0  0  0  0  0  0  0
   -0.1945   -4.7722    0.7102 O   0  0  0  0  0  0  0  0  0  0  0  0
    1.8550   -4.4644    1.4028 O   0  0  0  0  0  0  0  0  0  0  0  0
    1.1975  -17.7957    2.8423 C   0  0  0  0  0  0  0  0  0  0  0  0
    2.0280  -18.7560    2.6216 C   0  0  0  0  0  0  0  0  0  0  0  0
  3  7  1  0
  7  8  2  3
  8  9  1  0
 10  9  1  1
  6 11  1  0
 10 12  1  0
 12 13  2  0
 13 14  1  0
 10 15  1  0
 14 15  1  0
 11 16  2  0
 11 17  1  0
 13 18  1  0
 18 19  1  0
  1  2  2  0
  2  6  1  0
  5  6  2  0
  4  5  1  0
  3  4  2  0
  1  3  1  0
M  END

$$$$
No_2636-/export/home/yangzhenyu/potential_scad_32_flow//YTHDC2/2024-12-06-03-22-00/
     RDKit          3D

 20 21  0  0  1  0  0  0  0  0999 V2000
    1.1787   -8.0297    3.5154 C   0  0  0  0  0  0  0  0  0  0  0  0
    1.1048   -9.2215    3.2892 C   0  0  0  0  0  0  0  0  0  0  0  0
    1.2339   -9.7611    2.0189 C   0  0  0  0  0  0  0  0  0  0  0  0
    1.1954  -11.2312    1.8661 C   0  0  0  0  0  0  0  0  0  0  0  0
    1.5546  -12.1691    2.7931 C   0  0  0  0  0  0  0  0  0  0  0  0
    1.4918  -11.6215    4.1439 C   0  0  0  0  0  0  0  0  0  0  0  0
    1.2451  -10.2569    4.3641 C   0  0  0  0  0  0  0  0  0  0  0  0
    1.6305  -13.4515    2.4740 C   0  0  0  0  0  0  0  0  0  0  0  0
    0.7617   -7.0805    2.6017 C   0  0  0  0  0  0  0  0  0  0  0  0
    0.8952   -5.6123    2.7481 C   0  0  1  0  0  0  0  0  0  0  0  0
    1.1067  -14.3916    3.1723 C   0  0  0  0  0  0  0  0  0  0  0  0
    1.3907  -15.7812    2.9455 C   0  0  0  0  0  0  0  0  0  0  0  0
    2.2158  -16.1040    1.8570 C   0  0  0  0  0  0  0  0  0  0  0  0
    2.9438  -15.1291    1.2858 C   0  0  0  0  0  0  0  0  0  0  0  0
    2.7061  -13.8228    1.5193 C   0  0  0  0  0  0  0  0  0  0  0  0
    1.6757   -5.2365    3.8872 C   0  0  0  0  0  0  0  0  0  0  0  0
    0.4231   -4.7413    1.8876 C   0  0  0  0  0  0  0  0  0  0  0  0
   -0.4051   -5.1637    1.0586 C   0  0  0  0  0  0  0  0  0  0  0  0
   -1.1509   -4.4900    0.2748 C   0  0  0  0  0  0  0  0  0  0  0  0
   -0.8728   -3.0801    0.3387 C   0  0  0  0  0  0  0  0  0  0  0  0
  1  2  1  0
  5  8  1  0
  1  9  2  3
  9 10  1  0
 10 16  1  6
 10 17  1  0
 17 18  1  0
 18 19  2  3
 19 20  1  0
  2  3  2  0
  3  4  1  0
  4  5  2  0
  5  6  1  0
  6  7  2  0
  2  7  1  0
  8 11  2  0
 11 12  1  0
 12 13  2  0
 13 14  1  0
 14 15  2  0
  8 15  1  0
M  END

$$$$
No_2637-/export/home/yangzhenyu/potential_scad_32_flow//YTHDC2/2024-12-06-03-22-00/
     RDKit          3D

 19 20  0  0  0  0  0  0  0  0999 V2000
    1.1787   -8.0297    3.5154 C   0  0  0  0  0  0  0  0  0  0  0  0
    1.1048   -9.2215    3.2892 C   0  0  0  0  0  0  0  0  0  0  0  0
    1.2339   -9.7611    2.0189 C   0  0  0  0  0  0  0  0  0  0  0  0
    1.3583   -9.0036    0.9764 C   0  0  0  0  0  0  0  0  0  0  0  0
    1.7077   -9.6100   -0.3010 C   0  0  0  0  0  0  0  0  0  0  0  0
    1.3637   -7.1087    2.3226 C   0  0  0  0  0  0  0  0  0  0  0  0
    1.4257   -7.6645    1.0231 C   0  0  0  0  0  0  0  0  0  0  0  0
    1.9364   -8.8976   -1.3212 O   0  0  0  0  0  0  0  0  0  0  0  0
    1.2853  -10.8201   -0.4625 O   0  0  0  0  0  0  0  0  0  0  0  0
    1.1242  -10.1671    4.3962 Cl  0  0  0  0  0  0  0  0  0  0  0  0
    1.3287   -5.5880    2.5295 Cl  0  0  0  0  0  0  0  0  0  0  0  0
    1.3177  -11.3403    1.9306 C   0  0  0  0  0  0  0  0  0  0  0  0
    0.2483  -11.9615    1.5842 C   0  0  0  0  0  0  0  0  0  0  0  0
    0.4795  -13.3742    1.2855 C   0  0  0  0  0  0  0  0  0  0  0  0
    1.7725  -13.7548    1.5533 C   0  0  0  0  0  0  0  0  0  0  0  0
    2.8333  -13.0252    1.9323 C   0  0  0  0  0  0  0  0  0  0  0  0
    2.6073  -11.7334    2.0212 C   0  0  0  0  0  0  0  0  0  0  0  0
    1.9793  -15.1648    1.2231 I   0  0  0  0  0  0  0  0  0  0  0  0
   -0.6982  -14.1890    0.8953 O   0  0  0  0  0  0  0  0  0  0  0  0
  4  5  1  0
  5  8  2  0
  5  9  1  0
  2 10  1  0
  6 11  1  0
  3 12  1  0
 15 18  1  0
 14 19  1  0
 12 13  2  0
 13 14  1  0
 14 15  2  0
 15 16  1  0
 16 17  2  0
 12 17  1  0
  1  2  2  0
  2  3  1  0
  3  4  2  0
  4  7  1  0
  6  7  2  0
  1  6  1  0
M  END

$$$$
No_2638-/export/home/yangzhenyu/potential_scad_32_flow//YTHDC2/2024-12-06-03-22-00/
     RDKit          3D

 20 20  0  0  1  0  0  0  0  0999 V2000
    1.1787   -8.0297    3.5154 Cl  0  0  0  0  0  0  0  0  0  0  0  0
    0.6986   -7.2038    2.6409 C   0  0  2  0  0  0  0  0  0  0  0  0
    0.4102   -5.8836    2.8581 C   0  0  0  0  0  0  0  0  0  0  0  0
    1.4283   -4.9605    3.0639 C   0  0  0  0  0  0  0  0  0  0  0  0
   -0.2371   -7.9416    1.6989 C   0  0  0  0  0  0  0  0  0  0  0  0
    0.2141   -8.4330    0.5573 C   0  0  0  0  0  0  0  0  0  0  0  0
    1.6645   -8.2277    0.2453 C   0  0  0  0  0  0  0  0  0  0  0  0
    2.1989   -8.9233   -0.8690 C   0  0  0  0  0  0  0  0  0  0  0  0
    2.5614  -10.1644   -0.4872 O   0  0  0  0  0  0  0  0  0  0  0  0
    2.7924   -8.3788   -1.7748 O   0  0  0  0  0  0  0  0  0  0  0  0
    1.0654   -3.7735    3.2641 O   0  0  0  0  0  0  0  0  0  0  0  0
    0.5250   -3.2539    4.1536 C   0  0  0  0  0  0  0  0  0  0  0  0
   -0.5838   -9.1179   -0.2501 C   0  0  0  0  0  0  0  0  0  0  0  0
   -0.9671  -10.3868   -0.0145 C   0  0  0  0  0  0  0  0  0  0  0  0
   -1.6096  -11.1666   -0.9883 C   0  0  0  0  0  0  0  0  0  0  0  0
   -2.0117  -10.5293   -2.1107 C   0  0  0  0  0  0  0  0  0  0  0  0
   -1.7006   -9.2431   -2.4694 C   0  0  0  0  0  0  0  0  0  0  0  0
   -0.9863   -8.4728   -1.4472 C   0  0  0  0  0  0  0  0  0  0  0  0
   -1.5268   -7.9401    2.0483 O   0  0  0  0  0  0  0  0  0  0  0  0
   -2.0751   -8.5872   -3.6174 C   0  0  0  0  0  0  0  0  0  0  0  0
  2  1  1  1
  2  3  1  0
  3  4  1  0
  2  5  1  0
  5  6  1  0
  6  7  1  0
  7  8  1  0
  8  9  1  0
  8 10  2  0
  4 11  1  0
 11 12  1  0
  6 13  1  0
  5 19  2  0
 17 20  1  0
 13 14  2  0
 14 15  1  0
 15 16  2  0
 16 17  1  0
 17 18  2  0
 13 18  1  0
M  END

$$$$
No_2639-/export/home/yangzhenyu/potential_scad_32_flow//YTHDC2/2024-12-06-03-22-00/
     RDKit          3D

 19 21  0  0  0  0  0  0  0  0999 V2000
    1.1787   -8.0297    3.5154 C   0  0  0  0  0  0  0  0  0  0  0  0
    1.0491   -6.8434    2.9820 C   0  0  0  0  0  0  0  0  0  0  0  0
    0.0950   -8.8404    3.2292 C   0  0  0  0  0  0  0  0  0  0  0  0
   -0.9173   -8.4596    2.5152 C   0  0  0  0  0  0  0  0  0  0  0  0
   -1.0331   -7.2162    2.0653 C   0  0  0  0  0  0  0  0  0  0  0  0
   -0.0105   -6.3168    2.3081 C   0  0  0  0  0  0  0  0  0  0  0  0
    0.1465  -10.2446    3.6981 C   0  0  0  0  0  0  0  0  0  0  0  0
    0.1907  -11.3369    2.8651 C   0  0  0  0  0  0  0  0  0  0  0  0
    1.0128  -11.8996    2.5974 C   0  0  0  0  0  0  0  0  0  0  0  0
    1.1895  -13.1640    1.9820 C   0  0  0  0  0  0  0  0  0  0  0  0
    0.1218  -13.6939    1.4868 C   0  0  0  0  0  0  0  0  0  0  0  0
   -1.0532  -13.0913    1.6355 C   0  0  0  0  0  0  0  0  0  0  0  0
   -1.0791  -11.9249    2.3376 C   0  0  0  0  0  0  0  0  0  0  0  0
   -0.0066   -4.9722    1.8896 C   0  0  0  0  0  0  0  0  0  0  0  0
    0.7974   -4.0584    2.3743 C   0  0  0  0  0  0  0  0  0  0  0  0
    0.9658   -2.7105    1.9157 C   0  0  0  0  0  0  0  0  0  0  0  0
   -0.2347   -2.2594    1.3822 N   0  0  0  0  0  0  0  0  0  0  0  0
   -1.0004   -4.2386    1.1167 C   0  0  0  0  0  0  0  0  0  0  0  0
   -1.0724   -3.1392    0.8160 C   0  0  0  0  0  0  0  0  0  0  0  0
  3  7  1  0
  7  8  1  0
  6 14  1  0
  1  2  2  0
  2  6  1  0
  5  6  2  0
  4  5  1  0
  3  4  2  0
  1  3  1  0
 14 15  2  0
 15 16  1  0
 16 17  2  0
 17 19  1  0
 18 19  2  0
 14 18  1  0
  8  9  2  0
  9 10  1  0
 10 11  2  0
 11 12  1  0
 12 13  2  0
  8 13  1  0
M  END

$$$$
No_2640-/export/home/yangzhenyu/potential_scad_32_flow//YTHDC2/2024-12-06-03-22-00/
     RDKit          3D

 19 20  0  0  1  0  0  0  0  0999 V2000
    1.1787   -8.0297    3.5154 C   0  0  0  0  0  0  0  0  0  0  0  0
    1.0491   -6.8434    2.9820 C   0  0  0  0  0  0  0  0  0  0  0  0
    1.9985   -8.9840    2.8958 C   0  0  2  0  0  0  0  0  0  0  0  0
    1.7297   -9.2108    1.6335 C   0  0  0  0  0  0  0  0  0  0  0  0
    1.7343   -8.0566    0.8408 C   0  0  0  0  0  0  0  0  0  0  0  0
    1.0269   -6.8892    1.4456 C   0  0  0  0  0  0  0  0  0  0  0  0
    2.0740   -7.9416   -0.3682 O   0  0  0  0  0  0  0  0  0  0  0  0
    2.2757  -10.2253    3.6437 C   0  0  0  0  0  0  0  0  0  0  0  0
    1.5555  -11.3890    3.5635 C   0  0  0  0  0  0  0  0  0  0  0  0
    1.1070  -11.8031    2.5894 C   0  0  1  0  0  0  0  0  0  0  0  0
    1.9685  -12.6734    1.8606 Cl  0  0  0  0  0  0  0  0  0  0  0  0
   -0.2580  -11.7829    2.3718 C   0  0  0  0  0  0  0  0  0  0  0  0
   -0.8454  -12.4992    1.2353 C   0  0  0  0  0  0  0  0  0  0  0  0
   -2.0986  -12.0785    0.9434 C   0  0  0  0  0  0  0  0  0  0  0  0
   -2.7551  -11.1636    1.6797 C   0  0  0  0  0  0  0  0  0  0  0  0
   -2.2151  -10.5458    2.7490 C   0  0  0  0  0  0  0  0  0  0  0  0
   -0.9113  -10.8653    3.1241 C   0  0  0  0  0  0  0  0  0  0  0  0
   -4.2437  -10.8262    1.3682 O   0  0  0  0  0  0  0  0  0  0  0  0
   -4.4922   -9.6387    1.3710 C   0  0  0  0  0  0  0  0  0  0  0  0
  1  2  1  0
  1  3  1  0
  3  4  1  0
  4  5  1  0
  2  6  1  0
  5  6  1  0
  5  7  2  0
  3  8  1  1
  8  9  1  0
  9 10  1  0
 10 11  1  1
 10 12  1  0
 15 18  1  0
 18 19  1  0
 12 13  2  0
 13 14  1  0
 14 15  2  0
 15 16  1  0
 16 17  2  0
 12 17  1  0
M  END

$$$$
No_2641-/export/home/yangzhenyu/potential_scad_32_flow//YTHDC2/2024-12-06-03-22-00/
     RDKit          3D

 16 17  0  0  0  0  0  0  0  0999 V2000
    1.1787   -8.0297    3.5154 C   0  0  0  0  0  0  0  0  0  0  0  0
    1.0491   -6.8434    2.9820 C   0  0  0  0  0  0  0  0  0  0  0  0
    0.0950   -8.8404    3.2292 C   0  0  0  0  0  0  0  0  0  0  0  0
   -0.9173   -8.4596    2.5152 C   0  0  0  0  0  0  0  0  0  0  0  0
   -1.0331   -7.2162    2.0653 C   0  0  0  0  0  0  0  0  0  0  0  0
   -0.0105   -6.3168    2.3081 C   0  0  0  0  0  0  0  0  0  0  0  0
    0.1150   -4.9910    1.8495 C   0  0  0  0  0  0  0  0  0  0  0  0
   -0.1376   -4.7952    0.5550 O   0  0  0  0  0  0  0  0  0  0  0  0
    0.8481   -4.0195    2.5027 O   0  0  0  0  0  0  0  0  0  0  0  0
    0.1536  -10.2904    3.6390 C   0  0  0  0  0  0  0  0  0  0  0  0
    1.2064  -10.8795    4.1092 C   0  0  0  0  0  0  0  0  0  0  0  0
    1.1312  -12.3043    4.3659 N   0  0  0  0  0  0  0  0  0  0  0  0
    0.1525  -12.8242    3.7829 C   0  0  0  0  0  0  0  0  0  0  0  0
   -0.7733  -12.3909    3.1792 C   0  0  0  0  0  0  0  0  0  0  0  0
   -0.8685  -11.0005    3.1089 C   0  0  0  0  0  0  0  0  0  0  0  0
    0.3162  -14.3147    3.9355 F   0  0  0  0  0  0  0  0  0  0  0  0
  6  7  1  0
  7  8  2  0
  7  9  1  0
  3 10  1  0
 13 16  1  0
  1  2  2  0
  2  6  1  0
  5  6  2  0
  4  5  1  0
  3  4  2  0
  1  3  1  0
 10 11  2  0
 11 12  1  0
 12 13  2  0
 13 14  1  0
 14 15  2  0
 10 15  1  0
M  END

$$$$
No_2642-/export/home/yangzhenyu/potential_scad_32_flow//YTHDC2/2024-12-06-03-22-00/
     RDKit          3D

 19 19  0  0  1  0  0  0  0  0999 V2000
    1.1787   -8.0297    3.5154 C   0  0  0  0  0  0  0  0  0  0  0  0
    1.1048   -9.2215    3.2892 C   0  0  0  0  0  0  0  0  0  0  0  0
    1.3627  -10.1721    4.3044 C   0  0  0  0  0  0  0  0  0  0  0  0
    1.7354  -11.4730    3.9023 C   0  0  0  0  0  0  0  0  0  0  0  0
    1.8080  -11.8127    2.7216 C   0  0  0  0  0  0  0  0  0  0  0  0
    1.5854  -11.0021    1.7249 C   0  0  0  0  0  0  0  0  0  0  0  0
    1.3573   -9.7389    1.9287 C   0  0  0  0  0  0  0  0  0  0  0  0
    1.2865   -8.8078    0.9161 C   0  0  0  0  0  0  0  0  0  0  0  0
    0.9210   -7.5140    1.1674 O   0  0  0  0  0  0  0  0  0  0  0  0
    1.4288   -9.1781   -0.4279 N   0  0  0  0  0  0  0  0  0  0  0  0
    2.0931  -13.2002    2.3123 O   0  0  0  0  0  0  0  0  0  0  0  0
    1.7085  -14.2816    2.9682 C   0  0  0  0  0  0  0  0  0  0  0  0
    1.1209  -15.2672    2.1143 C   0  0  1  0  0  0  0  0  0  0  0  0
    1.3110  -16.4759    2.3745 Cl  0  0  0  0  0  0  0  0  0  0  0  0
    0.2708  -14.7716    1.1481 C   0  0  0  0  0  0  0  0  0  0  0  0
   -0.6504  -15.3612    0.8233 C   0  0  0  0  0  0  0  0  0  0  0  0
   -1.5407  -14.8798   -0.3032 C   0  0  0  0  0  0  0  0  0  0  0  0
   -2.0512  -13.5434   -0.3339 N   0  0  0  0  0  0  0  0  0  0  0  0
   -1.8195  -12.8972    0.4069 H   0  0  0  0  0  0  0  0  0  0  0  0
  1  2  1  0
  7  8  1  0
  8  9  2  0
  8 10  1  0
  5 11  1  0
 11 12  1  0
 12 13  1  0
 13 14  1  1
 13 15  1  0
 15 16  2  3
 16 17  1  0
 17 18  2  0
  2  3  2  0
  3  4  1  0
  4  5  2  0
  5  6  1  0
  6  7  2  0
  2  7  1  0
 18 19  1  0
M  END

$$$$
No_2643-/export/home/yangzhenyu/potential_scad_32_flow//YTHDC2/2024-12-06-03-22-00/
     RDKit          3D

 17 18  0  0  1  0  0  0  0  0999 V2000
    1.1787   -8.0297    3.5154 C   0  0  0  0  0  0  0  0  0  0  0  0
    1.1048   -9.2215    3.2892 C   0  0  0  0  0  0  0  0  0  0  0  0
    1.2339   -9.7611    2.0189 C   0  0  0  0  0  0  0  0  0  0  0  0
    1.3583   -9.0036    0.9764 C   0  0  0  0  0  0  0  0  0  0  0  0
    1.5996   -7.6362    1.1311 C   0  0  0  0  0  0  0  0  0  0  0  0
    1.4830   -7.0928    2.3626 C   0  0  0  0  0  0  0  0  0  0  0  0
    1.4898   -5.7274    2.6199 C   0  0  0  0  0  0  0  0  0  0  0  0
    1.1681  -11.2222    1.8390 C   0  0  2  0  0  0  0  0  0  0  0  0
    1.9047  -12.1147    2.3357 N   0  0  0  0  0  0  0  0  0  0  0  0
    1.6918  -13.4296    2.1335 C   0  0  0  0  0  0  0  0  0  0  0  0
    1.3106  -13.8785    1.0076 C   0  0  0  0  0  0  0  0  0  0  0  0
    0.6379  -12.9622    0.1546 N   0  0  0  0  0  0  0  0  0  0  0  0
    0.5755  -11.6475    0.5615 C   0  0  0  0  0  0  0  0  0  0  0  0
    1.6920   -5.1670    3.8671 O   0  0  0  0  0  0  0  0  0  0  0  0
    1.3610   -4.8307    1.6645 O   0  0  0  0  0  0  0  0  0  0  0  0
    2.3607  -14.3400    2.9875 O   0  0  0  0  0  0  0  0  0  0  0  0
   -0.0220  -10.8029   -0.2117 O   0  0  0  0  0  0  0  0  0  0  0  0
  6  7  1  0
  8  3  1  6
  8  9  1  0
  9 10  1  0
 10 11  1  0
  8 13  1  0
 12 13  1  0
  7 14  1  0
  7 15  2  0
 10 16  2  0
 13 17  2  0
 11 12  1  0
  1  2  2  0
  2  3  1  0
  3  4  2  0
  4  5  1  0
  5  6  2  0
  1  6  1  0
M  END

$$$$
No_2644-/export/home/yangzhenyu/potential_scad_32_flow//YTHDC2/2024-12-06-03-22-00/
     RDKit          3D

 19 20  0  0  1  0  0  0  0  0999 V2000
    1.1787   -8.0297    3.5154 N   0  0  0  0  0  0  0  0  0  0  0  0
    1.0818   -9.0751    3.2053 C   0  0  2  0  0  0  0  0  0  0  0  0
    0.7576   -9.3725    1.9159 Cl  0  0  0  0  0  0  0  0  0  0  0  0
    1.2407  -10.0700    4.3686 C   0  0  0  0  0  0  0  0  0  0  0  0
    1.6355  -11.2371    4.0070 C   0  0  0  0  0  0  0  0  0  0  0  0
    1.2804   -6.8896    2.5998 C   0  0  0  0  0  0  0  0  0  0  0  0
    0.3809   -6.4180    2.0605 C   0  0  0  0  0  0  0  0  0  0  0  0
   -0.2426   -5.5415    2.1721 C   0  0  0  0  0  0  0  0  0  0  0  0
   -1.6056   -5.3385    1.9478 C   0  0  0  0  0  0  0  0  0  0  0  0
   -2.1896   -6.2574    1.2226 C   0  0  0  0  0  0  0  0  0  0  0  0
   -1.5608   -7.4216    0.8884 C   0  0  0  0  0  0  0  0  0  0  0  0
   -0.2923   -7.5907    1.2666 C   0  0  0  0  0  0  0  0  0  0  0  0
    1.4843  -12.1435    3.3609 C   0  0  0  0  0  0  0  0  0  0  0  0
    2.1798  -13.2142    2.8020 C   0  0  0  0  0  0  0  0  0  0  0  0
    1.6050  -14.2520    2.1027 C   0  0  0  0  0  0  0  0  0  0  0  0
    0.4344  -14.0848    1.5366 C   0  0  0  0  0  0  0  0  0  0  0  0
   -0.3357  -13.0554    1.7881 C   0  0  0  0  0  0  0  0  0  0  0  0
    0.0527  -12.0840    2.6249 C   0  0  0  0  0  0  0  0  0  0  0  0
   -1.6030  -12.8866    1.1534 O   0  0  0  0  0  0  0  0  0  0  0  0
  1  2  1  0
  2  3  1  1
  2  4  1  0
  4  5  2  3
  1  6  1  0
  6  7  1  0
  5 13  1  0
 17 19  1  0
 13 14  2  0
 14 15  1  0
 15 16  2  0
 16 17  1  0
 17 18  2  0
 13 18  1  0
  7  8  2  0
  8  9  1  0
  9 10  2  0
 10 11  1  0
 11 12  2  0
  7 12  1  0
M  END

$$$$
No_2645-/export/home/yangzhenyu/potential_scad_32_flow//YTHDC2/2024-12-06-03-22-00/
     RDKit          3D

 18 19  0  0  0  0  0  0  0  0999 V2000
    1.1787   -8.0297    3.5154 C   0  0  0  0  0  0  0  0  0  0  0  0
    1.0491   -6.8434    2.9820 C   0  0  0  0  0  0  0  0  0  0  0  0
    0.0950   -8.8404    3.2292 C   0  0  0  0  0  0  0  0  0  0  0  0
   -0.7663   -8.2602    2.4375 C   0  0  0  0  0  0  0  0  0  0  0  0
   -0.3589   -6.8665    2.1913 C   0  0  0  0  0  0  0  0  0  0  0  0
    0.1385  -10.2460    3.6202 C   0  0  0  0  0  0  0  0  0  0  0  0
   -1.1634  -10.7883    3.7274 C   0  0  0  0  0  0  0  0  0  0  0  0
    1.2261  -10.8108    4.2554 C   0  0  0  0  0  0  0  0  0  0  0  0
    1.1984  -12.2046    4.4007 C   0  0  0  0  0  0  0  0  0  0  0  0
   -1.1689  -12.1726    3.9445 C   0  0  0  0  0  0  0  0  0  0  0  0
    0.0518  -12.8541    4.2328 C   0  0  0  0  0  0  0  0  0  0  0  0
   -0.8150   -5.8002    1.5621 C   0  0  0  0  0  0  0  0  0  0  0  0
   -1.7382   -6.1535    0.6126 O   0  0  0  0  0  0  0  0  0  0  0  0
   -0.5519   -4.5460    1.8658 O   0  0  0  0  0  0  0  0  0  0  0  0
    0.1133  -14.1963    4.1365 O   0  0  0  0  0  0  0  0  0  0  0  0
   -0.6855   -3.4182    1.0328 C   0  0  0  0  0  0  0  0  0  0  0  0
    0.5248   -3.1018    0.4852 C   0  0  0  0  0  0  0  0  0  0  0  0
    0.5313   -2.1178   -0.5528 C   0  0  0  0  0  0  0  0  0  0  0  0
  1  2  1  0
  1  3  2  0
  3  4  1  0
  2  5  1  0
  4  5  2  0
  3  6  1  0
  6  8  1  0
  7 10  1  0
  9 11  1  0
 10 11  1  0
  5 12  1  0
 12 13  2  0
 12 14  1  0
 11 15  2  0
 14 16  1  0
 16 17  1  0
 17 18  1  0
  8  9  1  0
  6  7  1  0
M  END

$$$$
No_2646-/export/home/yangzhenyu/potential_scad_32_flow//YTHDC2/2024-12-06-03-22-00/
     RDKit          3D

 18 18  0  0  0  0  0  0  0  0999 V2000
    1.1787   -8.0297    3.5154 N   0  0  0  0  0  0  0  0  0  0  0  0
    0.8669   -7.0905    2.8589 C   0  0  0  0  0  0  0  0  0  0  0  0
    1.0447   -7.3244    1.4123 C   0  0  0  0  0  0  0  0  0  0  0  0
    1.3746   -8.4389    1.0864 C   0  0  0  0  0  0  0  0  0  0  0  0
    1.8493   -9.4093    1.8124 C   0  0  0  0  0  0  0  0  0  0  0  0
    1.7421   -9.2119    3.1541 C   0  0  0  0  0  0  0  0  0  0  0  0
    2.0608  -10.3132    4.0586 C   0  0  0  0  0  0  0  0  0  0  0  0
    1.3103  -11.3806    4.2606 S   0  0  0  0  0  0  0  0  0  0  0  0
   -0.1467  -10.7891    3.6786 C   0  0  0  0  0  0  0  0  0  0  0  0
    1.6316   -8.6431   -0.4146 C   0  0  0  0  0  0  0  0  0  0  0  0
    0.6183   -8.7291   -1.1381 O   0  0  0  0  0  0  0  0  0  0  0  0
    2.7923   -8.8560   -0.9704 O   0  0  0  0  0  0  0  0  0  0  0  0
   -0.8696   -9.9411    4.6875 O   0  0  0  0  0  0  0  0  0  0  0  0
   -0.8354  -11.2060    2.7611 O   0  0  0  0  0  0  0  0  0  0  0  0
   -1.8042   -9.2738    4.3885 C   0  0  0  0  0  0  0  0  0  0  0  0
   -2.5736   -8.9294    5.1130 C   0  0  0  0  0  0  0  0  0  0  0  0
   -3.4871   -8.3538    5.3325 C   0  0  0  0  0  0  0  0  0  0  0  0
   -3.9664   -7.8200    3.9862 C   0  0  0  0  0  0  0  0  0  0  0  0
  6  7  1  0
  7  8  1  0
  8  9  1  0
  4 10  1  0
 10 11  2  0
 10 12  1  0
  9 13  1  0
  9 14  2  0
 13 15  1  0
 15 16  1  0
 16 17  2  3
 17 18  1  0
  1  2  2  0
  2  3  1  0
  3  4  2  0
  4  5  1  0
  5  6  2  0
  1  6  1  0
M  END

$$$$
No_2647-/export/home/yangzhenyu/potential_scad_32_flow//YTHDC2/2024-12-06-03-22-00/
     RDKit          3D

 19 19  0  0  1  0  0  0  0  0999 V2000
    1.1787   -8.0297    3.5154 C   0  0  0  0  0  0  0  0  0  0  0  0
    1.0491   -6.8434    2.9820 C   0  0  0  0  0  0  0  0  0  0  0  0
    0.9905   -9.0774    2.6527 C   0  0  0  0  0  0  0  0  0  0  0  0
    1.1655  -10.4663    3.1286 C   0  0  2  0  0  0  0  0  0  0  0  0
    1.7409  -10.6480    4.4599 C   0  0  0  0  0  0  0  0  0  0  0  0
    0.4783   -6.4688    1.7590 C   0  0  0  0  0  0  0  0  0  0  0  0
    0.2119   -7.5787    0.9640 C   0  0  0  0  0  0  0  0  0  0  0  0
    0.4248   -8.8744    1.3136 C   0  0  0  0  0  0  0  0  0  0  0  0
    1.0420  -11.5352    2.2989 C   0  0  0  0  0  0  0  0  0  0  0  0
    1.9456  -11.7272    1.3640 C   0  0  0  0  0  0  0  0  0  0  0  0
    0.2982   -5.2147    1.2578 C   0  0  0  0  0  0  0  0  0  0  0  0
    1.3214   -4.2729    1.6307 O   0  0  0  0  0  0  0  0  0  0  0  0
   -0.8344   -4.6439    0.9959 N   0  0  0  0  0  0  0  0  0  0  0  0
    2.5846  -10.7034    0.7909 O   0  0  0  0  0  0  0  0  0  0  0  0
    2.2294  -12.9159    0.9407 O   0  0  0  0  0  0  0  0  0  0  0  0
   -1.9369   -5.3639    0.6670 C   0  0  0  0  0  0  0  0  0  0  0  0
   -2.9809   -5.4357    1.6467 C   0  0  0  0  0  0  0  0  0  0  0  0
   -3.4016   -6.4460    2.2384 C   0  0  0  0  0  0  0  0  0  0  0  0
   -4.1815   -6.4729    2.9906 C   0  0  0  0  0  0  0  0  0  0  0  0
  3  4  1  0
  4  5  1  6
  4  9  1  0
  9 10  1  0
  6 11  1  0
 11 12  2  0
 11 13  1  0
 10 14  2  0
 10 15  1  0
 13 16  1  0
 16 17  1  0
 17 18  1  0
 18 19  2  0
  1  2  2  0
  2  6  1  0
  6  7  2  0
  7  8  1  0
  3  8  2  0
  1  3  1  0
M  END

$$$$
No_2648-/export/home/yangzhenyu/potential_scad_32_flow//YTHDC2/2024-12-06-03-22-00/
     RDKit          3D

 18 20  0  0  0  0  0  0  0  0999 V2000
    1.1787   -8.0297    3.5154 C   0  0  0  0  0  0  0  0  0  0  0  0
    1.0491   -6.8434    2.9820 C   0  0  0  0  0  0  0  0  0  0  0  0
    0.0950   -8.8404    3.2292 C   0  0  0  0  0  0  0  0  0  0  0  0
   -0.9173   -8.4596    2.5152 C   0  0  0  0  0  0  0  0  0  0  0  0
   -1.0331   -7.2162    2.0653 C   0  0  0  0  0  0  0  0  0  0  0  0
   -0.0105   -6.3168    2.3081 C   0  0  0  0  0  0  0  0  0  0  0  0
    0.1465  -10.2446    3.6981 C   0  0  0  0  0  0  0  0  0  0  0  0
   -1.0337  -10.8619    3.9439 C   0  0  0  0  0  0  0  0  0  0  0  0
   -2.1702  -10.4673    3.2991 C   0  0  0  0  0  0  0  0  0  0  0  0
   -2.1358   -9.2084    2.5791 C   0  0  0  0  0  0  0  0  0  0  0  0
   -3.2931  -11.2079    3.0734 C   0  0  0  0  0  0  0  0  0  0  0  0
   -0.0436   -4.9790    1.8066 C   0  0  0  0  0  0  0  0  0  0  0  0
   -0.4534   -4.7419    0.5788 C   0  0  0  0  0  0  0  0  0  0  0  0
   -1.2047   -3.6653    0.4086 C   0  0  0  0  0  0  0  0  0  0  0  0
   -1.0718   -2.5656    1.3016 C   0  0  0  0  0  0  0  0  0  0  0  0
   -0.4615   -2.7230    2.4154 C   0  0  0  0  0  0  0  0  0  0  0  0
    0.0026   -4.0018    2.8521 C   0  0  0  0  0  0  0  0  0  0  0  0
   -3.0492  -12.5363    2.7600 F   0  0  0  0  0  0  0  0  0  0  0  0
  9 11  1  0
  6 12  1  0
 11 18  1  0
 12 13  2  0
 13 14  1  0
 14 15  2  0
 15 16  1  0
 16 17  2  0
 12 17  1  0
  4 10  2  0
  9 10  1  0
  8  9  2  0
  7  8  1  0
  3  7  2  0
  1  2  2  0
  2  6  1  0
  5  6  2  0
  4  5  1  0
  3  4  1  0
  1  3  1  0
M  END

$$$$
No_2649-/export/home/yangzhenyu/potential_scad_32_flow//YTHDC2/2024-12-06-03-22-00/
     RDKit          3D

 18 20  0  0  0  0  0  0  0  0999 V2000
    1.1787   -8.0297    3.5154 C   0  0  0  0  0  0  0  0  0  0  0  0
    1.1048   -9.2215    3.2892 C   0  0  0  0  0  0  0  0  0  0  0  0
    1.3627  -10.1721    4.3044 C   0  0  0  0  0  0  0  0  0  0  0  0
    1.7354  -11.4730    3.9023 C   0  0  0  0  0  0  0  0  0  0  0  0
    1.8080  -11.8127    2.7216 C   0  0  0  0  0  0  0  0  0  0  0  0
    1.5854  -11.0021    1.7249 C   0  0  0  0  0  0  0  0  0  0  0  0
    1.3573   -9.7389    1.9287 C   0  0  0  0  0  0  0  0  0  0  0  0
    1.1102   -8.8712    0.9017 C   0  0  0  0  0  0  0  0  0  0  0  0
    0.5299   -7.6926    1.0325 C   0  0  0  0  0  0  0  0  0  0  0  0
    0.7526   -7.0802    2.3301 C   0  0  0  0  0  0  0  0  0  0  0  0
    2.1027  -13.4660    2.3958 O   0  0  0  0  0  0  0  0  0  0  0  0
    0.4794   -5.6414    2.5040 C   0  0  0  0  0  0  0  0  0  0  0  0
   -0.6844   -5.1130    2.2427 C   0  0  0  0  0  0  0  0  0  0  0  0
   -0.8691   -3.6998    2.3138 C   0  0  0  0  0  0  0  0  0  0  0  0
    1.5704   -4.8068    2.9774 C   0  0  0  0  0  0  0  0  0  0  0  0
    0.2279   -2.8931    2.7035 C   0  0  0  0  0  0  0  0  0  0  0  0
    1.3924   -3.4122    3.0426 C   0  0  0  0  0  0  0  0  0  0  0  0
    2.0408  -13.8242    1.2007 C   0  0  0  0  0  0  0  0  0  0  0  0
  5 11  1  0
 10 12  1  0
 11 18  1  0
  1  2  2  0
  7  8  2  0
  8  9  1  0
  9 10  2  0
  1 10  1  0
  2  3  1  0
  3  4  2  0
  4  5  1  0
  5  6  2  0
  6  7  1  0
  2  7  1  0
 12 13  2  0
 13 14  1  0
 14 16  2  0
 16 17  1  0
 15 17  2  0
 12 15  1  0
M  END

$$$$
No_2650-/export/home/yangzhenyu/potential_scad_32_flow//YTHDC2/2024-12-06-03-22-00/
     RDKit          3D

 19 20  0  0  0  0  0  0  0  0999 V2000
    1.1787   -8.0297    3.5154 C   0  0  0  0  0  0  0  0  0  0  0  0
    1.0491   -6.8434    2.9820 C   0  0  0  0  0  0  0  0  0  0  0  0
    0.0950   -8.8404    3.2292 C   0  0  0  0  0  0  0  0  0  0  0  0
   -0.7663   -8.2602    2.4375 C   0  0  0  0  0  0  0  0  0  0  0  0
   -0.3589   -6.8665    2.1913 C   0  0  0  0  0  0  0  0  0  0  0  0
    0.1065  -10.2381    3.6126 C   0  0  0  0  0  0  0  0  0  0  0  0
    1.0935  -10.8944    4.0437 N   0  0  0  0  0  0  0  0  0  0  0  0
   -1.1875  -10.7500    3.8935 O   0  0  0  0  0  0  0  0  0  0  0  0
    1.3704  -12.0017    3.5552 C   0  0  0  0  0  0  0  0  0  0  0  0
    1.4923  -13.1546    4.2118 C   0  0  0  0  0  0  0  0  0  0  0  0
    1.6062  -14.3791    3.3728 C   0  0  0  0  0  0  0  0  0  0  0  0
    1.6075  -14.2559    2.0145 C   0  0  0  0  0  0  0  0  0  0  0  0
    1.5429  -13.0014    1.3673 C   0  0  0  0  0  0  0  0  0  0  0  0
    1.5056  -11.8593    2.0659 C   0  0  0  0  0  0  0  0  0  0  0  0
   -0.8544   -5.8056    1.5953 C   0  0  0  0  0  0  0  0  0  0  0  0
   -1.6205   -6.1312    0.5146 O   0  0  0  0  0  0  0  0  0  0  0  0
   -0.3935   -4.5131    1.6933 N   0  0  0  0  0  0  0  0  0  0  0  0
   -0.8513   -3.4091    1.1004 C   0  0  0  0  0  0  0  0  0  0  0  0
    0.1696   -2.2895    1.0878 C   0  0  0  0  0  0  0  0  0  0  0  0
  1  2  1  0
  1  3  2  0
  3  4  1  0
  2  5  2  0
  4  5  1  0
  3  6  1  0
  6  7  2  3
  6  8  1  0
  7  9  1  0
  5 15  1  0
 15 16  2  0
 15 17  1  0
 17 18  1  0
 18 19  1  0
  9 10  2  0
 10 11  1  0
 11 12  2  0
 12 13  1  0
 13 14  2  0
  9 14  1  0
M  END

$$$$
No_2651-/export/home/yangzhenyu/potential_scad_32_flow//YTHDC2/2024-12-06-03-22-00/
     RDKit          3D

 18 18  0  0  1  0  0  0  0  0999 V2000
    1.1787   -8.0297    3.5154 C   0  0  0  0  0  0  0  0  0  0  0  0
    1.1048   -9.2215    3.2892 C   0  0  0  0  0  0  0  0  0  0  0  0
    1.2339   -9.7611    2.0189 C   0  0  0  0  0  0  0  0  0  0  0  0
    1.3583   -9.0036    0.9764 C   0  0  0  0  0  0  0  0  0  0  0  0
    1.5996   -7.6362    1.1311 C   0  0  0  0  0  0  0  0  0  0  0  0
    1.4830   -7.0928    2.3626 C   0  0  0  0  0  0  0  0  0  0  0  0
    1.4898   -5.7274    2.6199 C   0  0  0  0  0  0  0  0  0  0  0  0
    1.1681  -11.2222    1.8390 Cl  0  0  0  0  0  0  0  0  0  0  0  0
    0.6806   -4.9776    2.7259 O   0  0  0  0  0  0  0  0  0  0  0  0
    1.5881   -9.5609   -0.4533 C   0  0  0  0  0  0  0  0  0  0  0  0
    0.4191  -10.0758   -0.8653 O   0  0  0  0  0  0  0  0  0  0  0  0
    2.5212   -9.4162   -1.1612 O   0  0  0  0  0  0  0  0  0  0  0  0
    2.6801   -5.1624    2.8838 O   0  0  0  0  0  0  0  0  0  0  0  0
    0.9882  -10.1644    4.3720 Cl  0  0  0  0  0  0  0  0  0  0  0  0
    2.4820   -3.6993    2.9433 C   0  0  2  0  0  0  0  0  0  0  0  0
    2.2932   -3.2320    4.2631 Cl  0  0  0  0  0  0  0  0  0  0  0  0
    1.5472   -3.2099    1.9430 C   0  0  0  0  0  0  0  0  0  0  0  0
    1.5637   -1.9556    1.6698 C   0  0  0  0  0  0  0  0  0  0  0  0
  6  7  1  0
  3  8  1  0
  7  9  2  0
  4 10  1  0
 10 11  2  0
 10 12  1  0
  7 13  1  0
  2 14  1  0
 13 15  1  0
 15 16  1  1
 15 17  1  0
 17 18  1  0
  1  2  2  0
  2  3  1  0
  3  4  2  0
  4  5  1  0
  5  6  2  0
  1  6  1  0
M  END

$$$$
No_2652-/export/home/yangzhenyu/potential_scad_32_flow//YTHDC2/2024-12-06-03-22-00/
     RDKit          3D

 16 17  0  0  0  0  0  0  0  0999 V2000
    1.1787   -8.0297    3.5154 C   0  0  0  0  0  0  0  0  0  0  0  0
    1.0491   -6.8434    2.9820 C   0  0  0  0  0  0  0  0  0  0  0  0
    0.9905   -9.0774    2.6527 C   0  0  0  0  0  0  0  0  0  0  0  0
    0.7897   -8.9519    1.3691 C   0  0  0  0  0  0  0  0  0  0  0  0
    0.7018   -7.7198    0.7892 C   0  0  0  0  0  0  0  0  0  0  0  0
    0.8918   -6.5957    1.6117 C   0  0  0  0  0  0  0  0  0  0  0  0
    1.0600  -10.5680    3.3321 C   0  0  0  0  0  0  0  0  0  0  0  0
    2.1422  -11.0089    3.6867 C   0  0  0  0  0  0  0  0  0  0  0  0
    0.8986   -5.2530    1.1685 O   0  0  0  0  0  0  0  0  0  0  0  0
   -0.0631  -11.2110    3.4552 C   0  0  0  0  0  0  0  0  0  0  0  0
   -0.1813  -12.4476    3.1669 N   0  0  0  0  0  0  0  0  0  0  0  0
    2.1791  -12.4915    3.7482 N   0  0  0  0  0  0  0  0  0  0  0  0
    1.0965  -13.1343    3.5415 C   0  0  0  0  0  0  0  0  0  0  0  0
    1.1327  -14.4789    3.6141 O   0  0  0  0  0  0  0  0  0  0  0  0
    0.6230   -9.9904    0.3849 N   0  0  0  0  0  0  0  0  0  0  0  0
   -0.4956  -10.2856   -0.1174 O   0  0  0  0  0  0  0  0  0  0  0  0
  1  2  1  0
  3  4  1  0
  2  6  1  0
  5  6  1  0
  3  7  1  0
  7  8  1  0
  6  9  2  0
  7 10  1  0
  8 12  1  0
 11 13  1  0
 12 13  1  0
 13 14  2  0
  4 15  1  0
 15 16  2  0
 10 11  1  0
  1  3  1  0
  4  5  1  0
M  END

$$$$
No_2653-/export/home/yangzhenyu/potential_scad_32_flow//YTHDC2/2024-12-06-03-22-00/
     RDKit          3D

 17 18  0  0  0  0  0  0  0  0999 V2000
    1.1787   -8.0297    3.5154 C   0  0  0  0  0  0  0  0  0  0  0  0
    1.0491   -6.8434    2.9820 C   0  0  0  0  0  0  0  0  0  0  0  0
    0.0950   -8.8404    3.2292 C   0  0  0  0  0  0  0  0  0  0  0  0
   -0.9173   -8.4596    2.5152 C   0  0  0  0  0  0  0  0  0  0  0  0
   -1.0331   -7.2162    2.0653 C   0  0  0  0  0  0  0  0  0  0  0  0
   -0.0105   -6.3168    2.3081 C   0  0  0  0  0  0  0  0  0  0  0  0
    0.1150   -4.9910    1.8495 C   0  0  0  0  0  0  0  0  0  0  0  0
   -0.1376   -4.7952    0.5550 N   0  0  0  0  0  0  0  0  0  0  0  0
    0.8335   -4.0110    2.5280 C   0  0  0  0  0  0  0  0  0  0  0  0
    0.1754  -10.2968    3.6664 N   0  0  0  0  0  0  0  0  0  0  0  0
   -0.9729  -11.0206    3.8059 C   0  0  0  0  0  0  0  0  0  0  0  0
    1.4629  -10.9758    3.8473 C   0  0  0  0  0  0  0  0  0  0  0  0
    1.4867  -12.2524    4.0563 O   0  0  0  0  0  0  0  0  0  0  0  0
    2.6743  -10.3121    3.7992 C   0  0  0  0  0  0  0  0  0  0  0  0
   -0.3447   -3.5440    0.1907 N   0  0  0  0  0  0  0  0  0  0  0  0
    0.9149   -2.7571    1.9414 C   0  0  0  0  0  0  0  0  0  0  0  0
    0.3384   -2.5551    0.7312 C   0  0  0  0  0  0  0  0  0  0  0  0
  6  7  1  0
  3 10  1  0
 10 11  1  0
 10 12  1  0
 12 13  2  0
 12 14  1  0
  1  2  2  0
  2  6  1  0
  5  6  2  0
  4  5  1  0
  3  4  2  0
  1  3  1  0
  7  8  2  0
  8 15  1  0
 15 17  2  0
 16 17  1  0
  9 16  2  0
  7  9  1  0
M  END

$$$$
No_2654-/export/home/yangzhenyu/potential_scad_32_flow//YTHDC2/2024-12-06-03-22-00/
     RDKit          3D

 16 17  0  0  0  0  0  0  0  0999 V2000
    1.1787   -8.0297    3.5154 C   0  0  0  0  0  0  0  0  0  0  0  0
    1.0491   -6.8434    2.9820 C   0  0  0  0  0  0  0  0  0  0  0  0
    0.9905   -9.0774    2.6527 C   0  0  0  0  0  0  0  0  0  0  0  0
    0.7897   -8.9519    1.3691 C   0  0  0  0  0  0  0  0  0  0  0  0
    0.7018   -7.7198    0.7892 C   0  0  0  0  0  0  0  0  0  0  0  0
    0.8918   -6.5957    1.6117 C   0  0  0  0  0  0  0  0  0  0  0  0
    1.0998  -10.4710    3.2437 C   0  0  0  0  0  0  0  0  0  0  0  0
    0.0472  -11.2546    3.3963 C   0  0  0  0  0  0  0  0  0  0  0  0
    0.1622  -12.5732    3.4140 C   0  0  0  0  0  0  0  0  0  0  0  0
    1.4182  -13.1957    3.4048 C   0  0  0  0  0  0  0  0  0  0  0  0
    2.5550  -12.3947    3.0877 C   0  0  0  0  0  0  0  0  0  0  0  0
    2.4166  -11.0849    2.9699 C   0  0  0  0  0  0  0  0  0  0  0  0
    0.8665   -5.2662    1.1708 C   0  0  0  0  0  0  0  0  0  0  0  0
    1.4387  -14.6954    3.3762 O   0  0  0  0  0  0  0  0  0  0  0  0
    1.5418   -4.2939    1.7853 Cl  0  0  0  0  0  0  0  0  0  0  0  0
    2.1818  -15.3138    2.5098 C   0  0  0  0  0  0  0  0  0  0  0  0
  3  7  1  0
  6 13  1  0
 10 14  1  0
 13 15  1  0
 14 16  1  0
  1  2  2  0
  2  6  1  0
  5  6  2  0
  4  5  1  0
  3  4  2  0
  1  3  1  0
  7  8  2  0
  8  9  1  0
  9 10  2  0
 10 11  1  0
 11 12  2  0
  7 12  1  0
M  END

$$$$
No_2655-/export/home/yangzhenyu/potential_scad_32_flow//YTHDC2/2024-12-06-03-22-00/
     RDKit          3D

 19 19  0  0  1  0  0  0  0  0999 V2000
    1.1787   -8.0297    3.5154 C   0  0  0  0  0  0  0  0  0  0  0  0
    1.0491   -6.8434    2.9820 C   0  0  0  0  0  0  0  0  0  0  0  0
    0.9905   -9.0774    2.6527 C   0  0  0  0  0  0  0  0  0  0  0  0
    0.7897   -8.9519    1.3691 C   0  0  0  0  0  0  0  0  0  0  0  0
    0.7018   -7.7198    0.7892 C   0  0  0  0  0  0  0  0  0  0  0  0
    0.8918   -6.5957    1.6117 C   0  0  0  0  0  0  0  0  0  0  0  0
    1.0774  -10.6059    3.3145 C   0  0  2  0  0  0  0  0  0  0  0  0
    2.1444  -11.0408    3.6446 C   0  0  0  0  0  0  0  0  0  0  0  0
    0.3723  -11.5410    2.4414 C   0  0  0  0  0  0  0  0  0  0  0  0
    0.3004  -12.7381    3.0655 C   0  0  0  0  0  0  0  0  0  0  0  0
    1.4251  -13.5417    2.9130 C   0  0  0  0  0  0  0  0  0  0  0  0
    1.1805  -15.0027    2.9631 O   0  0  0  0  0  0  0  0  0  0  0  0
    0.8087   -5.0674    1.0423 F   0  0  0  0  0  0  0  0  0  0  0  0
    2.3031  -11.5738    4.9144 C   0  0  0  0  0  0  0  0  0  0  0  0
    1.4575  -15.6516    1.9357 C   0  0  1  0  0  0  0  0  0  0  0  0
    1.6482  -15.0407    0.8827 C   0  0  0  0  0  0  0  0  0  0  0  0
    2.7429  -16.5958    2.3440 C   0  0  0  0  0  0  0  0  0  0  0  0
    2.6537  -14.2310    0.6507 C   0  0  0  0  0  0  0  0  0  0  0  0
    2.4668  -17.7259    3.1742 O   0  0  0  0  0  0  0  0  0  0  0  0
  3  7  1  0
  7  8  1  6
  7  9  1  0
  9 10  1  0
 10 11  1  0
 11 12  1  0
  6 13  1  0
  8 14  1  0
 12 15  1  0
 15 16  1  6
 15 17  1  0
 16 18  1  0
 17 19  1  0
  1  2  2  0
  2  6  1  0
  5  6  2  0
  4  5  1  0
  3  4  2  0
  1  3  1  0
M  END

$$$$
No_2656-/export/home/yangzhenyu/potential_scad_32_flow//YTHDC2/2024-12-06-03-22-00/
     RDKit          3D

 19 20  0  0  1  0  0  0  0  0999 V2000
    1.1787   -8.0297    3.5154 O   0  0  0  0  0  0  0  0  0  0  0  0
    0.6747   -7.4019    2.7838 C   0  0  1  0  0  0  0  0  0  0  0  0
    0.5570   -6.0797    2.8560 C   0  0  0  0  0  0  0  0  0  0  0  0
    1.6734   -5.4651    3.4094 C   0  0  0  0  0  0  0  0  0  0  0  0
    1.4143   -9.4928    3.3921 C   0  0  0  0  0  0  0  0  0  0  0  0
    1.2094  -10.0943    2.2496 C   0  0  0  0  0  0  0  0  0  0  0  0
    0.6517   -9.2915    1.2230 C   0  0  0  0  0  0  0  0  0  0  0  0
    0.4740   -7.9290    1.4411 C   0  0  0  0  0  0  0  0  0  0  0  0
   -0.1648   -7.3506    0.5056 O   0  0  0  0  0  0  0  0  0  0  0  0
    1.5367  -11.4216    2.1122 C   0  0  0  0  0  0  0  0  0  0  0  0
    1.5391  -12.3189    2.9779 C   0  0  0  0  0  0  0  0  0  0  0  0
    1.6330  -13.6926    2.7034 C   0  0  0  0  0  0  0  0  0  0  0  0
    1.8416  -14.1877    1.5505 C   0  0  0  0  0  0  0  0  0  0  0  0
    1.9175  -13.2078    0.4649 C   0  0  0  0  0  0  0  0  0  0  0  0
    1.7269  -11.9097    0.7049 C   0  0  0  0  0  0  0  0  0  0  0  0
    0.4785   -9.7254   -0.0636 O   0  0  0  0  0  0  0  0  0  0  0  0
    2.1082  -15.6622    1.3070 I   0  0  0  0  0  0  0  0  0  0  0  0
    1.5108   -3.9184    3.4677 O   0  0  0  0  0  0  0  0  0  0  0  0
    1.6234   -3.2781    2.3150 C   0  0  0  0  0  0  0  0  0  0  0  0
  1  2  1  0
  2  3  1  6
  3  4  1  0
  1  5  1  0
  5  6  2  0
  6  7  1  0
  2  8  1  0
  7  8  1  0
  8  9  2  0
  6 10  1  0
  7 16  2  0
 13 17  1  0
  4 18  1  0
 18 19  1  0
 10 11  2  0
 11 12  1  0
 12 13  2  0
 13 14  1  0
 14 15  2  0
 10 15  1  0
M  END

$$$$
No_2657-/export/home/yangzhenyu/potential_scad_32_flow//YTHDC2/2024-12-06-03-22-00/
     RDKit          3D

 17 18  0  0  0  0  0  0  0  0999 V2000
    1.1787   -8.0297    3.5154 C   0  0  0  0  0  0  0  0  0  0  0  0
    1.1048   -9.2215    3.2892 C   0  0  0  0  0  0  0  0  0  0  0  0
    1.2339   -9.7611    2.0189 C   0  0  0  0  0  0  0  0  0  0  0  0
    1.3583   -9.0036    0.9764 C   0  0  0  0  0  0  0  0  0  0  0  0
    1.5996   -7.6362    1.1311 C   0  0  0  0  0  0  0  0  0  0  0  0
    1.4830   -7.0928    2.3626 C   0  0  0  0  0  0  0  0  0  0  0  0
    1.3121   -5.7497    2.5440 C   0  0  0  0  0  0  0  0  0  0  0  0
    1.1998  -11.2296    1.8484 C   0  0  0  0  0  0  0  0  0  0  0  0
    1.9234  -12.0592    2.4966 C   0  0  0  0  0  0  0  0  0  0  0  0
    1.7208  -13.4431    2.1386 C   0  0  0  0  0  0  0  0  0  0  0  0
    0.8859  -13.8405    1.2219 C   0  0  0  0  0  0  0  0  0  0  0  0
    0.1825  -12.8574    0.4489 C   0  0  0  0  0  0  0  0  0  0  0  0
    0.4014  -11.5086    0.7430 C   0  0  0  0  0  0  0  0  0  0  0  0
    0.6858   -4.9685    1.6612 C   0  0  0  0  0  0  0  0  0  0  0  0
    0.6049   -3.5432    1.8372 C   0  0  0  0  0  0  0  0  0  0  0  0
    2.3718  -14.4413    2.9234 Cl  0  0  0  0  0  0  0  0  0  0  0  0
    0.1048   -2.7422    0.9863 C   0  0  0  0  0  0  0  0  0  0  0  0
  6  7  1  0
  3  8  1  0
  7 14  2  3
 14 15  1  0
 10 16  1  0
 15 17  2  0
  1  2  2  0
  2  3  1  0
  3  4  2  0
  4  5  1  0
  5  6  2  0
  1  6  1  0
  8  9  2  0
  9 10  1  0
 10 11  2  0
 11 12  1  0
 12 13  2  0
  8 13  1  0
M  END

$$$$
No_2658-/export/home/yangzhenyu/potential_scad_32_flow//YTHDC2/2024-12-06-03-22-00/
     RDKit          3D

 19 21  0  0  1  0  0  0  0  0999 V2000
    1.1787   -8.0297    3.5154 C   0  0  0  0  0  0  0  0  0  0  0  0
    1.0491   -6.8434    2.9820 C   0  0  0  0  0  0  0  0  0  0  0  0
    0.0950   -8.8404    3.2292 C   0  0  0  0  0  0  0  0  0  0  0  0
   -0.9173   -8.4596    2.5152 C   0  0  0  0  0  0  0  0  0  0  0  0
   -1.0331   -7.2162    2.0653 C   0  0  0  0  0  0  0  0  0  0  0  0
   -0.0105   -6.3168    2.3081 C   0  0  0  0  0  0  0  0  0  0  0  0
    0.1465  -10.2446    3.6981 C   0  0  2  0  0  0  0  0  0  0  0  0
   -1.0337  -10.8619    3.9439 C   0  0  0  0  0  0  0  0  0  0  0  0
   -2.1702  -10.4673    3.2991 C   0  0  0  0  0  0  0  0  0  0  0  0
   -2.1358   -9.2084    2.5791 C   0  0  0  0  0  0  0  0  0  0  0  0
   -3.2931  -11.2079    3.0734 O   0  0  0  0  0  0  0  0  0  0  0  0
   -0.0478   -4.9817    1.8062 C   0  0  0  0  0  0  0  0  0  0  0  0
   -0.4426   -4.7444    0.5813 C   0  0  0  0  0  0  0  0  0  0  0  0
   -0.5372   -3.3534    0.2366 C   0  0  0  0  0  0  0  0  0  0  0  0
    0.0978   -2.3747    0.8224 C   0  0  0  0  0  0  0  0  0  0  0  0
    0.7392   -2.6126    1.9788 C   0  0  0  0  0  0  0  0  0  0  0  0
    0.6999   -3.9225    2.4995 C   0  0  0  0  0  0  0  0  0  0  0  0
    1.2671  -10.7368    4.5547 C   0  0  0  0  0  0  0  0  0  0  0  0
    1.7080  -12.0222    3.9631 C   0  0  0  0  0  0  0  0  0  0  0  0
  3  7  1  0
  8  9  1  0
  4 10  1  0
  9 10  1  0
  9 11  2  0
  6 12  1  0
  7 18  1  1
 18 19  1  0
  7  8  1  0
 12 13  2  0
 13 14  1  0
 14 15  2  0
 15 16  1  0
 16 17  2  0
 12 17  1  0
  1  2  2  0
  2  6  1  0
  5  6  2  0
  4  5  1  0
  3  4  2  0
  1  3  1  0
M  END

$$$$
No_2659-/export/home/yangzhenyu/potential_scad_32_flow//YTHDC2/2024-12-06-03-22-00/
     RDKit          3D

 19 20  0  0  1  0  0  0  0  0999 V2000
    1.1787   -8.0297    3.5154 C   0  0  0  0  0  0  0  0  0  0  0  0
    1.0491   -6.8434    2.9820 N   0  0  0  0  0  0  0  0  0  0  0  0
    1.0164   -9.0814    2.6596 C   0  0  0  0  0  0  0  0  0  0  0  0
    0.8420   -8.8183    1.4191 C   0  0  0  0  0  0  0  0  0  0  0  0
    0.8845   -7.3142    1.0994 C   0  0  0  0  0  0  0  0  0  0  0  0
    1.0482   -6.4272    1.8642 C   0  0  0  0  0  0  0  0  0  0  0  0
    0.9878  -10.5594    3.1965 C   0  0  2  0  0  0  0  0  0  0  0  0
   -0.1800  -11.1634    3.3305 C   0  0  0  0  0  0  0  0  0  0  0  0
   -0.7890  -11.5816    2.4420 C   0  0  0  0  0  0  0  0  0  0  0  0
   -0.0620  -12.2385    1.3837 C   0  0  0  0  0  0  0  0  0  0  0  0
   -0.8569  -12.8263    0.2803 C   0  0  0  0  0  0  0  0  0  0  0  0
   -2.1118  -12.8872    0.2944 C   0  0  0  0  0  0  0  0  0  0  0  0
   -2.8602  -12.3389    1.2901 C   0  0  0  0  0  0  0  0  0  0  0  0
   -2.1934  -11.7095    2.3500 C   0  0  0  0  0  0  0  0  0  0  0  0
    1.0709   -5.0936    1.5209 C   0  0  0  0  0  0  0  0  0  0  0  0
    2.2422  -10.9570    3.5846 C   0  0  0  0  0  0  0  0  0  0  0  0
    0.2894   -4.1529    2.1571 C   0  0  0  0  0  0  0  0  0  0  0  0
    0.2880   -2.8627    1.8417 C   0  0  0  0  0  0  0  0  0  0  0  0
    1.1339   -2.3832    0.8112 C   0  0  0  0  0  0  0  0  0  0  0  0
  3  7  1  0
  7  8  1  0
  6 15  1  0
  7 16  1  1
 15 17  1  0
 17 18  2  3
 18 19  1  0
  8  9  1  0
  1  2  2  0
  2  6  1  0
  5  6  2  0
  4  5  1  0
  3  4  2  0
  1  3  1  0
  9 10  2  0
 10 11  1  0
 11 12  2  0
 12 13  1  0
 13 14  2  0
  9 14  1  0
M  END

$$$$
No_2660-/export/home/yangzhenyu/potential_scad_32_flow//YTHDC2/2024-12-06-03-22-00/
     RDKit          3D

 17 17  0  0  1  0  0  0  0  0999 V2000
    1.1787   -8.0297    3.5154 C   0  0  0  0  0  0  0  0  0  0  0  0
    1.1048   -9.2215    3.2892 C   0  0  0  0  0  0  0  0  0  0  0  0
    1.3627  -10.1721    4.3044 C   0  0  0  0  0  0  0  0  0  0  0  0
    2.3720  -10.8948    4.2468 C   0  0  0  0  0  0  0  0  0  0  0  0
    0.8234   -7.0464    2.5717 C   0  0  0  0  0  0  0  0  0  0  0  0
    0.4328   -7.4736    1.3042 C   0  0  0  0  0  0  0  0  0  0  0  0
    0.3532   -8.7488    0.9919 C   0  0  0  0  0  0  0  0  0  0  0  0
    0.7039   -9.7094    1.9672 C   0  0  0  0  0  0  0  0  0  0  0  0
    0.6986  -10.9809    1.7122 C   0  0  1  0  0  0  0  0  0  0  0  0
   -0.1824  -11.8267    2.1190 C   0  0  0  0  0  0  0  0  0  0  0  0
   -1.3881  -11.4336    2.6009 O   0  0  0  0  0  0  0  0  0  0  0  0
    0.1088  -13.1444    2.3413 O   0  0  0  0  0  0  0  0  0  0  0  0
    0.9632   -5.5973    2.8236 C   0  0  0  0  0  0  0  0  0  0  0  0
    1.6621   -5.2580    3.8360 O   0  0  0  0  0  0  0  0  0  0  0  0
    0.4136   -4.7394    2.0705 O   0  0  0  0  0  0  0  0  0  0  0  0
    1.6735  -11.5382    0.8023 C   0  0  0  0  0  0  0  0  0  0  0  0
    3.6217  -10.2991    4.7229 O   0  0  0  0  0  0  0  0  0  0  0  0
  2  3  1  0
  3  4  1  0
  8  9  1  0
  9 10  1  0
 10 11  2  0
 10 12  1  0
  5 13  1  0
 13 14  1  0
 13 15  2  0
  9 16  1  6
  4 17  1  0
  1  2  2  0
  2  8  1  0
  7  8  2  0
  6  7  1  0
  5  6  2  0
  1  5  1  0
M  END

$$$$
No_2661-/export/home/yangzhenyu/potential_scad_32_flow//YTHDC2/2024-12-06-03-22-00/
     RDKit          3D

 18 18  0  0  1  0  0  0  0  0999 V2000
    1.1787   -8.0297    3.5154 C   0  0  0  0  0  0  0  0  0  0  0  0
    1.0491   -6.8434    2.9820 C   0  0  0  0  0  0  0  0  0  0  0  0
    0.9905   -9.0774    2.6527 C   0  0  0  0  0  0  0  0  0  0  0  0
    0.7897   -8.9519    1.3691 C   0  0  0  0  0  0  0  0  0  0  0  0
    0.6550  -10.0985    0.4848 C   0  0  0  0  0  0  0  0  0  0  0  0
    0.7849   -6.5836    1.6043 C   0  0  0  0  0  0  0  0  0  0  0  0
    0.6652   -7.6671    0.8008 C   0  0  0  0  0  0  0  0  0  0  0  0
    1.2441  -11.1828    0.5777 O   0  0  0  0  0  0  0  0  0  0  0  0
   -0.1744   -9.9646   -0.6150 O   0  0  0  0  0  0  0  0  0  0  0  0
    0.6695   -5.3069    1.0831 Cl  0  0  0  0  0  0  0  0  0  0  0  0
    1.2518  -10.4609    3.2382 N   0  0  0  0  0  0  0  0  0  0  0  0
    0.2764  -11.1882    3.8091 C   0  0  2  0  0  0  0  0  0  0  0  0
   -0.7789  -10.4258    4.1869 C   0  0  0  0  0  0  0  0  0  0  0  0
    0.5736  -12.3532    4.2138 C   0  0  0  0  0  0  0  0  0  0  0  0
    1.4297  -13.0597    3.0800 C   0  0  0  0  0  0  0  0  0  0  0  0
    0.9846  -14.4621    2.8321 C   0  0  0  0  0  0  0  0  0  0  0  0
    0.2094  -15.1736    3.3645 O   0  0  0  0  0  0  0  0  0  0  0  0
    2.0362  -15.2123    2.2186 O   0  0  0  0  0  0  0  0  0  0  0  0
  4  5  1  0
  5  8  2  0
  5  9  1  0
  6 10  1  0
  3 11  1  0
 11 12  1  0
 12 13  1  1
 12 14  1  0
 14 15  1  0
 15 16  1  0
 16 17  2  0
 16 18  1  0
  1  2  2  0
  2  6  1  0
  6  7  2  0
  4  7  1  0
  3  4  2  0
  1  3  1  0
M  END

$$$$
No_2662-/export/home/yangzhenyu/potential_scad_32_flow//YTHDC2/2024-12-06-03-22-00/
     RDKit          3D

 20 21  0  0  1  0  0  0  0  0999 V2000
    1.1787   -8.0297    3.5154 C   0  0  0  0  0  0  0  0  0  0  0  0
    1.0491   -6.8434    2.9820 C   0  0  0  0  0  0  0  0  0  0  0  0
    0.0950   -8.8404    3.2292 C   0  0  2  0  0  0  0  0  0  0  0  0
    0.0602  -10.1764    3.8231 C   0  0  0  0  0  0  0  0  0  0  0  0
    0.2248   -6.3830    2.0648 C   0  0  2  0  0  0  0  0  0  0  0  0
   -0.6745   -7.2322    1.6857 C   0  0  0  0  0  0  0  0  0  0  0  0
   -0.7374   -8.4992    2.1291 C   0  0  0  0  0  0  0  0  0  0  0  0
    1.0201  -10.8960    4.1038 C   0  0  0  0  0  0  0  0  0  0  0  0
    0.8663  -12.2863    4.4757 C   0  0  0  0  0  0  0  0  0  0  0  0
    0.8417  -13.0511    3.2961 C   0  0  0  0  0  0  0  0  0  0  0  0
    0.9263  -12.5931    2.0211 C   0  0  0  0  0  0  0  0  0  0  0  0
    0.2121  -13.0726    1.0393 C   0  0  0  0  0  0  0  0  0  0  0  0
   -0.1204  -14.2881    0.9357 C   0  0  0  0  0  0  0  0  0  0  0  0
   -0.1070  -15.0280    2.1349 C   0  0  0  0  0  0  0  0  0  0  0  0
    0.4705  -14.4670    3.3236 C   0  0  0  0  0  0  0  0  0  0  0  0
    0.3601   -5.0906    1.4409 C   0  0  0  0  0  0  0  0  0  0  0  0
   -0.3910   -4.0558    1.8016 P   0  0  0  0  0  0  0  0  0  0  0  0
   -0.0631   -2.9026    1.0833 O   0  0  0  0  0  0  0  0  0  0  0  0
   -1.4657   -4.0227    2.5456 O   0  0  0  0  0  0  0  0  0  0  0  0
   -1.7198   -7.0558    0.8223 O   0  0  0  0  0  0  0  0  0  0  0  0
  1  2  1  0
  3  4  1  0
  5  6  1  0
  3  7  1  6
  6  7  1  0
  4  8  2  3
  8  9  1  0
  5 16  1  6
 16 17  1  0
 17 18  2  0
 17 19  2  0
  6 20  2  0
  9 10  1  0
  2  5  1  0
  1  3  1  0
 10 11  2  0
 11 12  1  0
 12 13  2  0
 13 14  1  0
 14 15  2  0
 10 15  1  0
M  END

$$$$
No_2663-/export/home/yangzhenyu/potential_scad_32_flow//YTHDC2/2024-12-06-03-22-00/
     RDKit          3D

 17 18  0  0  1  0  0  0  0  0999 V2000
    1.1787   -8.0297    3.5154 C   0  0  0  0  0  0  0  0  0  0  0  0
    1.1048   -9.2215    3.2892 C   0  0  0  0  0  0  0  0  0  0  0  0
    1.3627  -10.1721    4.3044 C   0  0  0  0  0  0  0  0  0  0  0  0
    1.0682  -11.5187    4.0618 C   0  0  0  0  0  0  0  0  0  0  0  0
    0.6332  -11.9655    2.9682 C   0  0  0  0  0  0  0  0  0  0  0  0
    0.4776  -11.1308    1.9203 C   0  0  0  0  0  0  0  0  0  0  0  0
    0.7470   -9.8274    2.0368 C   0  0  0  0  0  0  0  0  0  0  0  0
    1.8805   -7.1616    3.5539 N   0  0  0  0  0  0  0  0  0  0  0  0
    0.3734  -13.4254    2.7840 C   0  0  2  0  0  0  0  0  0  0  0  0
    1.3568  -14.3373    3.1236 C   0  0  0  0  0  0  0  0  0  0  0  0
    1.1354  -15.7062    3.0089 C   0  0  0  0  0  0  0  0  0  0  0  0
   -0.0208  -16.1349    2.5641 C   0  0  0  0  0  0  0  0  0  0  0  0
   -0.9547  -15.2963    2.1331 C   0  0  0  0  0  0  0  0  0  0  0  0
   -0.7107  -13.9143    2.2662 C   0  0  0  0  0  0  0  0  0  0  0  0
   -0.2585   -7.5467    3.6094 F   0  0  0  0  0  0  0  0  0  0  0  0
   -1.7799  -13.0481    1.9311 O   0  0  0  0  0  0  0  0  0  0  0  0
    2.8740   -7.3103    3.4492 H   0  0  0  0  0  0  0  0  0  0  0  0
  1  2  1  0
  1  8  2  0
  9  5  1  6
  9 10  1  0
 11 12  1  0
  9 14  1  0
 13 14  1  0
  1 15  1  0
 14 16  2  0
 10 11  1  0
 12 13  1  0
  2  3  2  0
  3  4  1  0
  4  5  2  0
  5  6  1  0
  6  7  2  0
  2  7  1  0
  8 17  1  0
M  END

$$$$
No_2664-/export/home/yangzhenyu/potential_scad_32_flow//YTHDC2/2024-12-06-03-22-00/
     RDKit          3D

 18 18  0  0  1  0  0  0  0  0999 V2000
    1.1787   -8.0297    3.5154 C   0  0  0  0  0  0  0  0  0  0  0  0
    1.0491   -6.8434    2.9820 C   0  0  0  0  0  0  0  0  0  0  0  0
    0.9905   -9.0774    2.6527 C   0  0  0  0  0  0  0  0  0  0  0  0
    0.7897   -8.9519    1.3691 C   0  0  0  0  0  0  0  0  0  0  0  0
    0.7018   -7.7198    0.7892 C   0  0  0  0  0  0  0  0  0  0  0  0
    0.8918   -6.5957    1.6117 C   0  0  0  0  0  0  0  0  0  0  0  0
    1.0998  -10.4710    3.2437 C   0  0  1  0  0  0  0  0  0  0  0  0
    2.1917  -10.8879    3.7399 C   0  0  0  0  0  0  0  0  0  0  0  0
    0.8983   -5.2566    1.2088 C   0  0  0  0  0  0  0  0  0  0  0  0
   -0.0163  -11.2298    3.3739 C   0  0  0  0  0  0  0  0  0  0  0  0
   -1.1391  -10.5481    3.9500 O   0  0  0  0  0  0  0  0  0  0  0  0
   -0.2540  -12.3725    2.9106 O   0  0  0  0  0  0  0  0  0  0  0  0
    1.6209   -4.3583    1.8647 Br  0  0  0  0  0  0  0  0  0  0  0  0
    2.2417  -11.5648    5.0348 S   0  0  0  0  0  0  0  0  0  0  0  0
    1.2653  -10.5385    5.6223 C   0  0  0  0  0  0  0  0  0  0  0  0
    0.6341  -10.1329    0.2346 C   0  0  0  0  0  0  0  0  0  0  0  0
   -0.3989  -10.3362   -0.1617 C   0  0  0  0  0  0  0  0  0  0  0  0
   -1.1000  -11.4912   -0.1379 O   0  0  0  0  0  0  0  0  0  0  0  0
  3  7  1  0
  7  8  1  1
  6  9  1  0
  7 10  1  0
 10 11  1  0
 10 12  2  0
  9 13  1  0
  8 14  1  0
 14 15  1  0
  4 16  1  0
 16 17  1  0
 17 18  1  0
  1  2  2  0
  2  6  1  0
  5  6  2  0
  4  5  1  0
  3  4  2  0
  1  3  1  0
M  END

$$$$
No_2665-/export/home/yangzhenyu/potential_scad_32_flow//YTHDC2/2024-12-06-03-22-00/
     RDKit          3D

 18 19  0  0  0  0  0  0  0  0999 V2000
    1.1787   -8.0297    3.5154 C   0  0  0  0  0  0  0  0  0  0  0  0
    1.1048   -9.2215    3.2892 C   0  0  0  0  0  0  0  0  0  0  0  0
    1.3627  -10.1721    4.3044 N   0  0  0  0  0  0  0  0  0  0  0  0
    0.9525   -6.9720    2.5932 C   0  0  0  0  0  0  0  0  0  0  0  0
    0.7500   -7.4173    1.3424 C   0  0  0  0  0  0  0  0  0  0  0  0
    0.6609   -8.6866    0.9881 C   0  0  0  0  0  0  0  0  0  0  0  0
    0.8627   -9.6609    1.9163 C   0  0  0  0  0  0  0  0  0  0  0  0
    1.2683  -11.5159    3.9893 C   0  0  0  0  0  0  0  0  0  0  0  0
    0.9346  -11.9230    2.7968 C   0  0  0  0  0  0  0  0  0  0  0  0
    0.7415  -10.9682    1.7588 C   0  0  0  0  0  0  0  0  0  0  0  0
    1.0156  -13.3127    2.4351 C   0  0  0  0  0  0  0  0  0  0  0  0
   -0.0547  -13.9604    1.9689 C   0  0  0  0  0  0  0  0  0  0  0  0
   -1.1682  -13.5634    2.1945 C   0  0  0  0  0  0  0  0  0  0  0  0
   -1.5460  -12.4843    2.6400 C   0  0  0  0  0  0  0  0  0  0  0  0
   -1.3519  -11.4852    3.1614 C   0  0  0  0  0  0  0  0  0  0  0  0
    2.2866  -13.9011    2.4239 O   0  0  0  0  0  0  0  0  0  0  0  0
   -2.4510  -10.4348    3.4841 C   0  0  0  0  0  0  0  0  0  0  0  0
   -3.5201  -11.0574    3.1375 C   0  0  0  0  0  0  0  0  0  0  0  0
  9 11  1  0
 11 12  1  0
 12 13  1  0
 13 14  2  3
 14 15  1  0
 11 16  2  0
 15 17  2  3
 17 18  1  0
  1  2  2  0
  6  7  2  0
  5  6  1  0
  4  5  2  0
  1  4  1  0
  2  3  1  0
  3  8  2  0
  8  9  1  0
  9 10  2  0
  7 10  1  0
  2  7  1  0
M  END

$$$$
No_2666-/export/home/yangzhenyu/potential_scad_32_flow//YTHDC2/2024-12-06-03-22-00/
     RDKit          3D

 18 20  0  0  0  0  0  0  0  0999 V2000
    1.1787   -8.0297    3.5154 C   0  0  0  0  0  0  0  0  0  0  0  0
    1.0491   -6.8434    2.9820 C   0  0  0  0  0  0  0  0  0  0  0  0
    0.9905   -9.0774    2.6527 C   0  0  0  0  0  0  0  0  0  0  0  0
    0.7897   -8.9519    1.3691 C   0  0  0  0  0  0  0  0  0  0  0  0
    0.7018   -7.7198    0.7892 C   0  0  0  0  0  0  0  0  0  0  0  0
    0.8918   -6.5957    1.6117 C   0  0  0  0  0  0  0  0  0  0  0  0
    1.0711  -10.4814    3.2282 C   0  0  0  0  0  0  0  0  0  0  0  0
   -0.1055  -11.1328    3.5223 C   0  0  0  0  0  0  0  0  0  0  0  0
   -0.1824  -12.4513    3.3816 C   0  0  0  0  0  0  0  0  0  0  0  0
    0.9472  -13.2655    3.1726 C   0  0  0  0  0  0  0  0  0  0  0  0
    2.1715  -12.6012    2.9116 C   0  0  0  0  0  0  0  0  0  0  0  0
    2.2064  -11.2741    2.8264 N   0  0  0  0  0  0  0  0  0  0  0  0
    0.9545  -14.8414    3.3121 C   0  0  0  0  0  0  0  0  0  0  0  0
    1.9682  -15.4689    2.7607 C   0  0  0  0  0  0  0  0  0  0  0  0
    1.9542  -16.8393    2.8820 C   0  0  0  0  0  0  0  0  0  0  0  0
    1.1462  -17.6913    3.3925 N   0  0  0  0  0  0  0  0  0  0  0  0
    0.1892  -17.0278    3.9854 C   0  0  0  0  0  0  0  0  0  0  0  0
    0.0242  -15.6633    3.9388 C   0  0  0  0  0  0  0  0  0  0  0  0
  3  7  1  0
 10 13  1  0
 13 14  2  0
 14 15  1  0
 15 16  2  0
 16 17  1  0
 17 18  2  0
 13 18  1  0
  1  2  2  0
  2  6  1  0
  5  6  2  0
  4  5  1  0
  3  4  2  0
  1  3  1  0
  7  8  2  0
  8  9  1  0
  9 10  2  0
 10 11  1  0
 11 12  2  0
  7 12  1  0
M  END

$$$$
No_2667-/export/home/yangzhenyu/potential_scad_32_flow//YTHDC2/2024-12-06-03-22-00/
     RDKit          3D

 18 18  0  0  0  0  0  0  0  0999 V2000
    1.1787   -8.0297    3.5154 C   0  0  0  0  0  0  0  0  0  0  0  0
    1.1048   -9.2215    3.2892 C   0  0  0  0  0  0  0  0  0  0  0  0
    1.3627  -10.1721    4.3044 C   0  0  0  0  0  0  0  0  0  0  0  0
    2.3720  -10.8948    4.2468 C   0  0  0  0  0  0  0  0  0  0  0  0
    0.8234   -7.0464    2.5717 C   0  0  0  0  0  0  0  0  0  0  0  0
    0.4328   -7.4736    1.3042 C   0  0  0  0  0  0  0  0  0  0  0  0
    0.3532   -8.7488    0.9919 C   0  0  0  0  0  0  0  0  0  0  0  0
    0.7039   -9.7094    1.9672 C   0  0  0  0  0  0  0  0  0  0  0  0
    0.6986  -10.9809    1.7122 C   0  0  0  0  0  0  0  0  0  0  0  0
    0.2380  -11.4707    0.7534 O   0  0  0  0  0  0  0  0  0  0  0  0
    1.5531  -11.9290    2.3151 O   0  0  0  0  0  0  0  0  0  0  0  0
    3.5878  -10.1138    4.6692 O   0  0  0  0  0  0  0  0  0  0  0  0
    0.9857   -5.5756    2.8295 Cl  0  0  0  0  0  0  0  0  0  0  0  0
    0.0654   -9.1669   -0.2963 C   0  0  0  0  0  0  0  0  0  0  0  0
    0.8716   -8.8842   -1.4170 C   0  0  0  0  0  0  0  0  0  0  0  0
    2.2009   -9.0479   -1.1015 O   0  0  0  0  0  0  0  0  0  0  0  0
    0.4817   -8.7816   -2.4290 O   0  0  0  0  0  0  0  0  0  0  0  0
    2.6229  -12.0468    4.3500 O   0  0  0  0  0  0  0  0  0  0  0  0
  2  3  1  0
  3  4  1  0
  8  9  1  0
  9 10  2  0
  9 11  1  0
  4 12  1  0
  5 13  1  0
  7 14  1  0
 14 15  1  0
 15 16  1  0
 15 17  2  0
  4 18  2  0
  1  2  2  0
  2  8  1  0
  7  8  2  0
  6  7  1  0
  5  6  2  0
  1  5  1  0
M  END

$$$$
No_2668-/export/home/yangzhenyu/potential_scad_32_flow//YTHDC2/2024-12-06-03-22-00/
     RDKit          3D

 20 22  0  0  0  0  0  0  0  0999 V2000
    1.1787   -8.0297    3.5154 C   0  0  0  0  0  0  0  0  0  0  0  0
    1.1048   -9.2215    3.2892 C   0  0  0  0  0  0  0  0  0  0  0  0
    1.3627  -10.1721    4.3044 C   0  0  0  0  0  0  0  0  0  0  0  0
    1.0682  -11.5187    4.0618 C   0  0  0  0  0  0  0  0  0  0  0  0
    0.6332  -11.9655    2.9682 C   0  0  0  0  0  0  0  0  0  0  0  0
    0.4776  -11.1308    1.9203 C   0  0  0  0  0  0  0  0  0  0  0  0
    0.7470   -9.8274    2.0368 C   0  0  0  0  0  0  0  0  0  0  0  0
    0.5535   -7.1314    2.6861 C   0  0  0  0  0  0  0  0  0  0  0  0
    0.2950   -7.6000    1.3275 C   0  0  0  0  0  0  0  0  0  0  0  0
    0.2692   -8.8631    1.0973 C   0  0  0  0  0  0  0  0  0  0  0  0
   -0.0070   -6.7080    0.3888 C   0  0  0  0  0  0  0  0  0  0  0  0
   -0.2106   -5.3957    0.7330 C   0  0  0  0  0  0  0  0  0  0  0  0
    0.4730  -13.6158    2.7202 C   0  0  0  0  0  0  0  0  0  0  0  0
   -0.6099  -13.9991    2.5555 C   0  0  0  0  0  0  0  0  0  0  0  0
   -0.7149  -15.4362    2.4444 N   0  0  0  0  0  0  0  0  0  0  0  0
    1.6139  -14.3919    2.9921 N   0  0  0  0  0  0  0  0  0  0  0  0
    0.2929  -16.1546    2.6095 C   0  0  0  0  0  0  0  0  0  0  0  0
    0.1721  -17.5078    2.6356 C   0  0  0  0  0  0  0  0  0  0  0  0
    1.5801  -15.5978    2.9706 C   0  0  0  0  0  0  0  0  0  0  0  0
   -0.9235   -4.3600   -0.0488 O   0  0  0  0  0  0  0  0  0  0  0  0
  9 11  1  0
 11 12  2  3
  5 13  1  0
 17 18  1  0
 12 20  1  0
  2  3  1  0
  3  4  2  0
  4  5  1  0
  5  6  2  0
  6  7  1  0
 13 14  2  0
 14 15  1  0
 15 17  2  0
 17 19  1  0
 16 19  2  0
 13 16  1  0
  1  2  2  0
  2  7  1  0
  7 10  2  0
  9 10  1  0
  8  9  2  0
  1  8  1  0
M  END

$$$$
No_2669-/export/home/yangzhenyu/potential_scad_32_flow//YTHDC2/2024-12-06-03-22-00/
     RDKit          3D

 16 17  0  0  1  0  0  0  0  0999 V2000
    1.1787   -8.0297    3.5154 C   0  0  0  0  0  0  0  0  0  0  0  0
    1.1048   -9.2215    3.2892 C   0  0  0  0  0  0  0  0  0  0  0  0
    1.2339   -9.7611    2.0189 C   0  0  0  0  0  0  0  0  0  0  0  0
    1.4306   -8.9466    1.1170 C   0  0  0  0  0  0  0  0  0  0  0  0
    1.6532   -7.5949    1.1786 C   0  0  0  0  0  0  0  0  0  0  0  0
    1.4973   -7.0739    2.4258 C   0  0  0  0  0  0  0  0  0  0  0  0
    1.4438   -5.6890    2.7316 C   0  0  0  0  0  0  0  0  0  0  0  0
    1.2604  -11.3384    1.8135 C   0  0  0  0  0  0  0  0  0  0  0  0
    1.7881  -12.1038    2.6189 C   0  0  0  0  0  0  0  0  0  0  0  0
    1.6122  -13.4926    2.2362 C   0  0  1  0  0  0  0  0  0  0  0  0
    1.0427  -13.8327    1.0795 C   0  0  0  0  0  0  0  0  0  0  0  0
    0.5467  -12.8238    0.1692 C   0  0  0  0  0  0  0  0  0  0  0  0
    0.6157  -11.5327    0.5627 C   0  0  0  0  0  0  0  0  0  0  0  0
    2.1457  -14.4770    3.1042 Cl  0  0  0  0  0  0  0  0  0  0  0  0
    0.5259   -4.9439    2.8233 O   0  0  0  0  0  0  0  0  0  0  0  0
    0.1044  -10.6421   -0.2609 O   0  0  0  0  0  0  0  0  0  0  0  0
  6  7  1  0
  3  8  1  0
  8  9  1  0
 10 11  1  0
  8 13  1  0
 12 13  1  0
 10 14  1  6
  7 15  2  0
 13 16  2  0
  9 10  1  0
 11 12  1  0
  1  2  2  0
  2  3  1  0
  3  4  2  0
  4  5  1  0
  5  6  2  0
  1  6  1  0
M  END

$$$$
No_2670-/export/home/yangzhenyu/potential_scad_32_flow//YTHDC2/2024-12-06-03-22-00/
     RDKit          3D

 17 18  0  0  1  0  0  0  0  0999 V2000
    1.1787   -8.0297    3.5154 C   0  0  0  0  0  0  0  0  0  0  0  0
    1.1048   -9.2215    3.2892 C   0  0  0  0  0  0  0  0  0  0  0  0
    1.2339   -9.7611    2.0189 C   0  0  0  0  0  0  0  0  0  0  0  0
    1.3583   -9.0036    0.9764 P   0  0  2  0  0  0  0  0  0  0  0  0
    1.6220   -7.4900    1.8076 C   0  0  0  0  0  0  0  0  0  0  0  0
    0.2075   -8.7925    0.0998 O   0  0  0  0  0  0  0  0  0  0  0  0
    2.6140   -9.1380    0.2006 O   0  0  0  0  0  0  0  0  0  0  0  0
    0.9975  -11.2280    1.8891 C   0  0  2  0  0  0  0  0  0  0  0  0
    2.0397  -12.1023    1.9047 Cl  0  0  0  0  0  0  0  0  0  0  0  0
    0.1387  -11.4128    0.4908 C   0  0  0  0  0  0  0  0  0  0  0  0
   -0.3343  -12.7368    0.4342 C   0  0  0  0  0  0  0  0  0  0  0  0
   -1.3820  -12.7902    0.6666 C   0  0  0  0  0  0  0  0  0  0  0  0
   -1.9215  -13.9154    1.1420 C   0  0  0  0  0  0  0  0  0  0  0  0
   -1.2077  -15.1075    1.1247 C   0  0  0  0  0  0  0  0  0  0  0  0
    0.1311  -15.0492    0.6989 C   0  0  0  0  0  0  0  0  0  0  0  0
    0.5900  -13.8584    0.2652 C   0  0  0  0  0  0  0  0  0  0  0  0
    0.9121   -9.9505    4.5229 O   0  0  0  0  0  0  0  0  0  0  0  0
  1  2  1  0
  2  3  2  0
  3  4  1  0
  1  5  1  0
  4  5  1  0
  4  6  2  0
  4  7  1  6
  3  8  1  0
  8  9  1  6
  8 10  1  0
 10 11  1  0
  2 17  1  0
 11 12  2  0
 12 13  1  0
 13 14  2  0
 14 15  1  0
 15 16  2  0
 11 16  1  0
M  END

$$$$
No_2671-/export/home/yangzhenyu/potential_scad_32_flow//YTHDC2/2024-12-06-03-22-00/
     RDKit          3D

 19 21  0  0  0  0  0  0  0  0999 V2000
    1.1787   -8.0297    3.5154 C   0  0  0  0  0  0  0  0  0  0  0  0
    1.1048   -9.2215    3.2892 C   0  0  0  0  0  0  0  0  0  0  0  0
    1.3627  -10.1721    4.3044 C   0  0  0  0  0  0  0  0  0  0  0  0
    1.0682  -11.5187    4.0618 C   0  0  0  0  0  0  0  0  0  0  0  0
    0.6332  -11.9655    2.9682 C   0  0  0  0  0  0  0  0  0  0  0  0
    0.4776  -11.1308    1.9203 C   0  0  0  0  0  0  0  0  0  0  0  0
    0.7470   -9.8274    2.0368 C   0  0  0  0  0  0  0  0  0  0  0  0
    1.0387   -7.0301    2.5175 C   0  0  0  0  0  0  0  0  0  0  0  0
    0.9130   -7.5288    1.2013 C   0  0  0  0  0  0  0  0  0  0  0  0
    0.7893   -8.7979    0.9542 C   0  0  0  0  0  0  0  0  0  0  0  0
    0.5241   -9.2578   -0.2817 C   0  0  0  0  0  0  0  0  0  0  0  0
   -0.1121   -8.6523   -1.0898 O   0  0  0  0  0  0  0  0  0  0  0  0
    0.4743  -13.6037    2.6713 C   0  0  0  0  0  0  0  0  0  0  0  0
    1.0364  -14.1130    1.6480 C   0  0  0  0  0  0  0  0  0  0  0  0
    1.5862  -15.1815    1.7914 C   0  0  0  0  0  0  0  0  0  0  0  0
    1.0669  -16.1499    2.8262 C   0  0  0  0  0  0  0  0  0  0  0  0
    0.4248  -15.4925    3.9543 C   0  0  0  0  0  0  0  0  0  0  0  0
    0.1977  -14.2007    3.8808 C   0  0  0  0  0  0  0  0  0  0  0  0
    1.1072  -10.2391   -0.7985 O   0  0  0  0  0  0  0  0  0  0  0  0
 10 11  1  0
 11 12  2  0
  5 13  1  0
 11 19  1  0
  2  3  1  0
  3  4  2  0
  4  5  1  0
  5  6  2  0
  6  7  1  0
 13 14  2  0
 14 15  1  0
 15 16  2  0
 16 17  1  0
 17 18  2  0
 13 18  1  0
  1  2  2  0
  2  7  1  0
  7 10  2  0
  9 10  1  0
  8  9  2  0
  1  8  1  0
M  END

$$$$
No_2672-/export/home/yangzhenyu/potential_scad_32_flow//YTHDC2/2024-12-06-03-22-00/
     RDKit          3D

 18 19  0  0  1  0  0  0  0  0999 V2000
    1.1787   -8.0297    3.5154 C   0  0  0  0  0  0  0  0  0  0  0  0
    1.0491   -6.8434    2.9820 C   0  0  0  0  0  0  0  0  0  0  0  0
    1.9985   -8.9840    2.8958 C   0  0  0  0  0  0  0  0  0  0  0  0
    1.9135  -10.3404    3.6266 C   0  0  0  0  0  0  0  0  0  0  0  0
    1.3291  -11.3908    3.0222 C   0  0  0  0  0  0  0  0  0  0  0  0
    1.2749  -12.5326    3.7562 C   0  0  0  0  0  0  0  0  0  0  0  0
    0.4248   -6.6481    1.7861 C   0  0  1  0  0  0  0  0  0  0  0  0
    0.4186   -7.4786    1.0077 C   0  0  0  0  0  0  0  0  0  0  0  0
    0.9883  -13.6405    3.1466 C   0  0  0  0  0  0  0  0  0  0  0  0
    0.7476  -13.7592    1.8463 C   0  0  0  0  0  0  0  0  0  0  0  0
    0.8336  -12.6863    1.0685 C   0  0  0  0  0  0  0  0  0  0  0  0
    1.1531  -11.4532    1.6176 C   0  0  0  0  0  0  0  0  0  0  0  0
    1.3030  -10.3798    0.7818 C   0  0  0  0  0  0  0  0  0  0  0  0
    0.8017   -8.9517    0.3944 C   0  0  0  0  0  0  0  0  0  0  0  0
    0.2866   -9.1600   -0.9493 O   0  0  0  0  0  0  0  0  0  0  0  0
   -0.7787   -6.1477    1.9306 C   0  0  0  0  0  0  0  0  0  0  0  0
   -1.8961   -6.7297    2.0314 C   0  0  0  0  0  0  0  0  0  0  0  0
   -2.8495   -6.0796    2.6717 C   0  0  0  0  0  0  0  0  0  0  0  0
  1  2  1  0
  1  3  1  0
  3  4  1  0
  4  5  1  0
  2  7  1  0
  7  8  1  0
 12 13  1  0
  8 14  1  0
 13 14  1  0
 14 15  2  0
  7 16  1  1
 16 17  1  0
 17 18  2  0
  5  6  2  0
  6  9  1  0
  9 10  2  0
 10 11  1  0
 11 12  2  0
  5 12  1  0
M  END

$$$$
No_2673-/export/home/yangzhenyu/potential_scad_32_flow//YTHDC2/2024-12-06-03-22-00/
     RDKit          3D

 18 18  0  0  1  0  0  0  0  0999 V2000
    1.1787   -8.0297    3.5154 O   0  0  0  0  0  0  0  0  0  0  0  0
    0.9969   -8.9689    3.0048 C   0  0  1  0  0  0  0  0  0  0  0  0
    0.9976   -8.9567    1.6341 C   0  0  2  0  0  0  0  0  0  0  0  0
    1.6062   -9.9071    0.9292 C   0  0  1  0  0  0  0  0  0  0  0  0
    2.1191  -10.9757    1.6503 C   0  0  0  0  0  0  0  0  0  0  0  0
    2.1177  -10.9891    3.0403 C   0  0  1  0  0  0  0  0  0  0  0  0
    1.5441   -9.8905    3.6897 C   0  0  0  0  0  0  0  0  0  0  0  0
    0.5010   -7.8164    1.0436 C   0  0  0  0  0  0  0  0  0  0  0  0
    1.0624   -6.6356    1.1779 O   0  0  0  0  0  0  0  0  0  0  0  0
   -0.4627   -7.8169    0.1378 O   0  0  0  0  0  0  0  0  0  0  0  0
    1.6310  -10.1399    5.0120 O   0  0  0  0  0  0  0  0  0  0  0  0
    2.5875  -12.1976    3.5687 O   0  0  0  0  0  0  0  0  0  0  0  0
    1.6182   -9.9990   -0.4446 O   0  0  0  0  0  0  0  0  0  0  0  0
    0.6149   -5.5141    1.8601 C   0  0  1  0  0  0  0  0  0  0  0  0
    1.4041   -5.0438    2.8629 C   0  0  0  0  0  0  0  0  0  0  0  0
    0.3165   -4.3302    0.7972 C   0  0  0  0  0  0  0  0  0  0  0  0
   -0.4946   -3.3255    1.3683 C   0  0  0  0  0  0  0  0  0  0  0  0
   -1.6471   -3.6260    1.7194 C   0  0  0  0  0  0  0  0  0  0  0  0
  2  1  1  1
  2  3  1  0
  4  5  1  0
  2  7  1  0
  6  7  1  0
  3  8  1  1
  8  9  1  0
  8 10  2  0
  7 11  2  0
  6 12  1  6
  4 13  1  6
  9 14  1  0
 14 15  1  1
 14 16  1  0
 16 17  1  0
 17 18  1  0
  3  4  1  0
  5  6  1  0
M  END

$$$$
No_2674-/export/home/yangzhenyu/potential_scad_32_flow//YTHDC2/2024-12-06-03-22-00/
     RDKit          3D

 18 18  0  0  0  0  0  0  0  0999 V2000
    1.1787   -8.0297    3.5154 C   0  0  0  0  0  0  0  0  0  0  0  0
    1.1048   -9.2215    3.2892 C   0  0  0  0  0  0  0  0  0  0  0  0
    1.0239   -9.7790    2.0239 C   0  0  0  0  0  0  0  0  0  0  0  0
    1.1393   -9.0211    0.9686 C   0  0  0  0  0  0  0  0  0  0  0  0
    1.3160   -9.6264   -0.3268 C   0  0  0  0  0  0  0  0  0  0  0  0
    1.3620   -7.1064    2.3319 C   0  0  0  0  0  0  0  0  0  0  0  0
    1.2578   -7.6370    1.0089 C   0  0  0  0  0  0  0  0  0  0  0  0
    2.0288   -9.2957   -1.1979 O   0  0  0  0  0  0  0  0  0  0  0  0
    0.3869  -10.5523   -0.6126 O   0  0  0  0  0  0  0  0  0  0  0  0
    1.0933  -10.1568    4.4178 Cl  0  0  0  0  0  0  0  0  0  0  0  0
    1.3893   -5.6168    2.5439 Cl  0  0  0  0  0  0  0  0  0  0  0  0
    1.0466  -11.1677    1.8660 N   0  0  0  0  0  0  0  0  0  0  0  0
    2.3907  -11.7201    1.6885 C   0  0  0  0  0  0  0  0  0  0  0  0
    2.2429  -13.2453    1.5228 C   0  0  0  0  0  0  0  0  0  0  0  0
    1.3412  -13.8721    2.3121 C   0  0  0  0  0  0  0  0  0  0  0  0
    1.7835  -14.7713    3.0756 C   0  0  0  0  0  0  0  0  0  0  0  0
    0.7569  -15.5918    3.6430 O   0  0  0  0  0  0  0  0  0  0  0  0
    0.8708  -16.8395    3.5539 C   0  0  0  0  0  0  0  0  0  0  0  0
  4  5  1  0
  5  8  2  0
  5  9  1  0
  2 10  1  0
  6 11  1  0
  3 12  1  0
 12 13  1  0
 13 14  1  0
 14 15  1  0
 15 16  1  0
 16 17  1  0
 17 18  1  0
  1  2  2  0
  2  3  1  0
  3  4  2  0
  4  7  1  0
  6  7  2  0
  1  6  1  0
M  END

$$$$
No_2675-/export/home/yangzhenyu/potential_scad_32_flow//YTHDC2/2024-12-06-03-22-00/
     RDKit          3D

 19 21  0  0  0  0  0  0  0  0999 V2000
    1.1787   -8.0297    3.5154 C   0  0  0  0  0  0  0  0  0  0  0  0
    1.1048   -9.2215    3.2892 C   0  0  0  0  0  0  0  0  0  0  0  0
    1.3627  -10.1721    4.3044 C   0  0  0  0  0  0  0  0  0  0  0  0
    1.0682  -11.5187    4.0618 C   0  0  0  0  0  0  0  0  0  0  0  0
    0.6332  -11.9655    2.9682 C   0  0  0  0  0  0  0  0  0  0  0  0
    0.4776  -11.1308    1.9203 C   0  0  0  0  0  0  0  0  0  0  0  0
    0.7470   -9.8274    2.0368 C   0  0  0  0  0  0  0  0  0  0  0  0
    1.0387   -7.0301    2.5175 N   0  0  0  0  0  0  0  0  0  0  0  0
    0.9298   -7.5514    1.2672 C   0  0  0  0  0  0  0  0  0  0  0  0
    0.7824   -8.7713    0.9713 C   0  0  0  0  0  0  0  0  0  0  0  0
    0.3996  -13.3769    2.6931 C   0  0  0  0  0  0  0  0  0  0  0  0
    0.8222  -14.0156    1.7427 N   0  0  0  0  0  0  0  0  0  0  0  0
    2.1198  -13.8355    1.2778 C   0  0  0  0  0  0  0  0  0  0  0  0
    0.6837  -15.5246    1.6508 C   0  0  0  0  0  0  0  0  0  0  0  0
    1.6142  -16.2288    2.3053 C   0  0  0  0  0  0  0  0  0  0  0  0
    1.6056  -17.5473    2.4879 C   0  0  0  0  0  0  0  0  0  0  0  0
    0.4478  -18.2033    2.0871 C   0  0  0  0  0  0  0  0  0  0  0  0
   -0.4982  -17.6017    1.4640 C   0  0  0  0  0  0  0  0  0  0  0  0
   -0.4518  -16.2115    1.3133 C   0  0  0  0  0  0  0  0  0  0  0  0
  5 11  1  0
 11 12  1  0
 12 13  1  0
 12 14  1  0
  2  3  1  0
  3  4  2  0
  4  5  1  0
  5  6  2  0
  6  7  1  0
  1  2  2  0
  2  7  1  0
  7 10  2  0
  9 10  1  0
  8  9  2  0
  1  8  1  0
 14 15  2  0
 15 16  1  0
 16 17  2  0
 17 18  1  0
 18 19  2  0
 14 19  1  0
M  END

$$$$
No_2676-/export/home/yangzhenyu/potential_scad_32_flow//YTHDC2/2024-12-06-03-22-00/
     RDKit          3D

 19 21  0  0  1  0  0  0  0  0999 V2000
    1.1787   -8.0297    3.5154 C   0  0  0  0  0  0  0  0  0  0  0  0
    1.1048   -9.2215    3.2892 C   0  0  0  0  0  0  0  0  0  0  0  0
    1.2339   -9.7611    2.0189 C   0  0  1  0  0  0  0  0  0  0  0  0
    1.1954  -11.2312    1.8661 C   0  0  0  0  0  0  0  0  0  0  0  0
    1.5546  -12.1691    2.7931 C   0  0  0  0  0  0  0  0  0  0  0  0
    0.5849   -7.0929    2.5729 C   0  0  2  0  0  0  0  0  0  0  0  0
    0.5567   -7.6699    1.1955 C   0  0  0  0  0  0  0  0  0  0  0  0
    0.7903   -8.9699    0.9209 C   0  0  0  0  0  0  0  0  0  0  0  0
    1.5521  -13.4960    2.3485 C   0  0  0  0  0  0  0  0  0  0  0  0
    1.2403  -13.8919    1.1557 C   0  0  0  0  0  0  0  0  0  0  0  0
    1.0311  -12.9707    0.1488 C   0  0  0  0  0  0  0  0  0  0  0  0
    0.9678  -11.6394    0.4949 C   0  0  0  0  0  0  0  0  0  0  0  0
    0.6235   -5.6335    2.6368 C   0  0  0  0  0  0  0  0  0  0  0  0
    0.2278   -6.8546    0.2236 O   0  0  0  0  0  0  0  0  0  0  0  0
   -0.5856   -5.0099    2.5660 C   0  0  0  0  0  0  0  0  0  0  0  0
    1.7909   -4.8814    2.9971 C   0  0  0  0  0  0  0  0  0  0  0  0
   -0.6230   -3.6184    2.5629 C   0  0  0  0  0  0  0  0  0  0  0  0
    0.4936   -2.8850    2.6835 C   0  0  0  0  0  0  0  0  0  0  0  0
    1.6853   -3.5324    2.8780 C   0  0  0  0  0  0  0  0  0  0  0  0
  1  2  1  0
  3  4  1  1
  6  7  1  0
  3  8  1  0
  7  8  1  0
  6 13  1  6
  7 14  2  0
  1  6  1  0
  2  3  1  0
 13 15  2  0
 15 17  1  0
 17 18  2  0
 18 19  1  0
 16 19  2  0
 13 16  1  0
  4  5  2  0
  5  9  1  0
  9 10  2  0
 10 11  1  0
 11 12  2  0
  4 12  1  0
M  END

$$$$
No_2677-/export/home/yangzhenyu/potential_scad_32_flow//YTHDC2/2024-12-06-03-22-00/
     RDKit          3D

 19 19  0  0  0  0  0  0  0  0999 V2000
    1.1787   -8.0297    3.5154 C   0  0  0  0  0  0  0  0  0  0  0  0
    1.1048   -9.2215    3.2892 C   0  0  0  0  0  0  0  0  0  0  0  0
    1.2339   -9.7611    2.0189 C   0  0  0  0  0  0  0  0  0  0  0  0
    1.3583   -9.0036    0.9764 C   0  0  0  0  0  0  0  0  0  0  0  0
    1.7077   -9.6100   -0.3010 C   0  0  0  0  0  0  0  0  0  0  0  0
    1.3637   -7.1087    2.3226 C   0  0  0  0  0  0  0  0  0  0  0  0
    1.4257   -7.6645    1.0231 C   0  0  0  0  0  0  0  0  0  0  0  0
    1.6722  -10.7840   -0.4044 O   0  0  0  0  0  0  0  0  0  0  0  0
    1.7049   -8.9062   -1.4410 O   0  0  0  0  0  0  0  0  0  0  0  0
    1.1254  -10.1830    4.3846 Br  0  0  0  0  0  0  0  0  0  0  0  0
    1.3159   -5.3598    2.5772 C   0  0  0  0  0  0  0  0  0  0  0  0
    1.0335   -4.7412    1.5765 O   0  0  0  0  0  0  0  0  0  0  0  0
    1.6907   -5.0233    3.6995 O   0  0  0  0  0  0  0  0  0  0  0  0
    1.2538  -11.1329    1.9134 N   0  0  0  0  0  0  0  0  0  0  0  0
    1.0863  -12.2512    1.8476 C   0  0  0  0  0  0  0  0  0  0  0  0
   -0.0269  -12.8074    2.0158 C   0  0  0  0  0  0  0  0  0  0  0  0
   -0.1734  -14.3122    2.2502 C   0  0  0  0  0  0  0  0  0  0  0  0
    1.1912  -14.8760    2.4723 C   0  0  0  0  0  0  0  0  0  0  0  0
    2.4004  -14.2907    2.3223 C   0  0  0  0  0  0  0  0  0  0  0  0
  4  5  1  0
  5  8  2  0
  5  9  1  0
  2 10  1  0
  6 11  1  0
 11 12  2  0
 11 13  1  0
  3 14  1  0
 14 15  1  0
 15 16  1  0
 16 17  2  3
 17 18  1  0
 18 19  2  0
  1  2  2  0
  2  3  1  0
  3  4  2  0
  4  7  1  0
  6  7  2  0
  1  6  1  0
M  END

$$$$
No_2678-/export/home/yangzhenyu/potential_scad_32_flow//YTHDC2/2024-12-06-03-22-00/
     RDKit          3D

 19 20  0  0  0  0  0  0  0  0999 V2000
    1.1787   -8.0297    3.5154 O   0  0  0  0  0  0  0  0  0  0  0  0
    0.9969   -8.9689    3.0048 C   0  0  0  0  0  0  0  0  0  0  0  0
    1.3055  -10.1056    3.6616 C   0  0  0  0  0  0  0  0  0  0  0  0
    1.1249  -11.3503    3.0941 C   0  0  0  0  0  0  0  0  0  0  0  0
    0.6932  -11.4484    1.8586 C   0  0  0  0  0  0  0  0  0  0  0  0
    0.5498  -10.3736    1.0579 C   0  0  0  0  0  0  0  0  0  0  0  0
    0.7643   -9.1185    1.6383 C   0  0  0  0  0  0  0  0  0  0  0  0
    0.5937   -7.8467    1.0482 C   0  0  0  0  0  0  0  0  0  0  0  0
   -0.4358   -7.6746    0.4159 O   0  0  0  0  0  0  0  0  0  0  0  0
    1.3670   -6.7989    1.1380 O   0  0  0  0  0  0  0  0  0  0  0  0
    1.1873  -12.6446    3.8272 C   0  0  0  0  0  0  0  0  0  0  0  0
    1.4573  -13.7377    2.9861 C   0  0  0  0  0  0  0  0  0  0  0  0
    0.6505  -14.4206    2.5568 C   0  0  0  0  0  0  0  0  0  0  0  0
    0.9998  -15.7133    1.8554 C   0  0  0  0  0  0  0  0  0  0  0  0
    0.1936  -16.3913    1.0817 C   0  0  0  0  0  0  0  0  0  0  0  0
   -1.1496  -16.1213    1.1888 C   0  0  0  0  0  0  0  0  0  0  0  0
   -1.5948  -14.9005    1.8069 C   0  0  0  0  0  0  0  0  0  0  0  0
   -0.7375  -14.1906    2.5519 C   0  0  0  0  0  0  0  0  0  0  0  0
   -2.9542  -14.5972    1.7037 O   0  0  0  0  0  0  0  0  0  0  0  0
  1  2  1  0
  7  8  1  0
  8  9  2  0
  8 10  1  0
  4 11  1  0
 11 12  1  0
 17 19  1  0
 12 13  1  0
  2  3  2  0
  3  4  1  0
  4  5  2  0
  5  6  1  0
  6  7  2  0
  2  7  1  0
 13 14  2  0
 14 15  1  0
 15 16  2  0
 16 17  1  0
 17 18  2  0
 13 18  1  0
M  END

$$$$
No_2679-/export/home/yangzhenyu/potential_scad_32_flow//YTHDC2/2024-12-06-03-22-00/
     RDKit          3D

 18 19  0  0  1  0  0  0  0  0999 V2000
    1.1787   -8.0297    3.5154 C   0  0  0  0  0  0  0  0  0  0  0  0
    1.1048   -9.2215    3.2892 C   0  0  0  0  0  0  0  0  0  0  0  0
    1.3627  -10.1721    4.3044 C   0  0  0  0  0  0  0  0  0  0  0  0
    1.0682  -11.5187    4.0618 C   0  0  0  0  0  0  0  0  0  0  0  0
    0.6332  -11.9655    2.9682 C   0  0  0  0  0  0  0  0  0  0  0  0
    0.4776  -11.1308    1.9203 C   0  0  0  0  0  0  0  0  0  0  0  0
    0.7470   -9.8274    2.0368 C   0  0  0  0  0  0  0  0  0  0  0  0
    1.0387   -7.0301    2.5175 C   0  0  2  0  0  0  0  0  0  0  0  0
    0.9130   -7.5288    1.2013 C   0  0  0  0  0  0  0  0  0  0  0  0
    0.7893   -8.7979    0.9542 C   0  0  2  0  0  0  0  0  0  0  0  0
    0.5241   -9.2578   -0.2817 C   0  0  0  0  0  0  0  0  0  0  0  0
    1.2450   -9.2169   -1.2769 O   0  0  0  0  0  0  0  0  0  0  0  0
   -0.8706   -9.3448   -0.6392 O   0  0  0  0  0  0  0  0  0  0  0  0
    0.4959  -13.6336    2.6990 O   0  0  0  0  0  0  0  0  0  0  0  0
    1.6432  -14.3199    2.7234 C   0  0  0  0  0  0  0  0  0  0  0  0
    1.3052   -5.6125    2.7019 O   0  0  0  0  0  0  0  0  0  0  0  0
    0.8644   -6.6012    0.3165 O   0  0  0  0  0  0  0  0  0  0  0  0
    2.0844  -14.6416    1.3650 C   0  0  0  0  0  0  0  0  0  0  0  0
  1  2  1  0
  8  9  1  0
  7 10  1  0
  9 10  1  0
 10 11  1  1
 11 12  2  0
 11 13  1  0
  5 14  1  0
 14 15  1  0
  8 16  1  6
  9 17  2  0
 15 18  1  0
  1  8  1  0
  2  3  2  0
  3  4  1  0
  4  5  2  0
  5  6  1  0
  6  7  2  0
  2  7  1  0
M  END

$$$$
No_2680-/export/home/yangzhenyu/potential_scad_32_flow//YTHDC2/2024-12-06-03-22-00/
     RDKit          3D

 18 18  0  0  1  0  0  0  0  0999 V2000
    1.1787   -8.0297    3.5154 C   0  0  0  0  0  0  0  0  0  0  0  0
    1.0491   -6.8434    2.9820 C   0  0  0  0  0  0  0  0  0  0  0  0
    0.9905   -9.0774    2.6527 C   0  0  0  0  0  0  0  0  0  0  0  0
    0.7897   -8.9519    1.3691 C   0  0  0  0  0  0  0  0  0  0  0  0
    0.8824   -7.5617    0.9293 C   0  0  0  0  0  0  0  0  0  0  0  0
    1.0828   -6.5260    1.6856 C   0  0  0  0  0  0  0  0  0  0  0  0
    0.9835  -10.4771    3.1844 C   0  0  2  0  0  0  0  0  0  0  0  0
    2.0126  -11.0414    3.6353 C   0  0  0  0  0  0  0  0  0  0  0  0
    1.0548   -5.1864    1.2841 C   0  0  0  0  0  0  0  0  0  0  0  0
    2.8638  -10.2574    4.5400 C   0  0  0  0  0  0  0  0  0  0  0  0
    3.8866  -11.0874    5.2903 O   0  0  0  0  0  0  0  0  0  0  0  0
    1.6411   -4.2168    2.0249 O   0  0  0  0  0  0  0  0  0  0  0  0
    0.5075   -4.7821    0.2663 N   0  0  0  0  0  0  0  0  0  0  0  0
   -0.0440  -11.1502    2.9652 C   0  0  0  0  0  0  0  0  0  0  0  0
   -0.0694  -12.5686    2.8360 N   0  0  0  0  0  0  0  0  0  0  0  0
   -1.2866  -10.6473    3.2618 O   0  0  0  0  0  0  0  0  0  0  0  0
   -1.0749  -13.3552    2.7227 C   0  0  0  0  0  0  0  0  0  0  0  0
   -2.0107  -13.1477    1.8506 C   0  0  0  0  0  0  0  0  0  0  0  0
  3  7  1  0
  7  8  1  6
  6  9  1  0
  8 10  1  0
 10 11  1  0
  9 12  2  0
  9 13  1  0
  7 14  1  0
 14 15  1  0
 14 16  2  0
 15 17  1  0
 17 18  1  0
  1  2  2  0
  2  6  1  0
  5  6  2  0
  4  5  1  0
  3  4  2  0
  1  3  1  0
M  END

$$$$
No_2681-/export/home/yangzhenyu/potential_scad_32_flow//YTHDC2/2024-12-06-03-22-00/
     RDKit          3D

 17 19  0  0  1  0  0  0  0  0999 V2000
    1.1787   -8.0297    3.5154 C   0  0  0  0  0  0  0  0  0  0  0  0
    1.1048   -9.2215    3.2892 C   0  0  0  0  0  0  0  0  0  0  0  0
    1.2339   -9.7611    2.0189 C   0  0  0  0  0  0  0  0  0  0  0  0
    1.1954  -11.2312    1.8661 C   0  0  2  0  0  0  0  0  0  0  0  0
    1.5546  -12.1691    2.7931 C   0  0  0  0  0  0  0  0  0  0  0  0
    0.5849   -7.0929    2.5729 C   0  0  0  0  0  0  0  0  0  0  0  0
    0.5567   -7.6699    1.1955 C   0  0  0  0  0  0  0  0  0  0  0  0
    0.7903   -8.9699    0.9209 C   0  0  0  0  0  0  0  0  0  0  0  0
    1.5479  -13.4950    2.3569 N   0  0  0  0  0  0  0  0  0  0  0  0
    1.2536  -13.6656    1.1505 C   0  0  0  0  0  0  0  0  0  0  0  0
    1.1275  -12.2692    0.5335 C   0  0  0  0  0  0  0  0  0  0  0  0
    0.5939   -5.6388    2.6458 C   0  0  0  0  0  0  0  0  0  0  0  0
   -0.5656   -5.0427    2.3513 C   0  0  0  0  0  0  0  0  0  0  0  0
   -0.6696   -3.6511    2.4864 C   0  0  0  0  0  0  0  0  0  0  0  0
    1.6224   -4.9239    3.4379 C   0  0  0  0  0  0  0  0  0  0  0  0
    0.3859   -2.9082    3.0223 C   0  0  0  0  0  0  0  0  0  0  0  0
    1.4889   -3.5409    3.4719 C   0  0  0  0  0  0  0  0  0  0  0  0
  4  3  1  6
  4  5  1  0
  5  9  2  0
  9 10  1  0
  4 11  1  0
 10 11  1  0
  6 12  1  0
 12 13  2  0
 13 14  1  0
 14 16  2  0
 16 17  1  0
 15 17  2  0
 12 15  1  0
  1  2  2  0
  2  3  1  0
  3  8  2  0
  7  8  1  0
  6  7  2  0
  1  6  1  0
M  END

$$$$
No_2682-/export/home/yangzhenyu/potential_scad_32_flow//YTHDC2/2024-12-06-03-22-00/
     RDKit          3D

 19 19  0  0  1  0  0  0  0  0999 V2000
    1.1787   -8.0297    3.5154 O   0  0  0  0  0  0  0  0  0  0  0  0
    0.6747   -7.4019    2.7838 C   0  0  2  0  0  0  0  0  0  0  0  0
    0.7594   -8.0032    1.4295 C   0  0  0  0  0  0  0  0  0  0  0  0
    0.3459   -9.1500    1.3581 C   0  0  0  0  0  0  0  0  0  0  0  0
    1.1876  -10.0065    2.0240 C   0  0  0  0  0  0  0  0  0  0  0  0
    1.0116  -11.4692    2.0236 C   0  0  0  0  0  0  0  0  0  0  0  0
    1.8830  -12.3152    2.6151 C   0  0  0  0  0  0  0  0  0  0  0  0
    1.7683  -13.6705    2.3016 C   0  0  0  0  0  0  0  0  0  0  0  0
    0.8549  -14.1651    1.5683 C   0  0  0  0  0  0  0  0  0  0  0  0
    0.0360  -13.3755    0.8479 C   0  0  0  0  0  0  0  0  0  0  0  0
    0.1212  -11.9980    1.0043 C   0  0  0  0  0  0  0  0  0  0  0  0
    1.0489   -5.9666    2.8828 C   0  0  0  0  0  0  0  0  0  0  0  0
    0.9473   -7.1729    0.5010 O   0  0  0  0  0  0  0  0  0  0  0  0
    2.6346  -14.5386    3.0706 Cl  0  0  0  0  0  0  0  0  0  0  0  0
    0.3623   -5.1111    2.0851 C   0  0  0  0  0  0  0  0  0  0  0  0
    1.1404   -4.0773    1.4282 O   0  0  0  0  0  0  0  0  0  0  0  0
   -0.8771   -4.9611    1.7943 C   0  0  0  0  0  0  0  0  0  0  0  0
   -1.7326   -5.4527    2.5530 O   0  0  0  0  0  0  0  0  0  0  0  0
   -1.3268   -4.3244    0.6030 O   0  0  0  0  0  0  0  0  0  0  0  0
  2  1  1  1
  2  3  1  0
  3  4  1  0
  4  5  1  0
  5  6  1  0
  2 12  1  0
  3 13  2  0
  8 14  1  0
 12 15  1  0
 15 16  1  0
 15 17  1  0
 17 18  2  0
 17 19  1  0
  6  7  2  0
  7  8  1  0
  8  9  2  0
  9 10  1  0
 10 11  2  0
  6 11  1  0
M  END

$$$$
No_2683-/export/home/yangzhenyu/potential_scad_32_flow//YTHDC2/2024-12-06-03-22-00/
     RDKit          3D

 19 20  0  0  0  0  0  0  0  0999 V2000
    1.1787   -8.0297    3.5154 C   0  0  0  0  0  0  0  0  0  0  0  0
    1.1048   -9.2215    3.2892 C   0  0  0  0  0  0  0  0  0  0  0  0
    1.2339   -9.7611    2.0189 C   0  0  0  0  0  0  0  0  0  0  0  0
    1.3583   -9.0036    0.9764 C   0  0  0  0  0  0  0  0  0  0  0  0
    1.5996   -7.6362    1.1311 C   0  0  0  0  0  0  0  0  0  0  0  0
    1.4830   -7.0928    2.3626 C   0  0  0  0  0  0  0  0  0  0  0  0
    1.1171  -11.3311    1.8661 C   0  0  0  0  0  0  0  0  0  0  0  0
    1.9975  -12.1095    2.2478 C   0  0  0  0  0  0  0  0  0  0  0  0
    1.5366  -13.3685    2.6023 C   0  0  0  0  0  0  0  0  0  0  0  0
    0.4347  -13.9535    2.2152 C   0  0  0  0  0  0  0  0  0  0  0  0
   -0.5653  -13.0755    1.8340 C   0  0  0  0  0  0  0  0  0  0  0  0
   -0.1982  -11.7643    1.4990 C   0  0  0  0  0  0  0  0  0  0  0  0
    1.5698   -5.6644    2.6285 Br  0  0  0  0  0  0  0  0  0  0  0  0
    0.0972  -15.4086    2.6162 Cl  0  0  0  0  0  0  0  0  0  0  0  0
   -1.1900  -10.9360    0.8802 C   0  0  0  0  0  0  0  0  0  0  0  0
   -2.1334  -10.2610    1.5203 C   0  0  0  0  0  0  0  0  0  0  0  0
   -3.0636   -9.3591    0.8454 N   0  0  0  0  0  0  0  0  0  0  0  0
   -2.7136   -9.4322   -0.4751 C   0  0  0  0  0  0  0  0  0  0  0  0
   -1.8065   -9.8900   -1.1877 N   0  0  0  0  0  0  0  0  0  0  0  0
  3  7  1  0
  6 13  1  0
 10 14  1  0
 12 15  1  0
 15 16  2  3
 16 17  1  0
 17 18  2  3
 18 19  1  0
  1  2  2  0
  2  3  1  0
  3  4  2  0
  4  5  1  0
  5  6  2  0
  1  6  1  0
  7  8  2  0
  8  9  1  0
  9 10  2  0
 10 11  1  0
 11 12  2  0
  7 12  1  0
M  END

$$$$
No_2684-/export/home/yangzhenyu/potential_scad_32_flow//YTHDC2/2024-12-06-03-22-00/
     RDKit          3D

 12 12  0  0  0  0  0  0  0  0999 V2000
    1.1787   -8.0297    3.5154 C   0  0  0  0  0  0  0  0  0  0  0  0
    1.1048   -9.2215    3.2892 C   0  0  0  0  0  0  0  0  0  0  0  0
    1.2339   -9.7611    2.0189 C   0  0  0  0  0  0  0  0  0  0  0  0
    1.3583   -9.0036    0.9764 C   0  0  0  0  0  0  0  0  0  0  0  0
    1.5996   -7.6362    1.1311 C   0  0  0  0  0  0  0  0  0  0  0  0
    1.4830   -7.0928    2.3626 C   0  0  0  0  0  0  0  0  0  0  0  0
    1.4898   -5.7274    2.6199 C   0  0  0  0  0  0  0  0  0  0  0  0
    1.1681  -11.2222    1.8390 P   0  0  0  0  0  0  0  0  0  0  0  0
    1.3629  -11.6068    0.4649 O   0  0  0  0  0  0  0  0  0  0  0  0
    2.0242  -12.0089    2.8159 O   0  0  0  0  0  0  0  0  0  0  0  0
    1.6971   -5.1600    3.8732 O   0  0  0  0  0  0  0  0  0  0  0  0
    0.9759   -4.8415    1.7219 O   0  0  0  0  0  0  0  0  0  0  0  0
  6  7  1  0
  3  8  1  0
  8  9  2  0
  8 10  2  0
  7 11  1  0
  7 12  2  0
  1  2  2  0
  2  3  1  0
  3  4  2  0
  4  5  1  0
  5  6  2  0
  1  6  1  0
M  END

$$$$
No_2685-/export/home/yangzhenyu/potential_scad_32_flow//YTHDC2/2024-12-06-03-22-00/
     RDKit          3D

 19 20  0  0  0  0  0  0  0  0999 V2000
    1.1787   -8.0297    3.5154 C   0  0  0  0  0  0  0  0  0  0  0  0
    1.0491   -6.8434    2.9820 C   0  0  0  0  0  0  0  0  0  0  0  0
    0.9905   -9.0774    2.6527 C   0  0  0  0  0  0  0  0  0  0  0  0
    0.7897   -8.9519    1.3691 C   0  0  0  0  0  0  0  0  0  0  0  0
    0.7018   -7.7198    0.7892 C   0  0  0  0  0  0  0  0  0  0  0  0
    0.8918   -6.5957    1.6117 C   0  0  0  0  0  0  0  0  0  0  0  0
    1.0711  -10.4814    3.2282 C   0  0  0  0  0  0  0  0  0  0  0  0
    1.1227  -11.5770    2.4616 C   0  0  0  0  0  0  0  0  0  0  0  0
    1.1500  -12.9052    3.0782 C   0  0  0  0  0  0  0  0  0  0  0  0
    0.6702  -13.9897    2.4998 C   0  0  0  0  0  0  0  0  0  0  0  0
   -0.3775  -14.0361    1.8374 C   0  0  0  0  0  0  0  0  0  0  0  0
    1.5077  -15.2333    2.6455 C   0  0  0  0  0  0  0  0  0  0  0  0
    0.8409   -5.2759    1.1573 C   0  0  0  0  0  0  0  0  0  0  0  0
    1.0641  -16.4617    2.5242 C   0  0  0  0  0  0  0  0  0  0  0  0
   -0.1846  -16.4462    1.7694 C   0  0  0  0  0  0  0  0  0  0  0  0
   -0.8858  -15.3160    1.5178 C   0  0  0  0  0  0  0  0  0  0  0  0
    0.1420   -4.2637    1.9271 O   0  0  0  0  0  0  0  0  0  0  0  0
    0.8721   -3.1755    2.2824 C   0  0  0  0  0  0  0  0  0  0  0  0
    1.7018  -17.5922    2.7893 I   0  0  0  0  0  0  0  0  0  0  0  0
  3  7  1  0
  7  8  2  3
  8  9  1  0
  9 10  1  0
  6 13  1  0
 13 17  1  0
 17 18  1  0
 14 19  1  0
  1  2  2  0
  2  6  1  0
  5  6  2  0
  4  5  1  0
  3  4  2  0
  1  3  1  0
 10 11  2  0
 11 16  1  0
 15 16  2  0
 14 15  1  0
 12 14  2  0
 10 12  1  0
M  END

$$$$
No_2686-/export/home/yangzhenyu/potential_scad_32_flow//YTHDC2/2024-12-06-03-22-00/
     RDKit          3D

 18 19  0  0  1  0  0  0  0  0999 V2000
    1.1787   -8.0297    3.5154 C   0  0  0  0  0  0  0  0  0  0  0  0
    1.1048   -9.2215    3.2892 C   0  0  0  0  0  0  0  0  0  0  0  0
    1.3627  -10.1721    4.3044 C   0  0  0  0  0  0  0  0  0  0  0  0
    1.0682  -11.5187    4.0618 C   0  0  0  0  0  0  0  0  0  0  0  0
    0.6332  -11.9655    2.9682 C   0  0  0  0  0  0  0  0  0  0  0  0
    0.4776  -11.1308    1.9203 C   0  0  0  0  0  0  0  0  0  0  0  0
    0.7470   -9.8274    2.0368 C   0  0  0  0  0  0  0  0  0  0  0  0
    0.5536   -7.1314    2.6860 C   0  0  1  0  0  0  0  0  0  0  0  0
    0.7497   -5.5830    2.7889 Cl  0  0  0  0  0  0  0  0  0  0  0  0
    0.2305   -7.6024    1.2593 C   0  0  0  0  0  0  0  0  0  0  0  0
    0.2008   -8.9788    1.1293 C   0  0  0  0  0  0  0  0  0  0  0  0
   -0.1726   -6.8085    0.4187 O   0  0  0  0  0  0  0  0  0  0  0  0
    0.5094  -13.4001    2.7709 N   0  0  0  0  0  0  0  0  0  0  0  0
   -0.5093  -13.9467    2.3856 C   0  0  0  0  0  0  0  0  0  0  0  0
   -0.4831  -15.3486    2.2603 C   0  0  0  0  0  0  0  0  0  0  0  0
   -1.4221  -16.0975    2.1384 C   0  0  0  0  0  0  0  0  0  0  0  0
   -2.6873  -15.5562    1.8754 C   0  0  0  0  0  0  0  0  0  0  0  0
   -2.8293  -14.1926    1.8839 C   0  0  0  0  0  0  0  0  0  0  0  0
  1  2  1  0
  8  9  1  6
  8 10  1  0
  7 11  1  0
 10 11  1  0
 10 12  2  0
  5 13  1  0
 13 14  1  0
 14 15  1  0
 15 16  2  3
 16 17  1  0
 17 18  2  0
  1  8  1  0
  2  3  2  0
  3  4  1  0
  4  5  2  0
  5  6  1  0
  6  7  2  0
  2  7  1  0
M  END

$$$$
No_2687-/export/home/yangzhenyu/potential_scad_32_flow//YTHDC2/2024-12-06-03-22-00/
     RDKit          3D

 18 19  0  0  0  0  0  0  0  0999 V2000
    1.1787   -8.0297    3.5154 C   0  0  0  0  0  0  0  0  0  0  0  0
    1.0491   -6.8434    2.9820 C   0  0  0  0  0  0  0  0  0  0  0  0
    0.0950   -8.8404    3.2292 C   0  0  0  0  0  0  0  0  0  0  0  0
   -0.9173   -8.4596    2.5152 C   0  0  0  0  0  0  0  0  0  0  0  0
   -1.0331   -7.2162    2.0653 C   0  0  0  0  0  0  0  0  0  0  0  0
   -0.0105   -6.3168    2.3081 C   0  0  0  0  0  0  0  0  0  0  0  0
    0.1465  -10.2446    3.6981 C   0  0  0  0  0  0  0  0  0  0  0  0
    1.2433  -10.8239    4.0166 C   0  0  0  0  0  0  0  0  0  0  0  0
    1.0790  -12.2885    4.3779 C   0  0  0  0  0  0  0  0  0  0  0  0
    0.0275  -12.8546    3.8829 C   0  0  0  0  0  0  0  0  0  0  0  0
   -0.9912  -12.3424    3.4171 C   0  0  0  0  0  0  0  0  0  0  0  0
   -1.0024  -10.9675    3.2748 C   0  0  0  0  0  0  0  0  0  0  0  0
   -0.1252   -5.0186    1.8241 Cl  0  0  0  0  0  0  0  0  0  0  0  0
   -2.2286   -6.7189    1.4878 O   0  0  0  0  0  0  0  0  0  0  0  0
   -3.3486   -6.7620    2.1954 C   0  0  0  0  0  0  0  0  0  0  0  0
   -4.1216   -7.6125    2.0063 C   0  0  0  0  0  0  0  0  0  0  0  0
   -4.3218   -8.0310    0.7209 C   0  0  0  0  0  0  0  0  0  0  0  0
   -4.8849   -7.1794   -0.0928 C   0  0  0  0  0  0  0  0  0  0  0  0
  3  7  1  0
  6 13  1  0
  5 14  1  0
 14 15  1  0
 15 16  1  0
 16 17  1  0
 17 18  1  0
  1  2  2  0
  2  6  1  0
  5  6  2  0
  4  5  1  0
  3  4  2  0
  1  3  1  0
  7  8  2  0
  8  9  1  0
  9 10  2  0
 10 11  1  0
 11 12  2  0
  7 12  1  0
M  END

$$$$
No_2688-/export/home/yangzhenyu/potential_scad_32_flow//YTHDC2/2024-12-06-03-22-00/
     RDKit          3D

 21 23  0  0  0  0  0  0  0  0999 V2000
    1.1787   -8.0297    3.5154 C   0  0  0  0  0  0  0  0  0  0  0  0
    1.1048   -9.2215    3.2892 C   0  0  0  0  0  0  0  0  0  0  0  0
    1.2339   -9.7611    2.0189 C   0  0  0  0  0  0  0  0  0  0  0  0
    1.3583   -9.0036    0.9764 C   0  0  0  0  0  0  0  0  0  0  0  0
    1.5996   -7.6362    1.1311 C   0  0  0  0  0  0  0  0  0  0  0  0
    1.4830   -7.0928    2.3626 C   0  0  0  0  0  0  0  0  0  0  0  0
    1.1008  -11.2372    1.8542 C   0  0  0  0  0  0  0  0  0  0  0  0
    0.4812  -11.6084    0.6459 N   0  0  0  0  0  0  0  0  0  0  0  0
    1.6468  -12.0654    2.6210 C   0  0  0  0  0  0  0  0  0  0  0  0
    1.5933  -13.4554    2.1371 C   0  0  0  0  0  0  0  0  0  0  0  0
    2.0409  -14.5790    2.9292 C   0  0  0  0  0  0  0  0  0  0  0  0
    0.9195  -13.5092    0.8838 C   0  0  0  0  0  0  0  0  0  0  0  0
    0.9379  -14.9507    0.5176 N   0  0  0  0  0  0  0  0  0  0  0  0
    0.4822  -12.7434    0.1984 N   0  0  0  0  0  0  0  0  0  0  0  0
    1.8395  -15.8091    2.3763 C   0  0  0  0  0  0  0  0  0  0  0  0
    2.4278  -16.8803    3.0419 O   0  0  0  0  0  0  0  0  0  0  0  0
    1.4226  -15.9558    1.1233 N   0  0  0  0  0  0  0  0  0  0  0  0
    1.5381   -5.6322    2.6529 Cl  0  0  0  0  0  0  0  0  0  0  0  0
    1.5277   -9.4039   -0.3764 O   0  0  0  0  0  0  0  0  0  0  0  0
    2.2042  -11.8527    3.9398 O   0  0  0  0  0  0  0  0  0  0  0  0
    2.4099   -8.8072   -1.2766 C   0  0  0  0  0  0  0  0  0  0  0  0
  3  7  1  0
 10 11  1  0
 11 15  1  0
 15 16  2  0
 13 17  1  0
 15 17  1  0
  6 18  1  0
  4 19  1  0
  9 20  1  0
 19 21  1  0
 12 13  1  0
  1  2  2  0
  2  3  1  0
  3  4  2  0
  4  5  1  0
  5  6  2  0
  1  6  1  0
  7  8  2  0
  8 14  1  0
 12 14  2  0
 10 12  1  0
  9 10  2  0
  7  9  1  0
M  END

$$$$
No_2689-/export/home/yangzhenyu/potential_scad_32_flow//YTHDC2/2024-12-06-03-22-00/
     RDKit          3D

 19 20  0  0  0  0  0  0  0  0999 V2000
    1.1787   -8.0297    3.5154 C   0  0  0  0  0  0  0  0  0  0  0  0
    1.0491   -6.8434    2.9820 C   0  0  0  0  0  0  0  0  0  0  0  0
    0.9905   -9.0774    2.6527 C   0  0  0  0  0  0  0  0  0  0  0  0
    0.7897   -8.9519    1.3691 C   0  0  0  0  0  0  0  0  0  0  0  0
    0.7018   -7.7198    0.7892 C   0  0  0  0  0  0  0  0  0  0  0  0
    0.8918   -6.5957    1.6117 C   0  0  0  0  0  0  0  0  0  0  0  0
    1.0600  -10.5680    3.3321 C   0  0  0  0  0  0  0  0  0  0  0  0
    1.1634  -11.6086    2.5010 C   0  0  0  0  0  0  0  0  0  0  0  0
    0.9536  -12.6132    2.7378 C   0  0  0  0  0  0  0  0  0  0  0  0
    1.0197  -13.8517    1.8429 C   0  0  0  0  0  0  0  0  0  0  0  0
    1.4758  -13.6269    0.6063 C   0  0  0  0  0  0  0  0  0  0  0  0
    1.7942  -12.3322    0.2855 C   0  0  0  0  0  0  0  0  0  0  0  0
    1.6121  -11.2567    1.1295 C   0  0  0  0  0  0  0  0  0  0  0  0
    0.9660  -10.6146    4.6090 N   0  0  0  0  0  0  0  0  0  0  0  0
    0.8137   -5.2385    1.1723 O   0  0  0  0  0  0  0  0  0  0  0  0
    0.7660  -15.1938    2.2944 C   0  0  0  0  0  0  0  0  0  0  0  0
   -0.4304  -15.6340    2.3884 C   0  0  0  0  0  0  0  0  0  0  0  0
   -0.7986  -16.7065    3.2339 C   0  0  0  0  0  0  0  0  0  0  0  0
    0.9857  -11.5054    5.0847 H   0  0  0  0  0  0  0  0  0  0  0  0
  1  2  1  0
  3  4  1  0
  2  6  1  0
  5  6  1  0
  3  7  1  0
  7  8  1  0
  7 14  2  0
  6 15  2  0
 10 16  1  0
 16 17  1  0
 17 18  2  0
  1  3  1  0
  4  5  1  0
  8  9  2  0
  9 10  1  0
 10 11  2  0
 11 12  1  0
 12 13  2  0
  8 13  1  0
 14 19  1  0
M  END

$$$$
No_2690-/export/home/yangzhenyu/potential_scad_32_flow//YTHDC2/2024-12-06-03-22-00/
     RDKit          3D

 18 19  0  0  0  0  0  0  0  0999 V2000
    1.1787   -8.0297    3.5154 C   0  0  0  0  0  0  0  0  0  0  0  0
    1.1048   -9.2215    3.2892 C   0  0  0  0  0  0  0  0  0  0  0  0
    1.2339   -9.7611    2.0189 C   0  0  0  0  0  0  0  0  0  0  0  0
    1.3583   -9.0036    0.9764 C   0  0  0  0  0  0  0  0  0  0  0  0
    1.5996   -7.6362    1.1311 C   0  0  0  0  0  0  0  0  0  0  0  0
    1.4830   -7.0928    2.3626 C   0  0  0  0  0  0  0  0  0  0  0  0
    1.1008  -11.2372    1.8542 C   0  0  0  0  0  0  0  0  0  0  0  0
    0.5178  -11.9759    2.3445 C   0  0  0  0  0  0  0  0  0  0  0  0
    0.4575  -13.3705    2.1281 C   0  0  0  0  0  0  0  0  0  0  0  0
    1.1632  -14.1013    2.0451 C   0  0  0  0  0  0  0  0  0  0  0  0
    2.4646  -13.5566    1.4445 C   0  0  0  0  0  0  0  0  0  0  0  0
    1.2467  -15.5603    2.2927 C   0  0  0  0  0  0  0  0  0  0  0  0
    2.3867  -16.3046    2.2488 C   0  0  0  0  0  0  0  0  0  0  0  0
    2.3101  -17.6914    2.5439 C   0  0  0  0  0  0  0  0  0  0  0  0
    1.2794  -18.1949    3.1267 C   0  0  0  0  0  0  0  0  0  0  0  0
    0.0986  -17.4625    3.2850 C   0  0  0  0  0  0  0  0  0  0  0  0
    0.1074  -16.1199    2.9278 C   0  0  0  0  0  0  0  0  0  0  0  0
    1.5545   -5.6564    2.6299 C   0  0  0  0  0  0  0  0  0  0  0  0
  3  7  1  0
  7  8  2  3
  8  9  1  0
  9 10  2  3
 10 11  1  0
 10 12  1  0
  6 18  1  0
 12 13  2  0
 13 14  1  0
 14 15  2  0
 15 16  1  0
 16 17  2  0
 12 17  1  0
  1  2  2  0
  2  3  1  0
  3  4  2  0
  4  5  1  0
  5  6  2  0
  1  6  1  0
M  END

$$$$
No_2691-/export/home/yangzhenyu/potential_scad_32_flow//YTHDC2/2024-12-06-03-22-00/
     RDKit          3D

 20 21  0  0  1  0  0  0  0  0999 V2000
    1.1787   -8.0297    3.5154 N   0  0  0  0  0  0  0  0  0  0  0  0
    1.0818   -9.0751    3.2053 C   0  0  0  0  0  0  0  0  0  0  0  0
    1.5216  -10.1164    3.9747 C   0  0  0  0  0  0  0  0  0  0  0  0
    1.4420  -11.4363    3.6461 C   0  0  0  0  0  0  0  0  0  0  0  0
    0.5969  -11.7648    2.6785 C   0  0  0  0  0  0  0  0  0  0  0  0
    0.0096  -10.8332    1.9506 C   0  0  0  0  0  0  0  0  0  0  0  0
    0.3359   -9.5186    2.1388 C   0  0  0  0  0  0  0  0  0  0  0  0
    0.8819   -6.9011    2.6487 C   0  0  0  0  0  0  0  0  0  0  0  0
    0.4076   -7.2265    1.4607 C   0  0  0  0  0  0  0  0  0  0  0  0
    0.0604   -8.4780    1.1746 C   0  0  0  0  0  0  0  0  0  0  0  0
   -0.5471   -8.7214    0.0063 C   0  0  0  0  0  0  0  0  0  0  0  0
   -0.0340   -8.7786   -1.1822 O   0  0  0  0  0  0  0  0  0  0  0  0
   -1.8112   -9.3294    0.0245 N   0  0  0  0  0  0  0  0  0  0  0  0
    0.3383  -13.1856    2.4731 C   0  0  1  0  0  0  0  0  0  0  0  0
   -0.9096  -13.6010    2.2250 N   0  0  0  0  0  0  0  0  0  0  0  0
    1.3816  -14.1111    2.4569 C   0  0  0  0  0  0  0  0  0  0  0  0
    2.5945  -14.0264    2.5119 C   0  0  0  0  0  0  0  0  0  0  0  0
    0.7511  -15.5063    2.6679 C   0  0  0  0  0  0  0  0  0  0  0  0
   -0.4671  -15.7661    2.5618 N   0  0  0  0  0  0  0  0  0  0  0  0
   -1.1204  -15.0344    2.3212 H   0  0  0  0  0  0  0  0  0  0  0  0
 10 11  1  0
 11 12  2  0
 11 13  1  0
  5 14  1  0
 14 15  1  6
 14 16  1  0
 16 17  2  0
 16 18  1  0
 18 19  2  0
  2  3  1  0
  3  4  2  0
  4  5  1  0
  5  6  2  0
  6  7  1  0
  1  2  2  0
  2  7  1  0
  7 10  2  0
  9 10  1  0
  8  9  2  0
  1  8  1  0
 19 20  1  0
M  END

$$$$
No_2692-/export/home/yangzhenyu/potential_scad_32_flow//YTHDC2/2024-12-06-03-22-00/
     RDKit          3D

 19 20  0  0  0  0  0  0  0  0999 V2000
    1.1787   -8.0297    3.5154 O   0  0  0  0  0  0  0  0  0  0  0  0
    0.9969   -8.9689    3.0048 C   0  0  0  0  0  0  0  0  0  0  0  0
    1.3055  -10.1056    3.6616 C   0  0  0  0  0  0  0  0  0  0  0  0
    1.5709  -11.1115    3.2016 C   0  0  0  0  0  0  0  0  0  0  0  0
    1.6332  -11.2629    1.7349 C   0  0  0  0  0  0  0  0  0  0  0  0
    1.4616  -10.1742    0.9691 C   0  0  0  0  0  0  0  0  0  0  0  0
    1.1252   -9.0006    1.6051 C   0  0  0  0  0  0  0  0  0  0  0  0
    0.8275   -7.7749    1.0285 C   0  0  0  0  0  0  0  0  0  0  0  0
    1.3414   -6.7053    1.3717 O   0  0  0  0  0  0  0  0  0  0  0  0
   -0.0358   -7.6937    0.0328 O   0  0  0  0  0  0  0  0  0  0  0  0
    1.8958  -12.4221    3.8115 C   0  0  0  0  0  0  0  0  0  0  0  0
    1.9401  -13.3911    3.2214 N   0  0  0  0  0  0  0  0  0  0  0  0
    1.7881  -13.6495    2.1081 C   0  0  0  0  0  0  0  0  0  0  0  0
    1.7494  -12.5576    1.0912 C   0  0  0  0  0  0  0  0  0  0  0  0
    2.0561  -14.9710    1.4663 C   0  0  0  0  0  0  0  0  0  0  0  0
    1.2709  -15.9721    1.9751 C   0  0  0  0  0  0  0  0  0  0  0  0
   -0.0024  -15.8976    1.9566 C   0  0  0  0  0  0  0  0  0  0  0  0
   -0.6473  -16.0605    3.1874 C   0  0  0  0  0  0  0  0  0  0  0  0
   -1.9891  -16.0915    3.3431 C   0  0  0  0  0  0  0  0  0  0  0  0
  1  2  1  0
  7  8  1  0
  8  9  1  0
  8 10  2  0
 13 15  1  0
 15 16  1  0
 16 17  1  0
 17 18  1  0
 18 19  2  0
  5 14  2  0
 13 14  1  0
 12 13  2  0
 11 12  1  0
  4 11  2  0
  2  3  2  0
  3  4  1  0
  4  5  1  0
  5  6  1  0
  6  7  2  0
  2  7  1  0
M  END

$$$$
No_2693-/export/home/yangzhenyu/potential_scad_32_flow//YTHDC2/2024-12-06-03-22-00/
     RDKit          3D

 18 19  0  0  0  0  0  0  0  0999 V2000
    1.1787   -8.0297    3.5154 C   0  0  0  0  0  0  0  0  0  0  0  0
    1.0491   -6.8434    2.9820 C   0  0  0  0  0  0  0  0  0  0  0  0
    0.0950   -8.8404    3.2292 C   0  0  0  0  0  0  0  0  0  0  0  0
    0.0602  -10.1764    3.8231 C   0  0  0  0  0  0  0  0  0  0  0  0
    0.2248   -6.3830    2.0648 C   0  0  0  0  0  0  0  0  0  0  0  0
   -0.6745   -7.2322    1.6857 C   0  0  0  0  0  0  0  0  0  0  0  0
   -0.7374   -8.4992    2.1291 C   0  0  0  0  0  0  0  0  0  0  0  0
   -0.1792  -11.3045    3.0702 Cl  0  0  0  0  0  0  0  0  0  0  0  0
    0.4447   -5.0186    1.3904 Cl  0  0  0  0  0  0  0  0  0  0  0  0
   -1.6422   -6.9248    0.7872 C   0  0  0  0  0  0  0  0  0  0  0  0
   -1.4949   -7.4485   -0.4613 C   0  0  0  0  0  0  0  0  0  0  0  0
   -0.5633   -8.3121   -0.8586 C   0  0  0  0  0  0  0  0  0  0  0  0
   -0.5870   -8.8937   -2.1243 C   0  0  0  0  0  0  0  0  0  0  0  0
   -1.5006   -8.6024   -3.0507 C   0  0  0  0  0  0  0  0  0  0  0  0
   -2.4441   -7.6902   -2.7538 C   0  0  0  0  0  0  0  0  0  0  0  0
   -2.4701   -7.0773   -1.4529 C   0  0  0  0  0  0  0  0  0  0  0  0
   -1.4639   -9.1510   -4.3184 O   0  0  0  0  0  0  0  0  0  0  0  0
   -1.1824   -8.3724   -5.4299 C   0  0  0  0  0  0  0  0  0  0  0  0
  3  4  1  0
  4  8  1  0
  5  9  1  0
  6 10  1  0
 10 11  1  0
 14 17  1  0
 17 18  1  0
 11 12  2  0
 12 13  1  0
 13 14  2  0
 14 15  1  0
 15 16  2  0
 11 16  1  0
  1  2  2  0
  2  5  1  0
  5  6  2  0
  6  7  1  0
  3  7  2  0
  1  3  1  0
M  END

$$$$
No_2694-/export/home/yangzhenyu/potential_scad_32_flow//YTHDC2/2024-12-06-03-22-00/
     RDKit          3D

 18 19  0  0  0  0  0  0  0  0999 V2000
    1.1787   -8.0297    3.5154 O   0  0  0  0  0  0  0  0  0  0  0  0
    0.6747   -7.4019    2.7838 C   0  0  0  0  0  0  0  0  0  0  0  0
    0.7594   -8.0032    1.4295 C   0  0  0  0  0  0  0  0  0  0  0  0
    0.3459   -9.1500    1.3581 C   0  0  0  0  0  0  0  0  0  0  0  0
   -0.4155   -9.6726    2.0241 C   0  0  0  0  0  0  0  0  0  0  0  0
   -0.6245  -11.1539    1.8966 C   0  0  0  0  0  0  0  0  0  0  0  0
    0.1125  -11.8282    0.9857 C   0  0  0  0  0  0  0  0  0  0  0  0
    1.0108  -11.2152    0.1796 C   0  0  0  0  0  0  0  0  0  0  0  0
    1.3330   -9.9204    0.3294 C   0  0  0  0  0  0  0  0  0  0  0  0
    1.3282   -5.9590    2.8514 O   0  0  0  0  0  0  0  0  0  0  0  0
    2.1136   -9.3115   -0.6179 O   0  0  0  0  0  0  0  0  0  0  0  0
   -1.7240  -11.9406    2.8876 C   0  0  0  0  0  0  0  0  0  0  0  0
   -2.7785  -12.5032    2.1994 C   0  0  0  0  0  0  0  0  0  0  0  0
   -3.6795  -11.6613    1.7955 C   0  0  0  0  0  0  0  0  0  0  0  0
   -3.8597  -11.4060    0.5513 C   0  0  0  0  0  0  0  0  0  0  0  0
   -3.6205  -12.3053   -0.3944 N   0  0  0  0  0  0  0  0  0  0  0  0
   -2.8148  -13.4602    0.0572 C   0  0  0  0  0  0  0  0  0  0  0  0
   -2.3508  -13.5608    1.3338 C   0  0  0  0  0  0  0  0  0  0  0  0
  1  2  1  0
  2  3  1  0
  3  4  1  0
  2 10  2  0
  9 11  1  0
  6 12  1  0
 12 13  1  0
 13 14  1  0
 14 15  1  0
 15 16  1  0
 16 17  1  0
 13 18  1  0
 17 18  1  0
  4  5  2  0
  5  6  1  0
  6  7  2  0
  7  8  1  0
  8  9  2  0
  4  9  1  0
M  END

$$$$
No_2695-/export/home/yangzhenyu/potential_scad_32_flow//YTHDC2/2024-12-06-03-22-00/
     RDKit          3D

 19 20  0  0  1  0  0  0  0  0999 V2000
    1.1787   -8.0297    3.5154 C   0  0  0  0  0  0  0  0  0  0  0  0
    1.0491   -6.8434    2.9820 C   0  0  0  0  0  0  0  0  0  0  0  0
    0.0950   -8.8404    3.2292 C   0  0  0  0  0  0  0  0  0  0  0  0
   -0.9173   -8.4596    2.5152 C   0  0  0  0  0  0  0  0  0  0  0  0
   -1.0331   -7.2162    2.0653 C   0  0  0  0  0  0  0  0  0  0  0  0
   -0.0105   -6.3168    2.3081 C   0  0  0  0  0  0  0  0  0  0  0  0
    0.1465  -10.2446    3.6981 C   0  0  0  0  0  0  0  0  0  0  0  0
   -1.0337  -10.8619    3.9439 N   0  0  0  0  0  0  0  0  0  0  0  0
    1.3202  -10.8253    4.2576 N   0  0  0  0  0  0  0  0  0  0  0  0
    0.0153   -4.8229    1.7552 Cl  0  0  0  0  0  0  0  0  0  0  0  0
    1.9000  -11.7612    3.6726 C   0  0  0  0  0  0  0  0  0  0  0  0
    1.4385  -12.2153    2.4434 C   0  0  2  0  0  0  0  0  0  0  0  0
    1.4287  -11.3140    1.3825 C   0  0  0  0  0  0  0  0  0  0  0  0
    0.6847  -11.6962    0.2634 C   0  0  0  0  0  0  0  0  0  0  0  0
    0.1569  -12.9100    0.3217 C   0  0  0  0  0  0  0  0  0  0  0  0
    0.2289  -13.7434    1.3246 C   0  0  0  0  0  0  0  0  0  0  0  0
    0.9327  -13.4491    2.4372 C   0  0  0  0  0  0  0  0  0  0  0  0
    0.8763  -14.2833    3.5353 O   0  0  0  0  0  0  0  0  0  0  0  0
   -1.9011  -10.4158    3.6818 H   0  0  0  0  0  0  0  0  0  0  0  0
  3  7  1  0
  7  8  2  0
  7  9  1  0
  6 10  1  0
  9 11  2  3
 11 12  1  0
 12 13  1  1
 14 15  1  0
 12 17  1  0
 16 17  1  0
 17 18  2  0
 13 14  1  0
 15 16  1  0
  1  2  2  0
  2  6  1  0
  5  6  2  0
  4  5  1  0
  3  4  2  0
  1  3  1  0
  8 19  1  0
M  END

$$$$
No_2696-/export/home/yangzhenyu/potential_scad_32_flow//YTHDC2/2024-12-06-03-22-00/
     RDKit          3D

 18 19  0  0  0  0  0  0  0  0999 V2000
    1.1787   -8.0297    3.5154 C   0  0  0  0  0  0  0  0  0  0  0  0
    1.1048   -9.2215    3.2892 C   0  0  0  0  0  0  0  0  0  0  0  0
    1.2339   -9.7611    2.0189 C   0  0  0  0  0  0  0  0  0  0  0  0
    1.3583   -9.0036    0.9764 C   0  0  0  0  0  0  0  0  0  0  0  0
    1.5996   -7.6362    1.1311 C   0  0  0  0  0  0  0  0  0  0  0  0
    1.4830   -7.0928    2.3626 C   0  0  0  0  0  0  0  0  0  0  0  0
    1.5395   -5.7300    2.6182 C   0  0  0  0  0  0  0  0  0  0  0  0
    1.1775  -11.2233    1.8407 C   0  0  0  0  0  0  0  0  0  0  0  0
    0.7252  -11.5870    0.5413 C   0  0  0  0  0  0  0  0  0  0  0  0
   -0.5181  -12.2492    0.6137 C   0  0  0  0  0  0  0  0  0  0  0  0
   -1.4841  -11.7416   -0.0226 C   0  0  0  0  0  0  0  0  0  0  0  0
   -2.6910  -12.2584   -0.0955 C   0  0  0  0  0  0  0  0  0  0  0  0
   -2.8948  -13.4446    0.6116 C   0  0  0  0  0  0  0  0  0  0  0  0
   -1.9057  -14.0045    1.3372 C   0  0  0  0  0  0  0  0  0  0  0  0
   -0.6120  -13.4386    1.3252 C   0  0  0  0  0  0  0  0  0  0  0  0
    0.4542  -14.0314    1.9613 C   0  0  0  0  0  0  0  0  0  0  0  0
    0.5778  -14.8661    2.7099 C   0  0  0  0  0  0  0  0  0  0  0  0
    1.7489  -15.4916    3.3198 C   0  0  0  0  0  0  0  0  0  0  0  0
  6  7  1  0
  3  8  1  0
  8  9  1  0
  9 10  1  0
 15 16  1  0
 16 17  2  3
 17 18  1  0
  1  2  2  0
  2  3  1  0
  3  4  2  0
  4  5  1  0
  5  6  2  0
  1  6  1  0
 10 11  2  0
 11 12  1  0
 12 13  2  0
 13 14  1  0
 14 15  2  0
 10 15  1  0
M  END

$$$$
No_2697-/export/home/yangzhenyu/potential_scad_32_flow//YTHDC2/2024-12-06-03-22-00/
     RDKit          3D

 18 18  0  0  0  0  0  0  0  0999 V2000
    1.1787   -8.0297    3.5154 C   0  0  0  0  0  0  0  0  0  0  0  0
    1.1048   -9.2215    3.2892 C   0  0  0  0  0  0  0  0  0  0  0  0
    1.3627  -10.1721    4.3044 C   0  0  0  0  0  0  0  0  0  0  0  0
    1.0682  -11.5187    4.0618 C   0  0  0  0  0  0  0  0  0  0  0  0
    0.6332  -11.9655    2.9682 C   0  0  0  0  0  0  0  0  0  0  0  0
    0.4776  -11.1308    1.9203 C   0  0  0  0  0  0  0  0  0  0  0  0
    0.7470   -9.8274    2.0368 C   0  0  0  0  0  0  0  0  0  0  0  0
    1.8805   -7.1616    3.5538 C   0  0  0  0  0  0  0  0  0  0  0  0
    0.3661  -13.4265    2.7867 C   0  0  0  0  0  0  0  0  0  0  0  0
    0.9243  -14.0434    1.7809 C   0  0  0  0  0  0  0  0  0  0  0  0
    1.6722  -15.1578    1.9486 C   0  0  0  0  0  0  0  0  0  0  0  0
    1.0153  -16.3313    2.4011 C   0  0  0  0  0  0  0  0  0  0  0  0
    1.8778  -17.5653    2.6192 N   0  0  0  0  0  0  0  0  0  0  0  0
    3.3100  -17.3918    2.4676 C   0  0  0  0  0  0  0  0  0  0  0  0
    0.7866   -8.9944    0.9668 C   0  0  0  0  0  0  0  0  0  0  0  0
    1.9803   -8.7017    0.2022 C   0  0  0  0  0  0  0  0  0  0  0  0
    2.3522   -9.0124   -1.0164 O   0  0  0  0  0  0  0  0  0  0  0  0
    1.4633  -18.7965    2.1073 C   0  0  0  0  0  0  0  0  0  0  0  0
  1  2  1  0
  1  8  2  0
  5  9  1  0
  9 10  1  0
 10 11  1  0
 11 12  1  0
 12 13  1  0
 13 14  1  0
  7 15  1  0
 15 16  1  0
 16 17  1  0
 13 18  1  0
  2  3  2  0
  3  4  1  0
  4  5  2  0
  5  6  1  0
  6  7  2  0
  2  7  1  0
M  END

$$$$
No_2698-/export/home/yangzhenyu/potential_scad_32_flow//YTHDC2/2024-12-06-03-22-00/
     RDKit          3D

 17 17  0  0  1  0  0  0  0  0999 V2000
    1.1787   -8.0297    3.5154 C   0  0  0  0  0  0  0  0  0  0  0  0
    1.0491   -6.8434    2.9820 C   0  0  0  0  0  0  0  0  0  0  0  0
    0.9905   -9.0774    2.6527 C   0  0  0  0  0  0  0  0  0  0  0  0
    0.7897   -8.9519    1.3691 C   0  0  0  0  0  0  0  0  0  0  0  0
    0.7018   -7.7198    0.7892 C   0  0  0  0  0  0  0  0  0  0  0  0
    0.8918   -6.5957    1.6117 C   0  0  0  0  0  0  0  0  0  0  0  0
    1.0998  -10.4710    3.2437 C   0  0  1  0  0  0  0  0  0  0  0  0
    2.1917  -10.8879    3.7399 C   0  0  0  0  0  0  0  0  0  0  0  0
    0.8624   -5.2493    1.2482 O   0  0  0  0  0  0  0  0  0  0  0  0
   -0.0197  -11.2254    3.3616 C   0  0  0  0  0  0  0  0  0  0  0  0
   -0.0771  -12.5027    3.1731 C   0  0  0  0  0  0  0  0  0  0  0  0
   -0.0386  -13.1260    2.1785 C   0  0  0  0  0  0  0  0  0  0  0  0
    0.3563  -14.4890    2.0436 C   0  0  0  0  0  0  0  0  0  0  0  0
    1.0824  -15.1064    2.3840 C   0  0  2  0  0  0  0  0  0  0  0  0
    2.5459  -14.6248    2.6346 C   0  0  0  0  0  0  0  0  0  0  0  0
    1.2955  -16.5804    2.0356 C   0  0  0  0  0  0  0  0  0  0  0  0
    2.4949  -17.1658    2.2970 O   0  0  0  0  0  0  0  0  0  0  0  0
  1  2  1  0
  3  4  1  0
  2  6  1  0
  5  6  1  0
  3  7  1  0
  7  8  1  1
  6  9  2  0
  7 10  1  0
 10 11  2  3
 11 12  1  0
 12 13  2  3
 13 14  1  0
 14 15  1  6
 14 16  1  0
 16 17  1  0
  1  3  1  0
  4  5  1  0
M  END

$$$$
No_2699-/export/home/yangzhenyu/potential_scad_32_flow//YTHDC2/2024-12-06-03-22-00/
     RDKit          3D

 20 21  0  0  0  0  0  0  0  0999 V2000
    1.1787   -8.0297    3.5154 C   0  0  0  0  0  0  0  0  0  0  0  0
    1.1048   -9.2215    3.2892 C   0  0  0  0  0  0  0  0  0  0  0  0
    1.2339   -9.7611    2.0189 C   0  0  0  0  0  0  0  0  0  0  0  0
    1.3583   -9.0036    0.9764 C   0  0  0  0  0  0  0  0  0  0  0  0
    1.5996   -7.6362    1.1311 C   0  0  0  0  0  0  0  0  0  0  0  0
    1.4830   -7.0928    2.3626 C   0  0  0  0  0  0  0  0  0  0  0  0
    1.1008  -11.2372    1.8542 C   0  0  0  0  0  0  0  0  0  0  0  0
    0.4812  -11.6084    0.6459 C   0  0  0  0  0  0  0  0  0  0  0  0
    0.5134  -13.0269    0.4830 C   0  0  0  0  0  0  0  0  0  0  0  0
    1.2057  -13.8685    1.2734 C   0  0  0  0  0  0  0  0  0  0  0  0
    1.9819  -13.3990    2.3594 C   0  0  0  0  0  0  0  0  0  0  0  0
    1.8610  -12.0988    2.6716 C   0  0  0  0  0  0  0  0  0  0  0  0
    2.4163  -11.5839    3.7861 N   0  0  0  0  0  0  0  0  0  0  0  0
    1.5506   -5.6582    2.6458 Cl  0  0  0  0  0  0  0  0  0  0  0  0
    1.5474   -9.4621   -0.3400 O   0  0  0  0  0  0  0  0  0  0  0  0
    1.2755  -15.2128    0.8991 O   0  0  0  0  0  0  0  0  0  0  0  0
    0.7216  -16.1142    1.7685 C   0  0  0  0  0  0  0  0  0  0  0  0
    1.5653  -16.9190    2.3934 C   0  0  0  0  0  0  0  0  0  0  0  0
    1.2601  -17.6520    3.4872 C   0  0  0  0  0  0  0  0  0  0  0  0
    0.1738  -17.5131    4.1008 C   0  0  0  0  0  0  0  0  0  0  0  0
  3  7  1  0
  6 14  1  0
  4 15  1  0
 10 16  1  0
 16 17  1  0
 17 18  1  0
 18 19  2  3
 19 20  1  0
 12 13  1  0
  1  2  2  0
  2  3  1  0
  3  4  2  0
  4  5  1  0
  5  6  2  0
  1  6  1  0
  7  8  2  0
  8  9  1  0
  9 10  2  0
 10 11  1  0
 11 12  2  0
  7 12  1  0
M  END

$$$$
No_2700-/export/home/yangzhenyu/potential_scad_32_flow//YTHDC2/2024-12-06-03-22-00/
     RDKit          3D

 18 20  0  0  0  0  0  0  0  0999 V2000
    1.1787   -8.0297    3.5154 C   0  0  0  0  0  0  0  0  0  0  0  0
    1.0491   -6.8434    2.9820 C   0  0  0  0  0  0  0  0  0  0  0  0
    0.0950   -8.8404    3.2292 C   0  0  0  0  0  0  0  0  0  0  0  0
   -0.9173   -8.4596    2.5152 C   0  0  0  0  0  0  0  0  0  0  0  0
   -1.0331   -7.2162    2.0653 C   0  0  0  0  0  0  0  0  0  0  0  0
   -0.0105   -6.3168    2.3081 C   0  0  0  0  0  0  0  0  0  0  0  0
    0.0485   -4.9783    1.8782 Cl  0  0  0  0  0  0  0  0  0  0  0  0
    0.1602  -10.4490    3.7352 Cl  0  0  0  0  0  0  0  0  0  0  0  0
   -2.2201   -6.7887    1.5068 C   0  0  0  0  0  0  0  0  0  0  0  0
   -2.8303   -5.9837    1.8429 C   0  0  0  0  0  0  0  0  0  0  0  0
   -4.1047   -5.4395    1.2496 C   0  0  0  0  0  0  0  0  0  0  0  0
   -4.4642   -5.9592    0.1120 N   0  0  0  0  0  0  0  0  0  0  0  0
   -3.8085   -6.9090   -0.4012 C   0  0  0  0  0  0  0  0  0  0  0  0
   -2.5980   -7.4305    0.1876 C   0  0  0  0  0  0  0  0  0  0  0  0
   -4.1896   -7.6158   -1.5208 C   0  0  0  0  0  0  0  0  0  0  0  0
   -3.9319   -8.9035   -1.6726 C   0  0  0  0  0  0  0  0  0  0  0  0
   -2.6968   -9.4289   -1.0109 C   0  0  0  0  0  0  0  0  0  0  0  0
   -2.0556   -8.6747   -0.0431 C   0  0  0  0  0  0  0  0  0  0  0  0
  6  7  1  0
  3  8  1  0
  5  9  1  0
  1  2  2  0
  2  6  1  0
  5  6  2  0
  4  5  1  0
  3  4  2  0
  1  3  1  0
 14 18  2  0
 17 18  1  0
 16 17  2  0
 15 16  1  0
 13 15  2  0
  9 10  2  0
 10 11  1  0
 11 12  2  0
 12 13  1  0
 13 14  1  0
  9 14  1  0
M  END

$$$$
No_2701-/export/home/yangzhenyu/potential_scad_32_flow//YTHDC2/2024-12-06-03-22-00/
     RDKit          3D

 18 20  0  0  0  0  0  0  0  0999 V2000
    1.1787   -8.0297    3.5154 C   0  0  0  0  0  0  0  0  0  0  0  0
    1.1048   -9.2215    3.2892 C   0  0  0  0  0  0  0  0  0  0  0  0
    1.3627  -10.1721    4.3044 C   0  0  0  0  0  0  0  0  0  0  0  0
    1.7354  -11.4730    3.9023 C   0  0  0  0  0  0  0  0  0  0  0  0
    1.8080  -11.8127    2.7216 C   0  0  0  0  0  0  0  0  0  0  0  0
    1.5854  -11.0021    1.7249 C   0  0  0  0  0  0  0  0  0  0  0  0
    1.3573   -9.7389    1.9287 C   0  0  0  0  0  0  0  0  0  0  0  0
    1.2865   -8.8078    0.9161 C   0  0  0  0  0  0  0  0  0  0  0  0
    0.9210   -7.5140    1.1674 N   0  0  0  0  0  0  0  0  0  0  0  0
    1.1469   -6.9662    2.3428 C   0  0  0  0  0  0  0  0  0  0  0  0
    2.0165  -13.2523    2.4189 O   0  0  0  0  0  0  0  0  0  0  0  0
    1.4743   -9.1756   -0.3974 N   0  0  0  0  0  0  0  0  0  0  0  0
    0.8668   -5.5983    2.6152 C   0  0  0  0  0  0  0  0  0  0  0  0
   -0.1893   -4.9438    2.0447 C   0  0  0  0  0  0  0  0  0  0  0  0
   -0.0323   -3.6903    1.4684 C   0  0  0  0  0  0  0  0  0  0  0  0
    1.2120   -2.9738    1.7378 C   0  0  0  0  0  0  0  0  0  0  0  0
    2.2907   -3.6338    2.2721 C   0  0  0  0  0  0  0  0  0  0  0  0
    2.1469   -4.9140    2.7480 C   0  0  0  0  0  0  0  0  0  0  0  0
  5 11  1  0
  8 12  1  0
 10 13  1  0
  1  2  2  0
  7  8  2  0
  8  9  1  0
  9 10  2  0
  1 10  1  0
  2  3  1  0
  3  4  2  0
  4  5  1  0
  5  6  2  0
  6  7  1  0
  2  7  1  0
 13 14  2  0
 14 15  1  0
 15 16  2  0
 16 17  1  0
 17 18  2  0
 13 18  1  0
M  END

$$$$
No_2702-/export/home/yangzhenyu/potential_scad_32_flow//YTHDC2/2024-12-06-03-22-00/
     RDKit          3D

 18 19  0  0  0  0  0  0  0  0999 V2000
    1.1787   -8.0297    3.5154 C   0  0  0  0  0  0  0  0  0  0  0  0
    1.1048   -9.2215    3.2892 C   0  0  0  0  0  0  0  0  0  0  0  0
    1.2339   -9.7611    2.0189 C   0  0  0  0  0  0  0  0  0  0  0  0
    1.3583   -9.0036    0.9764 C   0  0  0  0  0  0  0  0  0  0  0  0
    1.5996   -7.6362    1.1311 C   0  0  0  0  0  0  0  0  0  0  0  0
    1.4830   -7.0928    2.3626 C   0  0  0  0  0  0  0  0  0  0  0  0
    1.1008  -11.2372    1.8542 C   0  0  0  0  0  0  0  0  0  0  0  0
    0.4812  -11.6084    0.6459 C   0  0  0  0  0  0  0  0  0  0  0  0
    0.5134  -13.0269    0.4830 C   0  0  0  0  0  0  0  0  0  0  0  0
    1.2057  -13.8685    1.2734 C   0  0  0  0  0  0  0  0  0  0  0  0
    1.9819  -13.3990    2.3594 C   0  0  0  0  0  0  0  0  0  0  0  0
    1.8610  -12.0988    2.6716 C   0  0  0  0  0  0  0  0  0  0  0  0
    2.5653  -11.6133    3.6969 N   0  0  0  0  0  0  0  0  0  0  0  0
    1.5537   -5.6545    2.6487 C   0  0  0  0  0  0  0  0  0  0  0  0
    1.1982   -4.8330    1.6287 C   0  0  0  0  0  0  0  0  0  0  0  0
    1.4036   -3.4219    1.6901 C   0  0  0  0  0  0  0  0  0  0  0  0
    2.2182   -3.0204    2.6085 C   0  0  0  0  0  0  0  0  0  0  0  0
    1.1243   -2.6856    0.5065 C   0  0  0  0  0  0  0  0  0  0  0  0
  3  7  1  0
 12 13  1  0
  6 14  1  0
 14 15  1  0
 15 16  1  0
 16 17  1  0
 16 18  1  0
  1  2  2  0
  2  3  1  0
  3  4  2  0
  4  5  1  0
  5  6  2  0
  1  6  1  0
  7  8  2  0
  8  9  1  0
  9 10  2  0
 10 11  1  0
 11 12  2  0
  7 12  1  0
M  END

$$$$
No_2703-/export/home/yangzhenyu/potential_scad_32_flow//YTHDC2/2024-12-06-03-22-00/
     RDKit          3D

 19 20  0  0  1  0  0  0  0  0999 V2000
    1.1787   -8.0297    3.5154 C   0  0  0  0  0  0  0  0  0  0  0  0
    1.1048   -9.2215    3.2892 C   0  0  0  0  0  0  0  0  0  0  0  0
    1.4683  -10.2314    4.1915 C   0  0  0  0  0  0  0  0  0  0  0  0
    0.8445   -6.9865    2.5175 C   0  0  0  0  0  0  0  0  0  0  0  0
    0.3587   -7.3973    1.3953 C   0  0  0  0  0  0  0  0  0  0  0  0
    0.1901   -8.6971    1.0711 C   0  0  0  0  0  0  0  0  0  0  0  0
    0.5759   -9.6647    1.9442 C   0  0  0  0  0  0  0  0  0  0  0  0
    0.6465  -11.4192    4.2286 C   0  0  0  0  0  0  0  0  0  0  0  0
    0.8177  -12.2543    3.2387 C   0  0  1  0  0  0  0  0  0  0  0  0
    2.1235  -12.8822    3.1483 C   0  0  0  0  0  0  0  0  0  0  0  0
    2.1298  -14.0526    2.2027 C   0  0  0  0  0  0  0  0  0  0  0  0
    0.7887  -14.6377    2.1604 C   0  0  0  0  0  0  0  0  0  0  0  0
   -0.0783  -13.4308    2.5338 C   0  0  2  0  0  0  0  0  0  0  0  0
    1.0186   -5.5424    2.8470 C   0  0  0  0  0  0  0  0  0  0  0  0
    0.7251   -4.6656    1.9037 N   0  0  0  0  0  0  0  0  0  0  0  0
    1.6400   -3.6083    1.6420 C   0  0  0  0  0  0  0  0  0  0  0  0
   -0.8914  -12.9054    1.6047 C   0  0  0  0  0  0  0  0  0  0  0  0
   -2.0500  -12.2225    1.9810 C   0  0  0  0  0  0  0  0  0  0  0  0
   -2.8294  -11.6250    1.0058 C   0  0  0  0  0  0  0  0  0  0  0  0
  2  3  1  0
  3  8  1  0
  9  8  1  1
  9 10  1  0
 10 11  1  0
 11 12  1  0
  9 13  1  0
 12 13  1  0
  4 14  1  0
 14 15  1  0
 15 16  1  0
 13 17  1  6
 17 18  1  0
 18 19  2  0
  1  2  2  0
  2  7  1  0
  6  7  2  0
  5  6  1  0
  4  5  2  0
  1  4  1  0
M  END

$$$$
No_2704-/export/home/yangzhenyu/potential_scad_32_flow//YTHDC2/2024-12-06-03-22-00/
     RDKit          3D

 18 18  0  0  0  0  0  0  0  0999 V2000
    1.1787   -8.0297    3.5154 N   0  0  0  0  0  0  0  0  0  0  0  0
    0.8669   -7.0905    2.8589 C   0  0  0  0  0  0  0  0  0  0  0  0
    1.0447   -7.3244    1.4123 C   0  0  0  0  0  0  0  0  0  0  0  0
    1.3746   -8.4389    1.0864 C   0  0  0  0  0  0  0  0  0  0  0  0
    1.8493   -9.4093    1.8124 C   0  0  0  0  0  0  0  0  0  0  0  0
    2.3022  -10.6908    1.3119 C   0  0  0  0  0  0  0  0  0  0  0  0
    1.7092   -9.2360    3.2189 C   0  0  0  0  0  0  0  0  0  0  0  0
    1.9606  -10.2528    4.1165 C   0  0  0  0  0  0  0  0  0  0  0  0
    1.6538  -11.2469    0.3754 O   0  0  0  0  0  0  0  0  0  0  0  0
    1.1611  -11.1698    4.5925 O   0  0  0  0  0  0  0  0  0  0  0  0
    3.2225  -10.4532    4.7426 O   0  0  0  0  0  0  0  0  0  0  0  0
    1.6014   -8.5791   -0.3808 Cl  0  0  0  0  0  0  0  0  0  0  0  0
    0.5563   -5.8187    3.2996 C   0  0  0  0  0  0  0  0  0  0  0  0
   -0.3669   -5.1919    3.1073 C   0  0  0  0  0  0  0  0  0  0  0  0
   -0.6012   -3.8128    3.4671 C   0  0  0  0  0  0  0  0  0  0  0  0
   -1.7957   -5.8304    2.8394 C   0  0  0  0  0  0  0  0  0  0  0  0
   -2.2740   -5.4739    1.5785 C   0  0  0  0  0  0  0  0  0  0  0  0
   -1.9712   -4.5498    1.0154 C   0  0  0  0  0  0  0  0  0  0  0  0
  5  6  1  0
  7  8  1  0
  6  9  2  0
  8 10  1  0
  8 11  2  0
  4 12  1  0
  2 13  1  0
 13 14  2  3
 14 15  1  0
 14 16  1  0
 16 17  1  0
 17 18  2  0
  1  2  2  0
  2  3  1  0
  3  4  2  0
  4  5  1  0
  5  7  2  0
  1  7  1  0
M  END

$$$$
No_2705-/export/home/yangzhenyu/potential_scad_32_flow//YTHDC2/2024-12-06-03-22-00/
     RDKit          3D

 17 18  0  0  0  0  0  0  0  0999 V2000
    1.1787   -8.0297    3.5154 C   0  0  0  0  0  0  0  0  0  0  0  0
    1.0491   -6.8434    2.9820 C   0  0  0  0  0  0  0  0  0  0  0  0
    0.9905   -9.0774    2.6527 C   0  0  0  0  0  0  0  0  0  0  0  0
    0.7897   -8.9519    1.3691 C   0  0  0  0  0  0  0  0  0  0  0  0
    0.7018   -7.7198    0.7892 C   0  0  0  0  0  0  0  0  0  0  0  0
    0.8918   -6.5957    1.6117 C   0  0  0  0  0  0  0  0  0  0  0  0
    1.0711  -10.4814    3.2282 C   0  0  0  0  0  0  0  0  0  0  0  0
   -0.1055  -11.1328    3.5223 C   0  0  0  0  0  0  0  0  0  0  0  0
   -0.1824  -12.4513    3.3816 C   0  0  0  0  0  0  0  0  0  0  0  0
    0.9472  -13.2655    3.1726 C   0  0  0  0  0  0  0  0  0  0  0  0
    2.1715  -12.6012    2.9116 C   0  0  0  0  0  0  0  0  0  0  0  0
    2.2064  -11.2741    2.8264 C   0  0  0  0  0  0  0  0  0  0  0  0
    0.9222  -14.9163    3.0050 C   0  0  0  0  0  0  0  0  0  0  0  0
    2.1124  -15.4516    2.6198 C   0  0  0  0  0  0  0  0  0  0  0  0
    2.1293  -16.8291    2.4850 C   0  0  0  0  0  0  0  0  0  0  0  0
    1.1305  -17.5990    2.1395 C   0  0  0  0  0  0  0  0  0  0  0  0
   -0.1145  -16.9855    2.4916 C   0  0  0  0  0  0  0  0  0  0  0  0
  3  7  1  0
 10 13  1  0
 13 14  2  3
 14 15  1  0
 15 16  2  3
 16 17  1  0
  1  2  2  0
  2  6  1  0
  5  6  2  0
  4  5  1  0
  3  4  2  0
  1  3  1  0
  7  8  2  0
  8  9  1  0
  9 10  2  0
 10 11  1  0
 11 12  2  0
  7 12  1  0
M  END

$$$$
No_2706-/export/home/yangzhenyu/potential_scad_32_flow//YTHDC2/2024-12-06-03-22-00/
     RDKit          3D

 20 20  0  0  1  0  0  0  0  0999 V2000
    1.1787   -8.0297    3.5154 C   0  0  0  0  0  0  0  0  0  0  0  0
    1.1048   -9.2215    3.2892 C   0  0  0  0  0  0  0  0  0  0  0  0
    1.2339   -9.7611    2.0189 C   0  0  0  0  0  0  0  0  0  0  0  0
    1.3583   -9.0036    0.9764 C   0  0  0  0  0  0  0  0  0  0  0  0
    1.5996   -7.6362    1.1311 C   0  0  0  0  0  0  0  0  0  0  0  0
    1.4830   -7.0928    2.3626 C   0  0  0  0  0  0  0  0  0  0  0  0
    1.1008  -11.2372    1.8542 C   0  0  0  0  0  0  0  0  0  0  0  0
    0.4812  -11.6084    0.6459 O   0  0  0  0  0  0  0  0  0  0  0  0
    1.2619  -12.0916    2.7465 N   0  0  0  0  0  0  0  0  0  0  0  0
    1.1740  -13.4390    2.7228 C   0  0  0  0  0  0  0  0  0  0  0  0
   -0.0813  -13.9345    3.0955 C   0  0  1  0  0  0  0  0  0  0  0  0
   -1.0925  -13.1964    2.8384 C   0  0  0  0  0  0  0  0  0  0  0  0
   -0.2483  -15.3967    2.7354 C   0  0  0  0  0  0  0  0  0  0  0  0
    1.5630   -5.6602    2.6388 C   0  0  0  0  0  0  0  0  0  0  0  0
   -1.5545  -15.8940    2.9869 O   0  0  0  0  0  0  0  0  0  0  0  0
    0.8166  -16.3524    3.0168 C   0  0  0  0  0  0  0  0  0  0  0  0
    1.2588   -4.7845    1.6475 O   0  0  0  0  0  0  0  0  0  0  0  0
    1.8205   -5.0919    3.7570 O   0  0  0  0  0  0  0  0  0  0  0  0
    1.9400  -16.1961    2.3370 C   0  0  0  0  0  0  0  0  0  0  0  0
    2.9402  -17.2611    2.5345 C   0  0  0  0  0  0  0  0  0  0  0  0
  3  7  1  0
  7  8  2  0
  7  9  1  0
  9 10  1  0
 10 11  1  0
 11 12  1  6
 11 13  1  0
  6 14  1  0
 13 15  2  0
 13 16  1  0
 14 17  2  0
 14 18  1  0
 16 19  1  0
 19 20  2  0
  1  2  2  0
  2  3  1  0
  3  4  2  0
  4  5  1  0
  5  6  2  0
  1  6  1  0
M  END

$$$$
No_2707-/export/home/yangzhenyu/potential_scad_32_flow//YTHDC2/2024-12-06-03-22-00/
     RDKit          3D

 17 17  0  0  1  0  0  0  0  0999 V2000
    1.1787   -8.0297    3.5154 C   0  0  0  0  0  0  0  0  0  0  0  0
    1.0491   -6.8434    2.9820 C   0  0  0  0  0  0  0  0  0  0  0  0
    0.9905   -9.0774    2.6527 C   0  0  0  0  0  0  0  0  0  0  0  0
    0.7897   -8.9519    1.3691 C   0  0  0  0  0  0  0  0  0  0  0  0
    0.7018   -7.7198    0.7892 C   0  0  0  0  0  0  0  0  0  0  0  0
    0.8918   -6.5957    1.6117 C   0  0  0  0  0  0  0  0  0  0  0  0
    1.0998  -10.4710    3.2437 C   0  0  0  0  0  0  0  0  0  0  0  0
    1.3102  -11.5554    2.5214 C   0  0  0  0  0  0  0  0  0  0  0  0
    1.4257  -12.8124    3.1919 C   0  0  0  0  0  0  0  0  0  0  0  0
    1.4301  -14.0627    2.4374 C   0  0  1  0  0  0  0  0  0  0  0  0
    0.8588   -5.2558    1.2463 C   0  0  0  0  0  0  0  0  0  0  0  0
    2.4123  -14.2023    1.4711 C   0  0  0  0  0  0  0  0  0  0  0  0
    1.6034  -15.2824    3.4057 C   0  0  0  0  0  0  0  0  0  0  0  0
    0.1829   -4.2988    2.0157 O   0  0  0  0  0  0  0  0  0  0  0  0
    0.9065   -3.2044    2.4303 C   0  0  0  0  0  0  0  0  0  0  0  0
    1.8499  -16.4858    2.6088 C   0  0  0  0  0  0  0  0  0  0  0  0
    3.0376  -16.4592    2.0806 O   0  0  0  0  0  0  0  0  0  0  0  0
  3  7  1  0
  7  8  2  3
  8  9  1  0
  9 10  1  0
  6 11  1  0
 10 12  1  6
 10 13  1  0
 11 14  1  0
 14 15  1  0
 13 16  1  0
 16 17  1  0
  1  2  2  0
  2  6  1  0
  5  6  2  0
  4  5  1  0
  3  4  2  0
  1  3  1  0
M  END

$$$$
No_2708-/export/home/yangzhenyu/potential_scad_32_flow//YTHDC2/2024-12-06-03-22-00/
     RDKit          3D

 19 20  0  0  1  0  0  0  0  0999 V2000
    1.1787   -8.0297    3.5154 C   0  0  0  0  0  0  0  0  0  0  0  0
    1.0491   -6.8434    2.9820 C   0  0  0  0  0  0  0  0  0  0  0  0
    1.9985   -8.9840    2.8958 C   0  0  1  0  0  0  0  0  0  0  0  0
    1.9135  -10.3404    3.6266 C   0  0  0  0  0  0  0  0  0  0  0  0
    0.7479  -10.9191    3.7202 C   0  0  0  0  0  0  0  0  0  0  0  0
    1.3327   -6.5751    1.7543 C   0  0  1  0  0  0  0  0  0  0  0  0
    0.7229  -12.3140    3.5934 C   0  0  0  0  0  0  0  0  0  0  0  0
    1.5509   -7.5470    0.8954 C   0  0  0  0  0  0  0  0  0  0  0  0
    1.9782   -8.8213    1.3756 C   0  0  0  0  0  0  0  0  0  0  0  0
    0.9047  -12.7808    2.3091 C   0  0  0  0  0  0  0  0  0  0  0  0
    0.6694  -13.8531    2.0202 C   0  0  0  0  0  0  0  0  0  0  0  0
    0.2706  -14.2417    0.7681 C   0  0  0  0  0  0  0  0  0  0  0  0
    0.3214  -13.2111   -0.2087 C   0  0  0  0  0  0  0  0  0  0  0  0
    0.5482  -11.9849    0.0764 C   0  0  0  0  0  0  0  0  0  0  0  0
    0.8567  -11.6456    1.4156 C   0  0  0  0  0  0  0  0  0  0  0  0
    2.5813   -9.7294    0.6547 O   0  0  0  0  0  0  0  0  0  0  0  0
    0.7993   -5.3685    1.0948 C   0  0  0  0  0  0  0  0  0  0  0  0
   -0.2670   -5.3012    0.4402 C   0  0  0  0  0  0  0  0  0  0  0  0
   -0.9334   -4.2365   -0.1375 C   0  0  0  0  0  0  0  0  0  0  0  0
  1  2  1  0
  1  3  1  0
  3  4  1  6
  4  5  1  0
  2  6  1  0
  5  7  1  0
  6  8  1  0
  3  9  1  0
  8  9  1  0
  7 10  1  0
  9 16  2  0
  6 17  1  6
 17 18  1  0
 18 19  2  0
 10 11  2  0
 11 12  1  0
 12 13  2  0
 13 14  1  0
 14 15  2  0
 10 15  1  0
M  END

$$$$
No_2709-/export/home/yangzhenyu/potential_scad_32_flow//YTHDC2/2024-12-06-03-22-00/
     RDKit          3D

 21 22  0  0  1  0  0  0  0  0999 V2000
    1.1787   -8.0297    3.5154 C   0  0  0  0  0  0  0  0  0  0  0  0
    1.0491   -6.8434    2.9820 C   0  0  0  0  0  0  0  0  0  0  0  0
    0.9905   -9.0774    2.6527 C   0  0  0  0  0  0  0  0  0  0  0  0
    0.7897   -8.9519    1.3691 C   0  0  0  0  0  0  0  0  0  0  0  0
    0.7018   -7.7198    0.7892 C   0  0  0  0  0  0  0  0  0  0  0  0
    0.8918   -6.5957    1.6117 C   0  0  0  0  0  0  0  0  0  0  0  0
    1.0600  -10.5680    3.3321 C   0  0  1  0  0  0  0  0  0  0  0  0
   -0.1041  -11.1773    3.5150 C   0  0  0  0  0  0  0  0  0  0  0  0
   -0.6926  -11.6099    2.5612 C   0  0  1  0  0  0  0  0  0  0  0  0
   -0.0469  -12.0422    1.4027 C   0  0  0  0  0  0  0  0  0  0  0  0
    1.3838  -11.6381    1.3049 C   0  0  0  0  0  0  0  0  0  0  0  0
    1.8651  -10.8456    2.2158 C   0  0  0  0  0  0  0  0  0  0  0  0
    0.9122   -5.2433    1.1593 O   0  0  0  0  0  0  0  0  0  0  0  0
   -0.6078  -12.7430    0.4167 F   0  0  0  0  0  0  0  0  0  0  0  0
    1.9322  -10.4141    4.5397 C   0  0  0  0  0  0  0  0  0  0  0  0
    1.3690   -5.6722    3.7286 O   0  0  0  0  0  0  0  0  0  0  0  0
    2.7209  -11.6408    4.7162 N   0  0  0  0  0  0  0  0  0  0  0  0
    1.9298  -11.8627    0.1052 O   0  0  0  0  0  0  0  0  0  0  0  0
   -2.0980  -12.1234    2.5190 C   0  0  0  0  0  0  0  0  0  0  0  0
   -2.4639  -13.4338    2.6988 O   0  0  0  0  0  0  0  0  0  0  0  0
   -3.0383  -11.1887    2.8811 O   0  0  0  0  0  0  0  0  0  0  0  0
  1  2  1  0
  3  4  1  0
  2  6  1  0
  5  6  1  0
  3  7  1  0
  7  8  1  0
  9 10  1  0
 10 11  1  0
  7 12  1  0
 11 12  1  0
  6 13  2  0
 10 14  1  0
  7 15  1  1
  2 16  2  0
 15 17  1  0
 11 18  2  0
  9 19  1  1
 19 20  2  0
 19 21  1  0
  8  9  1  0
  1  3  1  0
  4  5  1  0
M  END

$$$$
No_2710-/export/home/yangzhenyu/potential_scad_32_flow//YTHDC2/2024-12-06-03-22-00/
     RDKit          3D

 20 22  0  0  0  0  0  0  0  0999 V2000
    1.1787   -8.0297    3.5154 C   0  0  0  0  0  0  0  0  0  0  0  0
    1.1048   -9.2215    3.2892 C   0  0  0  0  0  0  0  0  0  0  0  0
    1.3627  -10.1721    4.3044 C   0  0  0  0  0  0  0  0  0  0  0  0
    1.0682  -11.5187    4.0618 C   0  0  0  0  0  0  0  0  0  0  0  0
    0.6332  -11.9655    2.9682 C   0  0  0  0  0  0  0  0  0  0  0  0
    0.4776  -11.1308    1.9203 C   0  0  0  0  0  0  0  0  0  0  0  0
    0.7470   -9.8274    2.0368 C   0  0  0  0  0  0  0  0  0  0  0  0
    1.0387   -7.0301    2.5175 N   0  0  0  0  0  0  0  0  0  0  0  0
    1.3639   -7.4200    1.2802 C   0  0  0  0  0  0  0  0  0  0  0  0
    1.0621   -8.7219    0.9367 C   0  0  0  0  0  0  0  0  0  0  0  0
    0.9061   -9.1644   -0.2998 C   0  0  0  0  0  0  0  0  0  0  0  0
    1.7836   -9.3763   -1.1099 O   0  0  0  0  0  0  0  0  0  0  0  0
   -0.3384   -8.8391   -0.9993 O   0  0  0  0  0  0  0  0  0  0  0  0
    0.4747  -13.3645    2.6790 C   0  0  0  0  0  0  0  0  0  0  0  0
    1.3908  -14.2982    3.1758 C   0  0  0  0  0  0  0  0  0  0  0  0
    1.1663  -15.6702    2.9802 C   0  0  0  0  0  0  0  0  0  0  0  0
    0.3018  -16.1138    2.2034 C   0  0  0  0  0  0  0  0  0  0  0  0
   -0.5533  -15.2612    1.6057 C   0  0  0  0  0  0  0  0  0  0  0  0
   -0.3897  -13.9055    1.8124 C   0  0  0  0  0  0  0  0  0  0  0  0
    0.1686  -17.4621    1.8720 O   0  0  0  0  0  0  0  0  0  0  0  0
 10 11  1  0
 11 12  2  0
 11 13  1  0
  5 14  1  0
 17 20  1  0
  2  3  1  0
  3  4  2  0
  4  5  1  0
  5  6  2  0
  6  7  1  0
  1  2  2  0
  2  7  1  0
  7 10  2  0
  9 10  1  0
  8  9  2  0
  1  8  1  0
 14 15  2  0
 15 16  1  0
 16 17  2  0
 17 18  1  0
 18 19  2  0
 14 19  1  0
M  END

$$$$
No_2711-/export/home/yangzhenyu/potential_scad_32_flow//YTHDC2/2024-12-06-03-22-00/
     RDKit          3D

 18 18  0  0  1  0  0  0  0  0999 V2000
    1.1787   -8.0297    3.5154 C   0  0  0  0  0  0  0  0  0  0  0  0
    1.0491   -6.8434    2.9820 C   0  0  0  0  0  0  0  0  0  0  0  0
    1.9985   -8.9840    2.8958 C   0  0  0  0  0  0  0  0  0  0  0  0
    1.1815  -10.1889    2.5497 C   0  0  1  0  0  0  0  0  0  0  0  0
    0.3496  -10.1352    1.6536 C   0  0  0  0  0  0  0  0  0  0  0  0
    0.2726  -10.8443    0.9221 O   0  0  0  0  0  0  0  0  0  0  0  0
   -0.4957   -9.0702    1.6422 C   0  0  0  0  0  0  0  0  0  0  0  0
    0.6441   -6.7599    1.6049 C   0  0  0  0  0  0  0  0  0  0  0  0
   -0.5977   -7.5012    1.2922 C   0  0  1  0  0  0  0  0  0  0  0  0
   -1.4458   -7.0855    0.5267 C   0  0  0  0  0  0  0  0  0  0  0  0
   -1.8583   -5.7558    0.5345 O   0  0  0  0  0  0  0  0  0  0  0  0
   -2.1546   -7.7857   -0.4007 O   0  0  0  0  0  0  0  0  0  0  0  0
    1.6144  -11.3398    3.2389 C   0  0  1  0  0  0  0  0  0  0  0  0
    1.5901  -11.3710    4.6025 C   0  0  0  0  0  0  0  0  0  0  0  0
    1.0578  -12.5937    2.6615 C   0  0  0  0  0  0  0  0  0  0  0  0
    1.9353  -13.4082    1.8111 C   0  0  0  0  0  0  0  0  0  0  0  0
    1.5900  -14.3474    1.3033 C   0  0  0  0  0  0  0  0  0  0  0  0
    0.4116  -14.9255    1.6184 C   0  0  0  0  0  0  0  0  0  0  0  0
  1  2  1  0
  1  3  1  0
  4  3  1  6
  4  5  1  0
  5  6  2  0
  5  7  1  0
  2  8  1  0
  7  9  1  0
  8  9  1  0
  9 10  1  6
 10 11  2  0
 10 12  1  0
  4 13  1  0
 13 14  1  1
 13 15  1  0
 15 16  1  0
 16 17  2  3
 17 18  1  0
M  END

$$$$
No_2712-/export/home/yangzhenyu/potential_scad_32_flow//YTHDC2/2024-12-06-03-22-00/
     RDKit          3D

 19 20  0  0  0  0  0  0  0  0999 V2000
    1.1787   -8.0297    3.5154 C   0  0  0  0  0  0  0  0  0  0  0  0
    1.0491   -6.8434    2.9820 C   0  0  0  0  0  0  0  0  0  0  0  0
    0.9905   -9.0774    2.6527 C   0  0  0  0  0  0  0  0  0  0  0  0
    0.7897   -8.9519    1.3691 C   0  0  0  0  0  0  0  0  0  0  0  0
    0.7018   -7.7198    0.7892 C   0  0  0  0  0  0  0  0  0  0  0  0
    0.8918   -6.5957    1.6117 C   0  0  0  0  0  0  0  0  0  0  0  0
    1.0711  -10.4814    3.2282 C   0  0  0  0  0  0  0  0  0  0  0  0
   -0.1055  -11.1328    3.5223 C   0  0  0  0  0  0  0  0  0  0  0  0
   -0.1824  -12.4513    3.3816 C   0  0  0  0  0  0  0  0  0  0  0  0
    0.9872  -13.1679    2.9157 C   0  0  0  0  0  0  0  0  0  0  0  0
    2.2023  -12.5183    2.6748 C   0  0  0  0  0  0  0  0  0  0  0  0
    2.1918  -11.1651    2.6759 C   0  0  0  0  0  0  0  0  0  0  0  0
    0.9469  -14.5378    2.8274 C   0  0  0  0  0  0  0  0  0  0  0  0
    0.7652  -15.2590    1.9994 C   0  0  0  0  0  0  0  0  0  0  0  0
    0.8490  -16.7139    2.0439 C   0  0  0  0  0  0  0  0  0  0  0  0
    2.2382  -17.3003    2.2637 C   0  0  0  0  0  0  0  0  0  0  0  0
    2.4736  -18.5791    2.5186 C   0  0  0  0  0  0  0  0  0  0  0  0
    1.4278  -19.3426    2.5928 C   0  0  0  0  0  0  0  0  0  0  0  0
    0.1798  -18.9942    2.5119 C   0  0  0  0  0  0  0  0  0  0  0  0
  3  7  1  0
 10 13  1  0
 13 14  2  3
 14 15  1  0
 15 16  1  0
 16 17  2  3
 17 18  1  0
 18 19  2  0
  1  2  2  0
  2  6  1  0
  5  6  2  0
  4  5  1  0
  3  4  2  0
  1  3  1  0
  7  8  2  0
  8  9  1  0
  9 10  2  0
 10 11  1  0
 11 12  2  0
  7 12  1  0
M  END

$$$$
No_2713-/export/home/yangzhenyu/potential_scad_32_flow//YTHDC2/2024-12-06-03-22-00/
     RDKit          3D

 19 21  0  0  0  0  0  0  0  0999 V2000
    1.1787   -8.0297    3.5154 C   0  0  0  0  0  0  0  0  0  0  0  0
    1.1048   -9.2215    3.2892 C   0  0  0  0  0  0  0  0  0  0  0  0
    1.3627  -10.1721    4.3044 C   0  0  0  0  0  0  0  0  0  0  0  0
    1.7354  -11.4730    3.9023 C   0  0  0  0  0  0  0  0  0  0  0  0
    1.8080  -11.8127    2.7216 C   0  0  0  0  0  0  0  0  0  0  0  0
    2.0797  -13.2205    2.4264 C   0  0  0  0  0  0  0  0  0  0  0  0
    1.0424   -7.1607    2.3029 C   0  0  0  0  0  0  0  0  0  0  0  0
    1.1066   -7.6297    1.0940 C   0  0  0  0  0  0  0  0  0  0  0  0
    1.2742   -8.8824    0.8244 C   0  0  0  0  0  0  0  0  0  0  0  0
    1.2734   -9.8055    1.8891 C   0  0  0  0  0  0  0  0  0  0  0  0
    1.6366  -11.0387    1.6628 N   0  0  0  0  0  0  0  0  0  0  0  0
    1.7287  -14.2448    3.2699 C   0  0  0  0  0  0  0  0  0  0  0  0
    1.8811  -15.5656    2.8041 C   0  0  0  0  0  0  0  0  0  0  0  0
    2.6159  -15.8075    1.6926 C   0  0  0  0  0  0  0  0  0  0  0  0
    3.1130  -14.8739    1.0008 C   0  0  0  0  0  0  0  0  0  0  0  0
    2.7619  -13.4847    1.2599 C   0  0  0  0  0  0  0  0  0  0  0  0
    0.8945   -5.6320    2.4815 Br  0  0  0  0  0  0  0  0  0  0  0  0
    1.4443   -9.4760   -0.6539 O   0  0  0  0  0  0  0  0  0  0  0  0
    1.4054  -16.8155    3.8302 O   0  0  0  0  0  0  0  0  0  0  0  0
  5  6  1  0
  7 17  1  0
  9 18  1  0
 13 19  1  0
  1  2  2  0
  9 10  2  0
  8  9  1  0
  7  8  2  0
  1  7  1  0
  2  3  1  0
  3  4  2  0
  4  5  1  0
  5 11  2  0
 10 11  1  0
  2 10  1  0
  6 12  2  0
 12 13  1  0
 13 14  2  0
 14 15  1  0
 15 16  2  0
  6 16  1  0
M  END

$$$$
No_2714-/export/home/yangzhenyu/potential_scad_32_flow//YTHDC2/2024-12-06-03-22-00/
     RDKit          3D

 18 20  0  0  0  0  0  0  0  0999 V2000
    1.1787   -8.0297    3.5154 C   0  0  0  0  0  0  0  0  0  0  0  0
    1.1048   -9.2215    3.2892 C   0  0  0  0  0  0  0  0  0  0  0  0
    1.3627  -10.1721    4.3044 C   0  0  0  0  0  0  0  0  0  0  0  0
    1.0682  -11.5187    4.0618 C   0  0  0  0  0  0  0  0  0  0  0  0
    0.6332  -11.9655    2.9682 C   0  0  0  0  0  0  0  0  0  0  0  0
    0.4776  -11.1308    1.9203 C   0  0  0  0  0  0  0  0  0  0  0  0
    0.7470   -9.8274    2.0368 C   0  0  0  0  0  0  0  0  0  0  0  0
    0.5535   -7.1314    2.6861 C   0  0  0  0  0  0  0  0  0  0  0  0
    0.2950   -7.6000    1.3275 C   0  0  0  0  0  0  0  0  0  0  0  0
    0.2692   -8.8631    1.0973 C   0  0  0  0  0  0  0  0  0  0  0  0
    0.4648  -13.6251    2.7005 C   0  0  0  0  0  0  0  0  0  0  0  0
    0.8912  -14.0526    1.6124 C   0  0  0  0  0  0  0  0  0  0  0  0
    0.2279  -14.6132    0.8753 C   0  0  0  0  0  0  0  0  0  0  0  0
    0.7014  -15.0190   -0.4469 C   0  0  0  0  0  0  0  0  0  0  0  0
   -0.1940  -15.4933   -1.3814 C   0  0  0  0  0  0  0  0  0  0  0  0
   -1.4391  -15.7317   -1.2306 C   0  0  0  0  0  0  0  0  0  0  0  0
   -2.0424  -15.1883   -0.0905 C   0  0  0  0  0  0  0  0  0  0  0  0
   -1.2357  -14.7087    0.9498 C   0  0  0  0  0  0  0  0  0  0  0  0
  5 11  1  0
 11 12  1  0
 12 13  1  0
  2  3  1  0
  3  4  2  0
  4  5  1  0
  5  6  2  0
  6  7  1  0
 13 14  2  0
 14 15  1  0
 15 16  2  0
 16 17  1  0
 17 18  2  0
 13 18  1  0
  1  2  2  0
  2  7  1  0
  7 10  2  0
  9 10  1  0
  8  9  2  0
  1  8  1  0
M  END

$$$$
No_2715-/export/home/yangzhenyu/potential_scad_32_flow//YTHDC2/2024-12-06-03-22-00/
     RDKit          3D

 19 20  0  0  0  0  0  0  0  0999 V2000
    1.1787   -8.0297    3.5154 C   0  0  0  0  0  0  0  0  0  0  0  0
    1.1048   -9.2215    3.2892 C   0  0  0  0  0  0  0  0  0  0  0  0
    1.2339   -9.7611    2.0189 C   0  0  0  0  0  0  0  0  0  0  0  0
    1.3583   -9.0036    0.9764 C   0  0  0  0  0  0  0  0  0  0  0  0
    1.5996   -7.6362    1.1311 C   0  0  0  0  0  0  0  0  0  0  0  0
    1.4830   -7.0928    2.3626 C   0  0  0  0  0  0  0  0  0  0  0  0
    1.5395   -5.7300    2.6182 C   0  0  0  0  0  0  0  0  0  0  0  0
    1.1775  -11.2233    1.8407 C   0  0  0  0  0  0  0  0  0  0  0  0
    1.9057  -12.1147    2.3397 C   0  0  0  0  0  0  0  0  0  0  0  0
    1.6867  -13.4551    2.0621 I   0  0  0  0  0  0  0  0  0  0  0  0
    1.3119   -4.7993    1.6845 N   0  0  0  0  0  0  0  0  0  0  0  0
    1.7398   -5.1791    3.8352 O   0  0  0  0  0  0  0  0  0  0  0  0
    1.2367   -3.4422    1.7294 C   0  0  0  0  0  0  0  0  0  0  0  0
    0.3625   -2.8623    0.9952 C   0  0  0  0  0  0  0  0  0  0  0  0
   -0.6696   -3.4663    0.4139 C   0  0  0  0  0  0  0  0  0  0  0  0
   -1.0033   -3.0304   -0.9252 C   0  0  0  0  0  0  0  0  0  0  0  0
   -0.4537   -1.9903   -1.4567 C   0  0  0  0  0  0  0  0  0  0  0  0
    0.6507   -1.2387   -0.8078 C   0  0  0  0  0  0  0  0  0  0  0  0
    1.0601   -1.7059    0.4786 C   0  0  0  0  0  0  0  0  0  0  0  0
  6  7  1  0
  3  8  1  0
  8  9  1  0
  9 10  1  0
  7 11  1  0
  7 12  2  0
 11 13  1  0
 13 14  1  0
 14 15  1  0
 15 16  1  0
 16 17  1  0
 17 18  1  0
 14 19  1  0
 18 19  1  0
  1  2  2  0
  2  3  1  0
  3  4  2  0
  4  5  1  0
  5  6  2  0
  1  6  1  0
M  END

$$$$
No_2716-/export/home/yangzhenyu/potential_scad_32_flow//YTHDC2/2024-12-06-03-22-00/
     RDKit          3D

 20 21  0  0  1  0  0  0  0  0999 V2000
    1.1787   -8.0297    3.5154 C   0  0  0  0  0  0  0  0  0  0  0  0
    1.1048   -9.2215    3.2892 C   0  0  0  0  0  0  0  0  0  0  0  0
    1.2339   -9.7611    2.0189 C   0  0  0  0  0  0  0  0  0  0  0  0
    1.3583   -9.0036    0.9764 C   0  0  0  0  0  0  0  0  0  0  0  0
    1.5996   -7.6362    1.1311 C   0  0  0  0  0  0  0  0  0  0  0  0
    1.4830   -7.0928    2.3626 C   0  0  0  0  0  0  0  0  0  0  0  0
    1.4898   -5.7274    2.6199 C   0  0  0  0  0  0  0  0  0  0  0  0
    1.1681  -11.2222    1.8390 C   0  0  0  0  0  0  0  0  0  0  0  0
    0.5014  -11.9760    2.2068 N   0  0  0  0  0  0  0  0  0  0  0  0
   -0.7432  -11.6484    2.6560 C   0  0  0  0  0  0  0  0  0  0  0  0
    0.7376  -13.3338    2.3989 C   0  0  2  0  0  0  0  0  0  0  0  0
    2.0144  -13.7197    2.7798 C   0  0  0  0  0  0  0  0  0  0  0  0
    2.1474  -15.2167    2.6608 C   0  0  0  0  0  0  0  0  0  0  0  0
    1.2735  -16.0255    2.3192 C   0  0  2  0  0  0  0  0  0  0  0  0
   -0.0012  -15.6031    2.0527 C   0  0  0  0  0  0  0  0  0  0  0  0
   -0.2856  -14.2274    2.1031 C   0  0  0  0  0  0  0  0  0  0  0  0
    2.2126  -11.5279    0.8628 O   0  0  0  0  0  0  0  0  0  0  0  0
    0.6420   -4.9967    2.7114 O   0  0  0  0  0  0  0  0  0  0  0  0
   -1.4932  -13.7673    1.7470 O   0  0  0  0  0  0  0  0  0  0  0  0
    1.5687  -17.6849    2.4307 C   0  0  0  0  0  0  0  0  0  0  0  0
  6  7  1  0
  3  8  1  0
  8  9  1  0
  9 10  1  0
 11  9  1  6
 11 12  1  0
 13 14  1  0
 11 16  1  0
 15 16  1  0
  8 17  2  0
  7 18  2  0
 16 19  2  0
 14 20  1  1
 12 13  1  0
 14 15  1  0
  1  2  2  0
  2  3  1  0
  3  4  2  0
  4  5  1  0
  5  6  2  0
  1  6  1  0
M  END

$$$$
No_2717-/export/home/yangzhenyu/potential_scad_32_flow//YTHDC2/2024-12-06-03-22-00/
     RDKit          3D

 13 13  0  0  0  0  0  0  0  0999 V2000
    1.1787   -8.0297    3.5154 C   0  0  0  0  0  0  0  0  0  0  0  0
    1.0491   -6.8434    2.9820 C   0  0  0  0  0  0  0  0  0  0  0  0
    0.0950   -8.8404    3.2292 C   0  0  0  0  0  0  0  0  0  0  0  0
   -0.9173   -8.4596    2.5152 C   0  0  0  0  0  0  0  0  0  0  0  0
   -1.0331   -7.2162    2.0653 C   0  0  0  0  0  0  0  0  0  0  0  0
   -0.0105   -6.3168    2.3081 C   0  0  0  0  0  0  0  0  0  0  0  0
    0.0485   -4.9783    1.8782 C   0  0  0  0  0  0  0  0  0  0  0  0
   -0.4744   -4.1559    2.2381 C   0  0  0  0  0  0  0  0  0  0  0  0
   -0.3956   -2.6830    1.7790 C   0  0  0  0  0  0  0  0  0  0  0  0
    0.1602  -10.2743    3.6766 C   0  0  0  0  0  0  0  0  0  0  0  0
    1.2416  -10.8255    4.0807 C   0  0  0  0  0  0  0  0  0  0  0  0
    1.1200  -12.2414    4.4243 N   0  0  0  0  0  0  0  0  0  0  0  0
    0.1421  -12.7928    3.8642 C   0  0  0  0  0  0  0  0  0  0  0  0
  6  7  1  0
  7  8  2  3
  8  9  1  0
  3 10  1  0
 10 11  2  3
 11 12  1  0
 12 13  2  0
  1  2  2  0
  2  6  1  0
  5  6  2  0
  4  5  1  0
  3  4  2  0
  1  3  1  0
M  END

$$$$
No_2718-/export/home/yangzhenyu/potential_scad_32_flow//YTHDC2/2024-12-06-03-22-00/
     RDKit          3D

 20 21  0  0  1  0  0  0  0  0999 V2000
    1.1787   -8.0297    3.5154 C   0  0  0  0  0  0  0  0  0  0  0  0
    1.1048   -9.2215    3.2892 C   0  0  0  0  0  0  0  0  0  0  0  0
    1.2339   -9.7611    2.0189 C   0  0  0  0  0  0  0  0  0  0  0  0
    1.4306   -8.9466    1.1170 C   0  0  0  0  0  0  0  0  0  0  0  0
    1.6532   -7.5949    1.1786 C   0  0  0  0  0  0  0  0  0  0  0  0
    1.4973   -7.0739    2.4258 C   0  0  0  0  0  0  0  0  0  0  0  0
    1.6687   -9.4438   -0.3021 Cl  0  0  0  0  0  0  0  0  0  0  0  0
    1.3099  -11.4006    1.8609 C   0  0  0  0  0  0  0  0  0  0  0  0
    2.0784  -11.9786    2.6364 C   0  0  0  0  0  0  0  0  0  0  0  0
    1.3698  -13.2239    3.1257 C   0  0  1  0  0  0  0  0  0  0  0  0
    0.0814  -13.3790    2.9579 C   0  0  0  0  0  0  0  0  0  0  0  0
   -0.2395  -14.7965    2.7370 C   0  0  0  0  0  0  0  0  0  0  0  0
    0.5823  -15.8557    2.6955 C   0  0  0  0  0  0  0  0  0  0  0  0
    2.0363  -15.5361    2.7127 C   0  0  2  0  0  0  0  0  0  0  0  0
    2.4356  -14.1556    2.9008 C   0  0  0  0  0  0  0  0  0  0  0  0
    2.9345  -16.4761    2.4582 C   0  0  0  0  0  0  0  0  0  0  0  0
    1.4453   -5.5857    2.6886 Cl  0  0  0  0  0  0  0  0  0  0  0  0
    0.2464  -17.0050    2.2572 N   0  0  0  0  0  0  0  0  0  0  0  0
    2.4037  -17.8210    2.2738 C   0  0  0  0  0  0  0  0  0  0  0  0
    0.9526  -17.7067    2.0869 H   0  0  0  0  0  0  0  0  0  0  0  0
  4  7  1  0
  3  8  1  0
  8  9  1  0
 10  9  1  6
 10 11  1  0
 11 12  1  0
 12 13  1  0
 13 14  1  0
 10 15  1  0
 14 15  1  0
 14 16  1  6
  6 17  1  0
 13 18  2  0
 16 19  1  0
  1  2  2  0
  2  3  1  0
  3  4  2  0
  4  5  1  0
  5  6  2  0
  1  6  1  0
 18 20  1  0
M  END

$$$$
No_2719-/export/home/yangzhenyu/potential_scad_32_flow//YTHDC2/2024-12-06-03-22-00/
     RDKit          3D

 18 19  0  0  1  0  0  0  0  0999 V2000
    1.1787   -8.0297    3.5154 N   0  0  0  0  0  0  0  0  0  0  0  0
    1.0818   -9.0751    3.2053 C   0  0  0  0  0  0  0  0  0  0  0  0
    1.5216  -10.1164    3.9747 C   0  0  0  0  0  0  0  0  0  0  0  0
    1.4420  -11.4363    3.6461 C   0  0  0  0  0  0  0  0  0  0  0  0
    0.5969  -11.7648    2.6785 C   0  0  0  0  0  0  0  0  0  0  0  0
    0.0096  -10.8332    1.9506 C   0  0  0  0  0  0  0  0  0  0  0  0
    0.3359   -9.5186    2.1388 C   0  0  0  0  0  0  0  0  0  0  0  0
    0.8819   -6.9011    2.6487 C   0  0  2  0  0  0  0  0  0  0  0  0
    0.4076   -7.2265    1.4607 C   0  0  0  0  0  0  0  0  0  0  0  0
    0.0604   -8.4780    1.1746 C   0  0  0  0  0  0  0  0  0  0  0  0
   -0.5471   -8.7214    0.0063 O   0  0  0  0  0  0  0  0  0  0  0  0
    1.3628   -5.4881    3.0930 C   0  0  0  0  0  0  0  0  0  0  0  0
   -0.0681   -6.1878    0.7336 O   0  0  0  0  0  0  0  0  0  0  0  0
    0.3417  -13.1737    2.3632 C   0  0  0  0  0  0  0  0  0  0  0  0
   -0.9067  -13.6050    2.2613 O   0  0  0  0  0  0  0  0  0  0  0  0
    1.2945  -14.1638    2.7140 N   0  0  0  0  0  0  0  0  0  0  0  0
    1.3649  -15.3784    2.1716 C   0  0  0  0  0  0  0  0  0  0  0  0
    2.1034  -15.5840    1.0617 C   0  0  0  0  0  0  0  0  0  0  0  0
  1  2  1  0
  8  9  1  0
  7 10  1  0
  9 10  1  0
 10 11  2  0
  8 12  1  6
  9 13  2  0
  5 14  1  0
 14 15  2  0
 14 16  1  0
 16 17  1  0
 17 18  1  0
  1  8  1  0
  2  3  2  0
  3  4  1  0
  4  5  2  0
  5  6  1  0
  6  7  2  0
  2  7  1  0
M  END

$$$$
No_2720-/export/home/yangzhenyu/potential_scad_32_flow//YTHDC2/2024-12-06-03-22-00/
     RDKit          3D

 19 20  0  0  0  0  0  0  0  0999 V2000
    1.1787   -8.0297    3.5154 C   0  0  0  0  0  0  0  0  0  0  0  0
    1.0491   -6.8434    2.9820 C   0  0  0  0  0  0  0  0  0  0  0  0
    0.0950   -8.8404    3.2292 C   0  0  0  0  0  0  0  0  0  0  0  0
   -0.9173   -8.4596    2.5152 C   0  0  0  0  0  0  0  0  0  0  0  0
   -1.0331   -7.2162    2.0653 C   0  0  0  0  0  0  0  0  0  0  0  0
   -0.0105   -6.3168    2.3081 C   0  0  0  0  0  0  0  0  0  0  0  0
    0.1935  -10.3737    3.7416 C   0  0  0  0  0  0  0  0  0  0  0  0
    1.2406  -10.8901    4.0986 O   0  0  0  0  0  0  0  0  0  0  0  0
   -0.9986  -10.9110    4.0031 O   0  0  0  0  0  0  0  0  0  0  0  0
   -0.0411   -5.0184    1.8029 Cl  0  0  0  0  0  0  0  0  0  0  0  0
   -2.3634   -6.7235    1.3768 I   0  0  0  0  0  0  0  0  0  0  0  0
   -2.0125   -9.3535    2.4156 C   0  0  0  0  0  0  0  0  0  0  0  0
   -2.8589   -9.7655    1.8680 C   0  0  0  0  0  0  0  0  0  0  0  0
   -3.5105  -10.6573    1.1941 C   0  0  0  0  0  0  0  0  0  0  0  0
   -4.4594  -10.1488    0.4994 C   0  0  0  0  0  0  0  0  0  0  0  0
   -4.2512  -10.1203   -0.7464 C   0  0  0  0  0  0  0  0  0  0  0  0
   -3.5677  -11.1523   -1.3999 C   0  0  0  0  0  0  0  0  0  0  0  0
   -2.6673  -11.9117   -0.5941 C   0  0  0  0  0  0  0  0  0  0  0  0
   -2.6275  -11.6537    0.8026 C   0  0  0  0  0  0  0  0  0  0  0  0
  3  7  1  0
  7  8  2  0
  7  9  1  0
  6 10  1  0
  5 11  1  0
  4 12  1  0
 12 13  3  0
 13 14  1  0
 14 15  2  0
 15 16  1  0
 16 17  2  0
 17 18  1  0
 18 19  2  0
 14 19  1  0
  1  2  2  0
  2  6  1  0
  5  6  2  0
  4  5  1  0
  3  4  2  0
  1  3  1  0
M  END

$$$$
No_2721-/export/home/yangzhenyu/potential_scad_32_flow//YTHDC2/2024-12-06-03-22-00/
     RDKit          3D

 18 19  0  0  0  0  0  0  0  0999 V2000
    1.1787   -8.0297    3.5154 C   0  0  0  0  0  0  0  0  0  0  0  0
    1.0491   -6.8434    2.9820 C   0  0  0  0  0  0  0  0  0  0  0  0
    0.0950   -8.8404    3.2292 C   0  0  0  0  0  0  0  0  0  0  0  0
   -0.9173   -8.4596    2.5152 C   0  0  0  0  0  0  0  0  0  0  0  0
   -1.0331   -7.2162    2.0653 C   0  0  0  0  0  0  0  0  0  0  0  0
   -0.0105   -6.3168    2.3081 C   0  0  0  0  0  0  0  0  0  0  0  0
    0.1465  -10.2446    3.6981 C   0  0  0  0  0  0  0  0  0  0  0  0
    0.1907  -11.3369    2.8651 C   0  0  0  0  0  0  0  0  0  0  0  0
   -0.2018  -11.4456    1.8156 C   0  0  0  0  0  0  0  0  0  0  0  0
   -0.1002  -12.4840    0.9716 C   0  0  0  0  0  0  0  0  0  0  0  0
    0.6847  -13.6389    1.4371 C   0  0  0  0  0  0  0  0  0  0  0  0
    1.2708  -13.5730    2.6365 C   0  0  0  0  0  0  0  0  0  0  0  0
    1.0830  -12.4946    3.4740 C   0  0  0  0  0  0  0  0  0  0  0  0
    1.9507  -14.6682    3.2073 C   0  0  0  0  0  0  0  0  0  0  0  0
    0.0721   -4.7570    1.8007 C   0  0  0  0  0  0  0  0  0  0  0  0
   -0.3416   -4.6100    0.6544 C   0  0  0  0  0  0  0  0  0  0  0  0
   -0.4214   -3.2484    0.2855 C   0  0  0  0  0  0  0  0  0  0  0  0
    0.3921   -2.2855    0.9612 C   0  0  0  0  0  0  0  0  0  0  0  0
  3  7  1  0
  7  8  1  0
 12 14  1  0
  6 15  1  0
 15 16  1  0
 16 17  2  3
 17 18  1  0
  1  2  2  0
  2  6  1  0
  5  6  2  0
  4  5  1  0
  3  4  2  0
  1  3  1  0
  8  9  2  0
  9 10  1  0
 10 11  2  0
 11 12  1  0
 12 13  2  0
  8 13  1  0
M  END

$$$$
No_2722-/export/home/yangzhenyu/potential_scad_32_flow//YTHDC2/2024-12-06-03-22-00/
     RDKit          3D

 17 18  0  0  0  0  0  0  0  0999 V2000
    1.1787   -8.0297    3.5154 C   0  0  0  0  0  0  0  0  0  0  0  0
    1.1048   -9.2215    3.2892 C   0  0  0  0  0  0  0  0  0  0  0  0
    1.0240   -9.7790    2.0239 C   0  0  0  0  0  0  0  0  0  0  0  0
    1.1393   -9.0211    0.9686 C   0  0  0  0  0  0  0  0  0  0  0  0
    1.4051   -7.6500    1.1251 C   0  0  0  0  0  0  0  0  0  0  0  0
    1.4868   -7.1041    2.3534 C   0  0  0  0  0  0  0  0  0  0  0  0
    0.9740  -10.2562    4.5561 C   0  0  0  0  0  0  0  0  0  0  0  0
    0.8495  -11.7039    4.0242 C   0  0  0  0  0  0  0  0  0  0  0  0
   -0.3292  -12.2077    3.5933 C   0  0  0  0  0  0  0  0  0  0  0  0
   -0.3744  -13.3790    2.9409 C   0  0  0  0  0  0  0  0  0  0  0  0
    0.8826  -14.1003    2.7027 C   0  0  0  0  0  0  0  0  0  0  0  0
    2.0609  -13.5956    3.2576 C   0  0  0  0  0  0  0  0  0  0  0  0
    2.0931  -12.3778    3.7293 C   0  0  0  0  0  0  0  0  0  0  0  0
    0.7395  -15.3597    2.1223 Cl  0  0  0  0  0  0  0  0  0  0  0  0
    1.0859   -9.5466   -0.5848 Cl  0  0  0  0  0  0  0  0  0  0  0  0
    1.5722   -5.6707    2.6131 C   0  0  0  0  0  0  0  0  0  0  0  0
    1.2909   -4.8017    1.6297 O   0  0  0  0  0  0  0  0  0  0  0  0
  2  7  1  0
  7  8  1  0
 11 14  1  0
  4 15  1  0
  6 16  1  0
 16 17  2  0
  1  2  2  0
  2  3  1  0
  3  4  2  0
  4  5  1  0
  5  6  2  0
  1  6  1  0
  8  9  2  0
  9 10  1  0
 10 11  2  0
 11 12  1  0
 12 13  2  0
  8 13  1  0
M  END

$$$$
No_2723-/export/home/yangzhenyu/potential_scad_32_flow//YTHDC2/2024-12-06-03-22-00/
     RDKit          3D

 16 17  0  0  1  0  0  0  0  0999 V2000
    1.1787   -8.0297    3.5154 C   0  0  0  0  0  0  0  0  0  0  0  0
    1.1048   -9.2215    3.2892 C   0  0  0  0  0  0  0  0  0  0  0  0
    1.3627  -10.1721    4.3044 C   0  0  0  0  0  0  0  0  0  0  0  0
    1.0682  -11.5187    4.0618 C   0  0  0  0  0  0  0  0  0  0  0  0
    0.6332  -11.9655    2.9682 C   0  0  0  0  0  0  0  0  0  0  0  0
    0.4776  -11.1308    1.9203 C   0  0  0  0  0  0  0  0  0  0  0  0
    0.7470   -9.8274    2.0368 C   0  0  0  0  0  0  0  0  0  0  0  0
    1.0387   -7.0301    2.5175 C   0  0  2  0  0  0  0  0  0  0  0  0
    0.9130   -7.5288    1.2013 C   0  0  0  0  0  0  0  0  0  0  0  0
    0.7893   -8.7979    0.9542 C   0  0  2  0  0  0  0  0  0  0  0  0
    0.5241   -9.2578   -0.2817 C   0  0  0  0  0  0  0  0  0  0  0  0
   -0.1121   -8.6523   -1.0898 O   0  0  0  0  0  0  0  0  0  0  0  0
    0.4916  -13.3676    2.6814 Cl  0  0  0  0  0  0  0  0  0  0  0  0
    1.0700  -10.2615   -0.7865 O   0  0  0  0  0  0  0  0  0  0  0  0
    1.0877   -5.3513    2.6886 Cl  0  0  0  0  0  0  0  0  0  0  0  0
    0.6909   -6.6606    0.3242 O   0  0  0  0  0  0  0  0  0  0  0  0
  1  2  1  0
  8  9  1  0
  7 10  1  0
  9 10  1  0
 10 11  1  1
 11 12  2  0
  5 13  1  0
 11 14  1  0
  8 15  1  6
  9 16  2  0
  1  8  1  0
  2  3  2  0
  3  4  1  0
  4  5  2  0
  5  6  1  0
  6  7  2  0
  2  7  1  0
M  END

$$$$
No_2724-/export/home/yangzhenyu/potential_scad_32_flow//YTHDC2/2024-12-06-03-22-00/
     RDKit          3D

 18 19  0  0  0  0  0  0  0  0999 V2000
    1.1787   -8.0297    3.5154 C   0  0  0  0  0  0  0  0  0  0  0  0
    1.0491   -6.8434    2.9820 C   0  0  0  0  0  0  0  0  0  0  0  0
    0.0950   -8.8404    3.2292 C   0  0  0  0  0  0  0  0  0  0  0  0
   -0.9173   -8.4596    2.5152 C   0  0  0  0  0  0  0  0  0  0  0  0
   -1.0331   -7.2162    2.0653 C   0  0  0  0  0  0  0  0  0  0  0  0
   -0.0105   -6.3168    2.3081 C   0  0  0  0  0  0  0  0  0  0  0  0
    0.1465  -10.2446    3.6981 C   0  0  0  0  0  0  0  0  0  0  0  0
    0.1907  -11.3369    2.8651 C   0  0  0  0  0  0  0  0  0  0  0  0
    1.0128  -11.8996    2.5974 C   0  0  0  0  0  0  0  0  0  0  0  0
    1.2328  -13.0891    1.8129 C   0  0  0  0  0  0  0  0  0  0  0  0
    0.1831  -13.5436    1.2817 C   0  0  0  0  0  0  0  0  0  0  0  0
   -0.9583  -12.9140    1.3153 C   0  0  0  0  0  0  0  0  0  0  0  0
   -1.0325  -11.7940    2.1538 C   0  0  0  0  0  0  0  0  0  0  0  0
    0.0368   -4.7927    1.8437 I   0  0  0  0  0  0  0  0  0  0  0  0
   -0.0325  -10.4661    5.0369 O   0  0  0  0  0  0  0  0  0  0  0  0
   -2.3266  -11.2218    2.2925 C   0  0  0  0  0  0  0  0  0  0  0  0
   -3.0565  -10.7444    1.4676 C   0  0  0  0  0  0  0  0  0  0  0  0
   -4.3831  -10.2483    1.5812 C   0  0  0  0  0  0  0  0  0  0  0  0
  3  7  1  0
  7  8  1  0
  6 14  1  0
  7 15  2  0
 13 16  1  0
 16 17  2  3
 17 18  1  0
  1  2  2  0
  2  6  1  0
  5  6  2  0
  4  5  1  0
  3  4  2  0
  1  3  1  0
  8  9  2  0
  9 10  1  0
 10 11  2  0
 11 12  1  0
 12 13  2  0
  8 13  1  0
M  END

$$$$
No_2725-/export/home/yangzhenyu/potential_scad_32_flow//YTHDC2/2024-12-06-03-22-00/
     RDKit          3D

 19 19  0  0  0  0  0  0  0  0999 V2000
    1.1787   -8.0297    3.5154 N   0  0  0  0  0  0  0  0  0  0  0  0
    0.8669   -7.0905    2.8589 C   0  0  0  0  0  0  0  0  0  0  0  0
    0.8842   -5.8387    3.2677 N   0  0  0  0  0  0  0  0  0  0  0  0
    0.7046   -7.3396    1.4853 C   0  0  0  0  0  0  0  0  0  0  0  0
    1.3141   -9.3038    3.0097 C   0  0  0  0  0  0  0  0  0  0  0  0
    1.1146   -9.5822    1.7111 C   0  0  0  0  0  0  0  0  0  0  0  0
    0.7727   -8.5907    0.9223 C   0  0  0  0  0  0  0  0  0  0  0  0
    0.6246   -8.8003   -0.4078 C   0  0  0  0  0  0  0  0  0  0  0  0
    1.2575  -10.8716    1.2610 C   0  0  0  0  0  0  0  0  0  0  0  0
    0.6408  -11.7979    1.5081 C   0  0  0  0  0  0  0  0  0  0  0  0
    0.8173  -13.2770    1.1603 C   0  0  0  0  0  0  0  0  0  0  0  0
    0.0766  -13.8192    0.3530 C   0  0  0  0  0  0  0  0  0  0  0  0
   -0.8406  -13.0517   -0.4975 C   0  0  0  0  0  0  0  0  0  0  0  0
   -1.0997  -11.7824   -0.1652 C   0  0  0  0  0  0  0  0  0  0  0  0
   -2.3017  -11.0832   -0.7584 C   0  0  0  0  0  0  0  0  0  0  0  0
   -2.6743   -9.9478   -0.0357 C   0  0  0  0  0  0  0  0  0  0  0  0
   -0.7311   -8.8291   -0.9664 O   0  0  0  0  0  0  0  0  0  0  0  0
    1.5012   -8.9209   -1.2846 O   0  0  0  0  0  0  0  0  0  0  0  0
   -3.6397   -9.1929   -0.6224 C   0  0  0  0  0  0  0  0  0  0  0  0
  2  3  1  0
  7  8  1  0
  6  9  1  0
  9 10  2  3
 10 11  1  0
 11 12  2  3
 12 13  1  0
 13 14  2  3
 14 15  1  0
 15 16  2  3
  8 17  1  0
  8 18  2  0
 16 19  1  0
  1  2  2  0
  2  4  1  0
  4  7  2  0
  6  7  1  0
  5  6  2  0
  1  5  1  0
M  END

$$$$
No_2726-/export/home/yangzhenyu/potential_scad_32_flow//YTHDC2/2024-12-06-03-22-00/
     RDKit          3D

 18 20  0  0  0  0  0  0  0  0999 V2000
    1.1787   -8.0297    3.5154 C   0  0  0  0  0  0  0  0  0  0  0  0
    1.1048   -9.2215    3.2892 C   0  0  0  0  0  0  0  0  0  0  0  0
    1.3627  -10.1721    4.3044 C   0  0  0  0  0  0  0  0  0  0  0  0
    1.0682  -11.5187    4.0618 C   0  0  0  0  0  0  0  0  0  0  0  0
    0.6332  -11.9655    2.9682 C   0  0  0  0  0  0  0  0  0  0  0  0
    0.4776  -11.1308    1.9203 C   0  0  0  0  0  0  0  0  0  0  0  0
    0.7470   -9.8274    2.0368 C   0  0  0  0  0  0  0  0  0  0  0  0
    1.0387   -7.0301    2.5175 C   0  0  0  0  0  0  0  0  0  0  0  0
    0.9130   -7.5288    1.2013 C   0  0  0  0  0  0  0  0  0  0  0  0
    0.7893   -8.7979    0.9542 C   0  0  0  0  0  0  0  0  0  0  0  0
    0.3998  -13.3695    2.7114 C   0  0  0  0  0  0  0  0  0  0  0  0
   -0.8069  -13.8090    2.3159 N   0  0  0  0  0  0  0  0  0  0  0  0
    1.4017  -14.3211    2.9658 C   0  0  0  0  0  0  0  0  0  0  0  0
    1.1409  -15.6516    2.8006 C   0  0  0  0  0  0  0  0  0  0  0  0
   -0.0214  -16.0906    2.3602 C   0  0  0  0  0  0  0  0  0  0  0  0
   -0.9732  -15.1097    2.1532 C   0  0  0  0  0  0  0  0  0  0  0  0
    0.4345   -9.2953   -0.5072 C   0  0  0  0  0  0  0  0  0  0  0  0
   -0.8217   -9.6803   -0.6942 N   0  0  0  0  0  0  0  0  0  0  0  0
  5 11  1  0
 10 17  1  0
 17 18  1  0
  2  3  1  0
  3  4  2  0
  4  5  1  0
  5  6  2  0
  6  7  1  0
  1  2  2  0
  2  7  1  0
  7 10  2  0
  9 10  1  0
  8  9  2  0
  1  8  1  0
 11 12  2  0
 12 16  1  0
 15 16  2  0
 14 15  1  0
 13 14  2  0
 11 13  1  0
M  END

$$$$
No_2727-/export/home/yangzhenyu/potential_scad_32_flow//YTHDC2/2024-12-06-03-22-00/
     RDKit          3D

 20 22  0  0  0  0  0  0  0  0999 V2000
    1.1787   -8.0297    3.5154 C   0  0  0  0  0  0  0  0  0  0  0  0
    1.0491   -6.8434    2.9820 C   0  0  0  0  0  0  0  0  0  0  0  0
    0.9905   -9.0774    2.6527 C   0  0  0  0  0  0  0  0  0  0  0  0
    0.7897   -8.9519    1.3691 C   0  0  0  0  0  0  0  0  0  0  0  0
    0.8824   -7.5617    0.9293 C   0  0  0  0  0  0  0  0  0  0  0  0
    1.0828   -6.5260    1.6856 C   0  0  0  0  0  0  0  0  0  0  0  0
    0.9624  -10.5603    3.2589 C   0  0  0  0  0  0  0  0  0  0  0  0
    2.0223  -11.0393    3.6922 C   0  0  0  0  0  0  0  0  0  0  0  0
    1.0577   -5.1923    1.2832 C   0  0  0  0  0  0  0  0  0  0  0  0
    2.0075  -12.4019    4.0019 C   0  0  0  0  0  0  0  0  0  0  0  0
    1.0265  -13.1708    3.5808 C   0  0  0  0  0  0  0  0  0  0  0  0
    0.8355  -14.5214    3.6972 C   0  0  0  0  0  0  0  0  0  0  0  0
   -0.0967  -15.2195    3.1364 C   0  0  0  0  0  0  0  0  0  0  0  0
   -1.1068  -14.5173    2.6028 C   0  0  0  0  0  0  0  0  0  0  0  0
   -1.1712  -13.2664    2.4088 C   0  0  0  0  0  0  0  0  0  0  0  0
   -0.0773  -12.4913    2.9493 C   0  0  0  0  0  0  0  0  0  0  0  0
   -0.0796  -11.2591    2.8680 C   0  0  0  0  0  0  0  0  0  0  0  0
    0.0090   -4.7349    0.6491 O   0  0  0  0  0  0  0  0  0  0  0  0
    1.9649   -4.3245    1.5193 O   0  0  0  0  0  0  0  0  0  0  0  0
   -0.1573  -16.6502    3.3206 Cl  0  0  0  0  0  0  0  0  0  0  0  0
  3  7  1  0
  6  9  1  0
  9 18  2  0
  9 19  1  0
 13 20  1  0
 11 12  1  0
 12 13  2  0
 13 14  1  0
 14 15  2  0
 15 16  1  0
  1  2  2  0
  2  6  1  0
  5  6  2  0
  4  5  1  0
  3  4  2  0
  1  3  1  0
  7  8  2  0
  8 10  1  0
 10 11  2  0
 11 16  1  0
 16 17  2  0
  7 17  1  0
M  END

$$$$
No_2728-/export/home/yangzhenyu/potential_scad_32_flow//YTHDC2/2024-12-06-03-22-00/
     RDKit          3D

 18 18  0  0  1  0  0  0  0  0999 V2000
    1.1787   -8.0297    3.5154 O   0  0  0  0  0  0  0  0  0  0  0  0
    0.9969   -8.9689    3.0048 C   0  0  2  0  0  0  0  0  0  0  0  0
    0.9976   -8.9567    1.6341 C   0  0  0  0  0  0  0  0  0  0  0  0
    1.6062   -9.9071    0.9292 C   0  0  0  0  0  0  0  0  0  0  0  0
    1.9085   -9.8086   -0.3950 C   0  0  0  0  0  0  0  0  0  0  0  0
    0.6705  -10.0870    3.6248 C   0  0  0  0  0  0  0  0  0  0  0  0
    1.1778   -8.8673   -1.2613 O   0  0  0  0  0  0  0  0  0  0  0  0
    1.7940  -10.9623    3.9830 C   0  0  0  0  0  0  0  0  0  0  0  0
    1.5938  -12.3405    3.9233 C   0  0  0  0  0  0  0  0  0  0  0  0
    0.2226  -12.7325    3.8326 C   0  0  0  0  0  0  0  0  0  0  0  0
   -0.7867  -11.9371    3.5384 C   0  0  0  0  0  0  0  0  0  0  0  0
   -0.5426  -10.4985    3.5055 C   0  0  0  0  0  0  0  0  0  0  0  0
    1.4145   -6.7384    2.8396 C   0  0  0  0  0  0  0  0  0  0  0  0
   -1.3990   -9.6611    4.2494 C   0  0  0  0  0  0  0  0  0  0  0  0
   -2.2192   -9.0558    4.2067 F   0  0  0  0  0  0  0  0  0  0  0  0
   -1.3130   -9.8931    5.6643 F   0  0  0  0  0  0  0  0  0  0  0  0
    2.7829  -10.1802   -1.1502 Cl  0  0  0  0  0  0  0  0  0  0  0  0
    3.1400  -10.4764    4.1116 Cl  0  0  0  0  0  0  0  0  0  0  0  0
  2  1  1  1
  2  3  1  0
  3  4  2  3
  4  5  1  0
  2  6  1  0
  5  7  2  0
  1 13  1  0
 12 14  1  0
 14 15  1  0
 14 16  1  0
  5 17  1  0
  8 18  1  0
  6  8  2  0
  8  9  1  0
  9 10  2  0
 10 11  1  0
 11 12  2  0
  6 12  1  0
M  END

$$$$
No_2729-/export/home/yangzhenyu/potential_scad_32_flow//YTHDC2/2024-12-06-03-22-00/
     RDKit          3D

 19 20  0  0  1  0  0  0  0  0999 V2000
    1.1787   -8.0297    3.5154 C   0  0  0  0  0  0  0  0  0  0  0  0
    1.0491   -6.8434    2.9820 C   0  0  0  0  0  0  0  0  0  0  0  0
    0.9905   -9.0774    2.6527 C   0  0  0  0  0  0  0  0  0  0  0  0
    0.7897   -8.9519    1.3691 C   0  0  0  0  0  0  0  0  0  0  0  0
    0.7018   -7.7198    0.7892 C   0  0  0  0  0  0  0  0  0  0  0  0
    0.8918   -6.5957    1.6117 C   0  0  0  0  0  0  0  0  0  0  0  0
    1.0774  -10.6059    3.3145 C   0  0  0  0  0  0  0  0  0  0  0  0
   -0.1032  -11.1934    3.4585 C   0  0  2  0  0  0  0  0  0  0  0  0
   -1.2292  -10.4461    3.8202 C   0  0  0  0  0  0  0  0  0  0  0  0
   -1.2824   -9.6328    4.9527 C   0  0  0  0  0  0  0  0  0  0  0  0
   -2.3466   -8.8188    5.2878 C   0  0  0  0  0  0  0  0  0  0  0  0
   -3.4133   -8.9099    4.5761 C   0  0  0  0  0  0  0  0  0  0  0  0
   -3.5080   -9.6451    3.4883 C   0  0  0  0  0  0  0  0  0  0  0  0
   -2.4510  -10.4626    3.0878 C   0  0  0  0  0  0  0  0  0  0  0  0
   -0.1171  -12.5009    3.4480 C   0  0  0  0  0  0  0  0  0  0  0  0
    0.4527  -13.2132    2.6422 C   0  0  0  0  0  0  0  0  0  0  0  0
    1.1236  -12.5991    1.5039 C   0  0  0  0  0  0  0  0  0  0  0  0
    0.5465  -14.7640    2.7250 C   0  0  0  0  0  0  0  0  0  0  0  0
    1.9185  -15.2455    2.6527 C   0  0  0  0  0  0  0  0  0  0  0  0
  3  7  1  0
  8  7  1  1
  8  9  1  0
  8 15  1  0
 15 16  2  3
 16 17  1  0
 16 18  1  0
 18 19  1  0
  1  2  2  0
  2  6  1  0
  5  6  2  0
  4  5  1  0
  3  4  2  0
  1  3  1  0
  9 10  2  0
 10 11  1  0
 11 12  2  0
 12 13  1  0
 13 14  2  0
  9 14  1  0
M  END

$$$$
No_2730-/export/home/yangzhenyu/potential_scad_32_flow//YTHDC2/2024-12-06-03-22-00/
     RDKit          3D

 18 20  0  0  0  0  0  0  0  0999 V2000
    1.1787   -8.0297    3.5154 C   0  0  0  0  0  0  0  0  0  0  0  0
    1.0491   -6.8434    2.9820 C   0  0  0  0  0  0  0  0  0  0  0  0
    0.9905   -9.0774    2.6527 C   0  0  0  0  0  0  0  0  0  0  0  0
    0.7897   -8.9519    1.3691 C   0  0  0  0  0  0  0  0  0  0  0  0
    0.7018   -7.7198    0.7892 C   0  0  0  0  0  0  0  0  0  0  0  0
    0.8918   -6.5957    1.6117 C   0  0  0  0  0  0  0  0  0  0  0  0
    1.0711  -10.4814    3.2282 C   0  0  0  0  0  0  0  0  0  0  0  0
   -0.1055  -11.1328    3.5223 C   0  0  0  0  0  0  0  0  0  0  0  0
   -0.1824  -12.4513    3.3816 C   0  0  0  0  0  0  0  0  0  0  0  0
    0.9472  -13.2655    3.1726 C   0  0  0  0  0  0  0  0  0  0  0  0
    2.1715  -12.6012    2.9116 C   0  0  0  0  0  0  0  0  0  0  0  0
    2.2064  -11.2741    2.8264 C   0  0  0  0  0  0  0  0  0  0  0  0
    0.9212  -14.7926    3.2458 C   0  0  0  0  0  0  0  0  0  0  0  0
    2.0083  -15.4106    2.7289 C   0  0  0  0  0  0  0  0  0  0  0  0
    1.9824  -16.8163    2.8270 C   0  0  0  0  0  0  0  0  0  0  0  0
    1.1731  -17.6827    3.3034 C   0  0  0  0  0  0  0  0  0  0  0  0
    0.1150  -17.0706    3.8516 C   0  0  0  0  0  0  0  0  0  0  0  0
   -0.0370  -15.6486    3.8238 C   0  0  0  0  0  0  0  0  0  0  0  0
  3  7  1  0
 10 13  1  0
 13 14  2  0
 14 15  1  0
 15 16  2  0
 16 17  1  0
 17 18  2  0
 13 18  1  0
  1  2  2  0
  2  6  1  0
  5  6  2  0
  4  5  1  0
  3  4  2  0
  1  3  1  0
  7  8  2  0
  8  9  1  0
  9 10  2  0
 10 11  1  0
 11 12  2  0
  7 12  1  0
M  END

$$$$
No_2731-/export/home/yangzhenyu/potential_scad_32_flow//YTHDC2/2024-12-06-03-22-00/
     RDKit          3D

 18 18  0  0  1  0  0  0  0  0999 V2000
    1.1787   -8.0297    3.5154 C   0  0  0  0  0  0  0  0  0  0  0  0
    1.1048   -9.2215    3.2892 C   0  0  0  0  0  0  0  0  0  0  0  0
    1.2339   -9.7611    2.0189 C   0  0  0  0  0  0  0  0  0  0  0  0
    1.3583   -9.0036    0.9764 C   0  0  0  0  0  0  0  0  0  0  0  0
    1.5996   -7.6362    1.1311 C   0  0  0  0  0  0  0  0  0  0  0  0
    1.4830   -7.0928    2.3626 C   0  0  0  0  0  0  0  0  0  0  0  0
    1.5395   -5.7300    2.6182 C   0  0  0  0  0  0  0  0  0  0  0  0
    1.1775  -11.2233    1.8407 C   0  0  1  0  0  0  0  0  0  0  0  0
    0.7252  -11.5870    0.5413 C   0  0  0  0  0  0  0  0  0  0  0  0
   -0.5181  -12.2492    0.6137 C   0  0  0  0  0  0  0  0  0  0  0  0
   -1.4841  -11.7416   -0.0226 C   0  0  0  0  0  0  0  0  0  0  0  0
   -1.3318  -10.7913   -0.8181 O   0  0  0  0  0  0  0  0  0  0  0  0
   -2.6370  -12.3939   -0.0639 O   0  0  0  0  0  0  0  0  0  0  0  0
    0.6240   -4.8982    2.7691 O   0  0  0  0  0  0  0  0  0  0  0  0
    0.8208   -3.5045    3.0746 C   0  0  0  0  0  0  0  0  0  0  0  0
    1.7811  -11.9835    2.7251 C   0  0  0  0  0  0  0  0  0  0  0  0
    1.9863  -11.7755    3.9015 C   0  0  0  0  0  0  0  0  0  0  0  0
    1.9582  -13.4232    2.3050 C   0  0  0  0  0  0  0  0  0  0  0  0
  6  7  1  0
  3  8  1  0
  8  9  1  6
  9 10  1  0
 10 11  1  0
 11 12  2  0
 11 13  1  0
  7 14  1  0
 14 15  1  0
  8 16  1  0
 16 17  2  0
 16 18  1  0
  1  2  2  0
  2  3  1  0
  3  4  2  0
  4  5  1  0
  5  6  2  0
  1  6  1  0
M  END

$$$$
No_2732-/export/home/yangzhenyu/potential_scad_32_flow//YTHDC2/2024-12-06-03-22-00/
     RDKit          3D

 18 19  0  0  1  0  0  0  0  0999 V2000
    1.1787   -8.0297    3.5154 C   0  0  0  0  0  0  0  0  0  0  0  0
    1.1048   -9.2215    3.2892 C   0  0  0  0  0  0  0  0  0  0  0  0
    1.3627  -10.1721    4.3044 C   0  0  0  0  0  0  0  0  0  0  0  0
    2.3720  -10.8948    4.2468 C   0  0  0  0  0  0  0  0  0  0  0  0
    0.8234   -7.0464    2.5717 C   0  0  0  0  0  0  0  0  0  0  0  0
    0.4328   -7.4736    1.3042 C   0  0  0  0  0  0  0  0  0  0  0  0
    0.3532   -8.7488    0.9919 C   0  0  0  0  0  0  0  0  0  0  0  0
    0.7039   -9.7094    1.9672 C   0  0  0  0  0  0  0  0  0  0  0  0
    0.4096  -10.9489    1.8134 C   0  0  0  0  0  0  0  0  0  0  0  0
   -0.6852  -11.6033    2.2197 C   0  0  1  0  0  0  0  0  0  0  0  0
   -1.7801  -10.9380    2.5095 C   0  0  0  0  0  0  0  0  0  0  0  0
   -0.9413  -12.9711    1.9475 Cl  0  0  0  0  0  0  0  0  0  0  0  0
   -2.0781  -10.1580    3.3455 C   0  0  0  0  0  0  0  0  0  0  0  0
   -3.2173   -9.5245    3.8432 C   0  0  0  0  0  0  0  0  0  0  0  0
   -4.2711   -9.6262    3.1138 C   0  0  0  0  0  0  0  0  0  0  0  0
   -4.2333  -10.5809    2.1256 C   0  0  0  0  0  0  0  0  0  0  0  0
   -3.0440  -11.2088    1.7683 C   0  0  0  0  0  0  0  0  0  0  0  0
    1.4247  -11.6622    1.1137 O   0  0  0  0  0  0  0  0  0  0  0  0
  2  3  1  0
  3  4  1  0
  8  9  1  0
  9 10  1  0
 10 11  1  0
 10 12  1  6
  9 18  2  0
  1  2  2  0
  2  8  1  0
  7  8  2  0
  6  7  1  0
  5  6  2  0
  1  5  1  0
 11 13  2  0
 13 14  1  0
 14 15  2  0
 15 16  1  0
 16 17  2  0
 11 17  1  0
M  END

$$$$
No_2733-/export/home/yangzhenyu/potential_scad_32_flow//YTHDC2/2024-12-06-03-22-00/
     RDKit          3D

 18 19  0  0  0  0  0  0  0  0999 V2000
    1.1787   -8.0297    3.5154 C   0  0  0  0  0  0  0  0  0  0  0  0
    1.0491   -6.8434    2.9820 C   0  0  0  0  0  0  0  0  0  0  0  0
    0.9905   -9.0774    2.6527 C   0  0  0  0  0  0  0  0  0  0  0  0
    0.7897   -8.9519    1.3691 C   0  0  0  0  0  0  0  0  0  0  0  0
    0.7018   -7.7198    0.7892 C   0  0  0  0  0  0  0  0  0  0  0  0
    0.8918   -6.5957    1.6117 C   0  0  0  0  0  0  0  0  0  0  0  0
    1.0774  -10.6059    3.3145 C   0  0  0  0  0  0  0  0  0  0  0  0
   -0.1032  -11.1934    3.4585 C   0  0  0  0  0  0  0  0  0  0  0  0
   -0.1482  -12.5102    3.2815 C   0  0  0  0  0  0  0  0  0  0  0  0
    0.9780  -13.3047    3.1595 C   0  0  0  0  0  0  0  0  0  0  0  0
    2.2344  -12.6017    3.0053 C   0  0  0  0  0  0  0  0  0  0  0  0
    2.2469  -11.2898    2.9555 C   0  0  0  0  0  0  0  0  0  0  0  0
    0.9724  -14.6796    3.1903 O   0  0  0  0  0  0  0  0  0  0  0  0
    0.8124   -5.0842    1.0161 O   0  0  0  0  0  0  0  0  0  0  0  0
    1.9455  -15.3767    2.6191 C   0  0  0  0  0  0  0  0  0  0  0  0
   -0.3182   -4.4723    1.2471 C   0  0  0  0  0  0  0  0  0  0  0  0
    1.5814  -16.3584    1.9043 C   0  0  0  0  0  0  0  0  0  0  0  0
    2.5686  -17.2983    1.6278 O   0  0  0  0  0  0  0  0  0  0  0  0
  3  7  1  0
 10 13  1  0
  6 14  1  0
 13 15  1  0
 14 16  1  0
 15 17  1  0
 17 18  2  0
  1  2  2  0
  2  6  1  0
  5  6  2  0
  4  5  1  0
  3  4  2  0
  1  3  1  0
  7  8  2  0
  8  9  1  0
  9 10  2  0
 10 11  1  0
 11 12  2  0
  7 12  1  0
M  END

$$$$
No_2734-/export/home/yangzhenyu/potential_scad_32_flow//YTHDC2/2024-12-06-03-22-00/
     RDKit          3D

 17 18  0  0  0  0  0  0  0  0999 V2000
    1.1787   -8.0297    3.5154 C   0  0  0  0  0  0  0  0  0  0  0  0
    1.0491   -6.8434    2.9820 C   0  0  0  0  0  0  0  0  0  0  0  0
    0.9905   -9.0774    2.6527 C   0  0  0  0  0  0  0  0  0  0  0  0
    0.7897   -8.9519    1.3691 C   0  0  0  0  0  0  0  0  0  0  0  0
    0.7018   -7.7198    0.7892 C   0  0  0  0  0  0  0  0  0  0  0  0
    0.8918   -6.5957    1.6117 C   0  0  0  0  0  0  0  0  0  0  0  0
    1.0600  -10.5680    3.3321 C   0  0  0  0  0  0  0  0  0  0  0  0
   -0.1041  -11.1772    3.5150 C   0  0  0  0  0  0  0  0  0  0  0  0
   -1.2204  -10.4119    3.8534 C   0  0  0  0  0  0  0  0  0  0  0  0
    0.8704   -5.2520    1.1771 C   0  0  0  0  0  0  0  0  0  0  0  0
   -2.2673  -10.6712    3.7529 C   0  0  0  0  0  0  0  0  0  0  0  0
   -2.3912  -12.1279    3.2753 C   0  0  0  0  0  0  0  0  0  0  0  0
   -1.5076  -12.8851    2.8386 C   0  0  0  0  0  0  0  0  0  0  0  0
   -0.1649  -12.4202    2.9618 C   0  0  0  0  0  0  0  0  0  0  0  0
    2.3408  -10.8894    3.5650 C   0  0  0  0  0  0  0  0  0  0  0  0
    1.5904   -4.3074    1.8482 C   0  0  0  0  0  0  0  0  0  0  0  0
    1.5001   -2.9323    1.3743 C   0  0  0  0  0  0  0  0  0  0  0  0
  3  7  1  0
  7  8  1  0
  6 10  1  0
  7 15  1  0
 10 16  2  3
 16 17  1  0
  1  2  2  0
  2  6  1  0
  5  6  2  0
  4  5  1  0
  3  4  2  0
  1  3  1  0
  8  9  2  0
  9 11  1  0
 11 12  2  0
 12 13  1  0
 13 14  2  0
  8 14  1  0
M  END

$$$$
No_2735-/export/home/yangzhenyu/potential_scad_32_flow//YTHDC2/2024-12-06-03-22-00/
     RDKit          3D

 17 18  0  0  1  0  0  0  0  0999 V2000
    1.1787   -8.0297    3.5154 C   0  0  0  0  0  0  0  0  0  0  0  0
    1.1048   -9.2215    3.2892 C   0  0  0  0  0  0  0  0  0  0  0  0
    1.2339   -9.7611    2.0189 C   0  0  0  0  0  0  0  0  0  0  0  0
    1.3583   -9.0036    0.9764 C   0  0  0  0  0  0  0  0  0  0  0  0
    1.5996   -7.6362    1.1311 C   0  0  0  0  0  0  0  0  0  0  0  0
    1.4830   -7.0928    2.3626 C   0  0  0  0  0  0  0  0  0  0  0  0
    1.1171  -11.3311    1.8661 C   0  0  0  0  0  0  0  0  0  0  0  0
    0.5022  -11.6388    0.6531 O   0  0  0  0  0  0  0  0  0  0  0  0
    1.7772  -12.0491    2.6098 O   0  0  0  0  0  0  0  0  0  0  0  0
    1.5357   -5.6531    2.6439 Cl  0  0  0  0  0  0  0  0  0  0  0  0
    1.6008  -13.4720    2.5098 C   0  0  2  0  0  0  0  0  0  0  0  0
    1.2911  -14.1760    3.7209 C   0  0  0  0  0  0  0  0  0  0  0  0
    1.1174  -15.5788    3.5155 O   0  0  0  0  0  0  0  0  0  0  0  0
    1.6287  -16.0435    2.3012 C   0  0  0  0  0  0  0  0  0  0  0  0
    2.0883  -15.3946    1.5563 C   0  0  0  0  0  0  0  0  0  0  0  0
    2.1293  -13.9702    1.5023 C   0  0  0  0  0  0  0  0  0  0  0  0
    1.6545  -17.6078    2.3693 C   0  0  0  0  0  0  0  0  0  0  0  0
  3  7  1  0
  7  8  2  0
  7  9  1  0
  6 10  1  0
 11  9  1  1
 11 12  1  0
 12 13  1  0
 13 14  1  0
 14 15  2  0
 11 16  1  0
 15 16  1  0
 14 17  1  0
  1  2  2  0
  2  3  1  0
  3  4  2  0
  4  5  1  0
  5  6  2  0
  1  6  1  0
M  END

$$$$
No_2736-/export/home/yangzhenyu/potential_scad_32_flow//YTHDC2/2024-12-06-03-22-00/
     RDKit          3D

 18 19  0  0  0  0  0  0  0  0999 V2000
    1.1787   -8.0297    3.5154 C   0  0  0  0  0  0  0  0  0  0  0  0
    1.1048   -9.2215    3.2892 C   0  0  0  0  0  0  0  0  0  0  0  0
    1.3627  -10.1721    4.3044 C   0  0  0  0  0  0  0  0  0  0  0  0
    1.0682  -11.5187    4.0618 C   0  0  0  0  0  0  0  0  0  0  0  0
    0.6332  -11.9655    2.9682 C   0  0  0  0  0  0  0  0  0  0  0  0
    0.4776  -11.1308    1.9203 C   0  0  0  0  0  0  0  0  0  0  0  0
    0.7470   -9.8274    2.0368 C   0  0  0  0  0  0  0  0  0  0  0  0
    1.0387   -7.0301    2.5175 C   0  0  0  0  0  0  0  0  0  0  0  0
    1.1486   -5.5562    2.7651 C   0  0  0  0  0  0  0  0  0  0  0  0
    0.4389  -13.4263    2.7904 C   0  0  0  0  0  0  0  0  0  0  0  0
   -0.7369  -13.9410    2.4096 N   0  0  0  0  0  0  0  0  0  0  0  0
    1.4856  -14.3316    3.1060 C   0  0  0  0  0  0  0  0  0  0  0  0
    1.2011  -15.6644    3.0265 C   0  0  0  0  0  0  0  0  0  0  0  0
    0.0395  -16.1409    2.6220 C   0  0  0  0  0  0  0  0  0  0  0  0
   -0.9207  -15.1775    2.3264 C   0  0  0  0  0  0  0  0  0  0  0  0
    0.8315   -4.6548    1.9232 C   0  0  0  0  0  0  0  0  0  0  0  0
    1.3538   -3.3058    2.2385 C   0  0  0  0  0  0  0  0  0  0  0  0
    2.1740   -3.1019    3.2926 C   0  0  0  0  0  0  0  0  0  0  0  0
  1  2  1  0
  1  8  2  3
  8  9  1  0
  5 10  1  0
  9 16  1  0
 16 17  2  3
 17 18  1  0
  2  3  2  0
  3  4  1  0
  4  5  2  0
  5  6  1  0
  6  7  2  0
  2  7  1  0
 10 11  2  0
 11 15  1  0
 14 15  2  0
 13 14  1  0
 12 13  2  0
 10 12  1  0
M  END

$$$$
No_2737-/export/home/yangzhenyu/potential_scad_32_flow//YTHDC2/2024-12-06-03-22-00/
     RDKit          3D

 18 18  0  0  1  0  0  0  0  0999 V2000
    1.1787   -8.0297    3.5154 O   0  0  0  0  0  0  0  0  0  0  0  0
    0.6747   -7.4019    2.7838 C   0  0  2  0  0  0  0  0  0  0  0  0
    0.7594   -8.0032    1.4295 C   0  0  0  0  0  0  0  0  0  0  0  0
    0.3459   -9.1500    1.3581 C   0  0  0  0  0  0  0  0  0  0  0  0
   -0.4155   -9.6726    2.0241 C   0  0  0  0  0  0  0  0  0  0  0  0
   -0.6245  -11.1539    1.8966 C   0  0  0  0  0  0  0  0  0  0  0  0
    0.1125  -11.8282    0.9857 C   0  0  0  0  0  0  0  0  0  0  0  0
    1.0109  -11.2152    0.1796 Cl  0  0  0  0  0  0  0  0  0  0  0  0
    1.5863   -7.1864    0.5893 O   0  0  0  0  0  0  0  0  0  0  0  0
   -0.0768  -13.3260    1.0286 C   0  0  0  0  0  0  0  0  0  0  0  0
   -0.4996  -13.9042    2.1070 C   0  0  0  0  0  0  0  0  0  0  0  0
   -1.3555  -14.6498    2.2994 C   0  0  0  0  0  0  0  0  0  0  0  0
   -1.9630  -15.2869    1.2691 C   0  0  0  0  0  0  0  0  0  0  0  0
   -1.4943  -14.8292   -0.0245 C   0  0  0  0  0  0  0  0  0  0  0  0
   -0.6098  -13.8426   -0.1356 C   0  0  0  0  0  0  0  0  0  0  0  0
    1.1415   -5.8987    2.9050 C   0  0  0  0  0  0  0  0  0  0  0  0
    2.0133   -5.4952    3.7751 C   0  0  0  0  0  0  0  0  0  0  0  0
    1.8690   -3.9833    3.7045 O   0  0  0  0  0  0  0  0  0  0  0  0
  2  1  1  1
  2  3  1  0
  3  4  1  0
  4  5  2  3
  5  6  1  0
  6  7  2  3
  7  8  1  0
  3  9  2  0
  7 10  1  0
  2 16  1  0
 16 17  1  0
 17 18  1  0
 10 11  2  0
 11 12  1  0
 12 13  2  0
 13 14  1  0
 14 15  2  0
 10 15  1  0
M  END

$$$$
No_2738-/export/home/yangzhenyu/potential_scad_32_flow//YTHDC2/2024-12-06-03-22-00/
     RDKit          3D

 20 21  0  0  1  0  0  0  0  0999 V2000
    1.1787   -8.0297    3.5154 C   0  0  0  0  0  0  0  0  0  0  0  0
    1.0491   -6.8434    2.9820 C   0  0  1  0  0  0  0  0  0  0  0  0
    1.9985   -8.9840    2.8958 C   0  0  0  0  0  0  0  0  0  0  0  0
    1.7297   -9.2108    1.6335 C   0  0  2  0  0  0  0  0  0  0  0  0
    2.1788  -10.5482    1.1239 C   0  0  0  0  0  0  0  0  0  0  0  0
    0.8226   -6.9903    1.4377 C   0  0  0  0  0  0  0  0  0  0  0  0
    1.5914   -8.1153    0.8208 C   0  0  0  0  0  0  0  0  0  0  0  0
    2.0956  -11.5558    1.8651 O   0  0  0  0  0  0  0  0  0  0  0  0
    2.4381  -10.7048   -0.0726 O   0  0  0  0  0  0  0  0  0  0  0  0
    2.1295   -7.8184   -0.3174 O   0  0  0  0  0  0  0  0  0  0  0  0
    0.3593   -5.7822    3.4754 C   0  0  0  0  0  0  0  0  0  0  0  0
   -0.9626   -5.7287    3.1368 C   0  0  0  0  0  0  0  0  0  0  0  0
   -1.5035   -4.5521    2.7534 C   0  0  1  0  0  0  0  0  0  0  0  0
   -0.5953   -3.3964    2.3673 C   0  0  1  0  0  0  0  0  0  0  0  0
   -1.1543   -2.3174    1.7072 C   0  0  0  0  0  0  0  0  0  0  0  0
   -2.5104   -2.4699    1.3280 C   0  0  0  0  0  0  0  0  0  0  0  0
   -3.3329   -3.4533    1.6542 C   0  0  0  0  0  0  0  0  0  0  0  0
   -2.7965   -4.5472    2.3321 C   0  0  0  0  0  0  0  0  0  0  0  0
   -3.5931   -5.5928    2.7482 O   0  0  0  0  0  0  0  0  0  0  0  0
    0.7368   -3.3248    2.7831 O   0  0  0  0  0  0  0  0  0  0  0  0
  1  2  1  0
  1  3  1  0
  3  4  1  0
  4  5  1  6
  2  6  1  0
  4  7  1  0
  6  7  1  0
  5  8  1  0
  5  9  2  0
  7 10  2  0
  2 11  1  1
 11 12  1  0
 13 14  1  0
 15 16  1  0
 13 18  1  0
 17 18  1  0
 18 19  2  0
 14 20  1  1
 13 12  1  6
 14 15  1  0
 16 17  1  0
M  END

$$$$
No_2739-/export/home/yangzhenyu/potential_scad_32_flow//YTHDC2/2024-12-06-03-22-00/
     RDKit          3D

 20 22  0  0  0  0  0  0  0  0999 V2000
    1.1787   -8.0297    3.5154 C   0  0  0  0  0  0  0  0  0  0  0  0
    1.0491   -6.8434    2.9820 C   0  0  0  0  0  0  0  0  0  0  0  0
    0.0950   -8.8404    3.2292 C   0  0  0  0  0  0  0  0  0  0  0  0
   -0.9173   -8.4596    2.5152 C   0  0  0  0  0  0  0  0  0  0  0  0
   -1.0331   -7.2162    2.0653 C   0  0  0  0  0  0  0  0  0  0  0  0
   -0.0105   -6.3168    2.3081 C   0  0  0  0  0  0  0  0  0  0  0  0
    0.1465  -10.2446    3.6981 C   0  0  0  0  0  0  0  0  0  0  0  0
   -1.0336  -10.8619    3.9439 C   0  0  0  0  0  0  0  0  0  0  0  0
   -2.1702  -10.4673    3.2991 C   0  0  0  0  0  0  0  0  0  0  0  0
   -2.1358   -9.2084    2.5791 C   0  0  0  0  0  0  0  0  0  0  0  0
   -0.0074   -4.7440    1.7754 C   0  0  0  0  0  0  0  0  0  0  0  0
   -0.5331   -4.6907    0.6135 C   0  0  0  0  0  0  0  0  0  0  0  0
   -0.6659   -3.3048    0.2609 C   0  0  0  0  0  0  0  0  0  0  0  0
    0.0757   -2.2832    0.8018 C   0  0  0  0  0  0  0  0  0  0  0  0
    0.9141   -2.5744    1.8339 C   0  0  0  0  0  0  0  0  0  0  0  0
    0.8372   -3.8964    2.3915 C   0  0  0  0  0  0  0  0  0  0  0  0
    1.5263  -10.7714    4.6020 O   0  0  0  0  0  0  0  0  0  0  0  0
    2.3406  -11.4143    3.6887 C   0  0  0  0  0  0  0  0  0  0  0  0
    1.5899   -4.1645    3.5295 C   0  0  0  0  0  0  0  0  0  0  0  0
   -1.4149   -3.0832   -0.9826 Cl  0  0  0  0  0  0  0  0  0  0  0  0
  6 11  1  0
  7 17  1  0
 17 18  1  0
 16 19  1  0
 13 20  1  0
 11 12  2  0
 12 13  1  0
 13 14  2  0
 14 15  1  0
 15 16  2  0
 11 16  1  0
  4 10  2  0
  9 10  1  0
  8  9  2  0
  7  8  1  0
  3  7  2  0
  1  2  2  0
  2  6  1  0
  5  6  2  0
  4  5  1  0
  3  4  1  0
  1  3  1  0
M  END

$$$$
No_2740-/export/home/yangzhenyu/potential_scad_32_flow//YTHDC2/2024-12-06-03-22-00/
     RDKit          3D

 18 20  0  0  1  0  0  0  0  0999 V2000
    1.1787   -8.0297    3.5154 C   0  0  0  0  0  0  0  0  0  0  0  0
    1.0491   -6.8434    2.9820 C   0  0  0  0  0  0  0  0  0  0  0  0
    1.9985   -8.9840    2.8958 C   0  0  0  0  0  0  0  0  0  0  0  0
    1.7297   -9.2108    1.6335 C   0  0  0  0  0  0  0  0  0  0  0  0
    1.7343   -8.0566    0.8408 C   0  0  1  0  0  0  0  0  0  0  0  0
    1.4996   -6.5076    2.0364 C   0  0  0  0  0  0  0  0  0  0  0  0
    1.5802   -6.8584    0.8700 C   0  0  0  0  0  0  0  0  0  0  0  0
    2.2270   -8.5830   -0.6071 F   0  0  0  0  0  0  0  0  0  0  0  0
    2.3400  -10.2491    3.5504 C   0  0  0  0  0  0  0  0  0  0  0  0
    1.8261  -11.4121    3.3401 C   0  0  0  0  0  0  0  0  0  0  0  0
    0.6969  -11.4968    2.6314 C   0  0  0  0  0  0  0  0  0  0  0  0
    0.9132  -10.4717    1.4348 C   0  0  0  0  0  0  0  0  0  0  0  0
    0.4564  -12.8795    2.0862 C   0  0  1  0  0  0  0  0  0  0  0  0
    1.2245  -13.8608    2.3764 N   0  0  0  0  0  0  0  0  0  0  0  0
    0.7923  -15.0989    1.8675 C   0  0  0  0  0  0  0  0  0  0  0  0
   -0.3462  -15.2404    1.4214 N   0  0  0  0  0  0  0  0  0  0  0  0
   -0.7955  -13.8311    1.3666 C   0  0  0  0  0  0  0  0  0  0  0  0
    1.6090  -16.3152    2.2320 C   0  0  0  0  0  0  0  0  0  0  0  0
  1  2  1  0
  1  3  1  0
  4  5  1  0
  2  6  2  0
  5  7  1  0
  6  7  1  0
  5  8  1  1
 13 11  1  1
 13 14  1  0
 14 15  2  0
 15 16  1  0
 13 17  1  0
 16 17  1  0
 15 18  1  0
  3  4  2  0
  4 12  1  0
 11 12  2  0
 10 11  1  0
  9 10  2  0
  3  9  1  0
M  END

$$$$
No_2741-/export/home/yangzhenyu/potential_scad_32_flow//YTHDC2/2024-12-06-03-22-00/
     RDKit          3D

 19 20  0  0  0  0  0  0  0  0999 V2000
    1.1787   -8.0297    3.5154 C   0  0  0  0  0  0  0  0  0  0  0  0
    1.0491   -6.8434    2.9820 C   0  0  0  0  0  0  0  0  0  0  0  0
    0.9905   -9.0774    2.6527 C   0  0  0  0  0  0  0  0  0  0  0  0
    0.7897   -8.9519    1.3691 C   0  0  0  0  0  0  0  0  0  0  0  0
    0.7018   -7.7198    0.7892 C   0  0  0  0  0  0  0  0  0  0  0  0
    0.8918   -6.5957    1.6117 C   0  0  0  0  0  0  0  0  0  0  0  0
    1.0711  -10.4814    3.2282 C   0  0  0  0  0  0  0  0  0  0  0  0
   -0.1055  -11.1328    3.5223 C   0  0  0  0  0  0  0  0  0  0  0  0
   -0.1824  -12.4513    3.3816 C   0  0  0  0  0  0  0  0  0  0  0  0
    0.9472  -13.2655    3.1726 C   0  0  0  0  0  0  0  0  0  0  0  0
    2.1715  -12.6012    2.9116 C   0  0  0  0  0  0  0  0  0  0  0  0
    2.2064  -11.2741    2.8264 N   0  0  0  0  0  0  0  0  0  0  0  0
    0.9595  -14.8279    3.2517 C   0  0  0  0  0  0  0  0  0  0  0  0
    1.9490  -15.4047    2.6165 C   0  0  0  0  0  0  0  0  0  0  0  0
    1.9368  -16.8323    2.7521 C   0  0  0  0  0  0  0  0  0  0  0  0
    1.1953  -17.6912    3.3661 N   0  0  0  0  0  0  0  0  0  0  0  0
    3.2071  -17.3887    2.0829 O   0  0  0  0  0  0  0  0  0  0  0  0
    0.8490   -5.2721    1.1116 C   0  0  0  0  0  0  0  0  0  0  0  0
    0.3697  -17.3839    3.8601 H   0  0  0  0  0  0  0  0  0  0  0  0
  3  7  1  0
 10 13  1  0
 13 14  2  3
 14 15  1  0
 15 16  2  0
 15 17  1  0
  6 18  1  0
  1  2  2  0
  2  6  1  0
  5  6  2  0
  4  5  1  0
  3  4  2  0
  1  3  1  0
  7  8  2  0
  8  9  1  0
  9 10  2  0
 10 11  1  0
 11 12  2  0
  7 12  1  0
 16 19  1  0
M  END

$$$$
No_2742-/export/home/yangzhenyu/potential_scad_32_flow//YTHDC2/2024-12-06-03-22-00/
     RDKit          3D

 18 19  0  0  0  0  0  0  0  0999 V2000
    1.1787   -8.0297    3.5154 C   0  0  0  0  0  0  0  0  0  0  0  0
    1.0491   -6.8434    2.9820 C   0  0  0  0  0  0  0  0  0  0  0  0
    0.9905   -9.0774    2.6527 C   0  0  0  0  0  0  0  0  0  0  0  0
    0.7897   -8.9519    1.3691 C   0  0  0  0  0  0  0  0  0  0  0  0
    0.7018   -7.7198    0.7892 C   0  0  0  0  0  0  0  0  0  0  0  0
    0.8918   -6.5957    1.6117 C   0  0  0  0  0  0  0  0  0  0  0  0
    1.0600  -10.5680    3.3321 C   0  0  0  0  0  0  0  0  0  0  0  0
   -0.1041  -11.1773    3.5150 C   0  0  0  0  0  0  0  0  0  0  0  0
   -1.2204  -10.4119    3.8534 C   0  0  0  0  0  0  0  0  0  0  0  0
    0.8704   -5.2520    1.1771 C   0  0  0  0  0  0  0  0  0  0  0  0
   -2.2673  -10.6712    3.7529 C   0  0  0  0  0  0  0  0  0  0  0  0
   -3.4472   -9.9490    4.3144 C   0  0  0  0  0  0  0  0  0  0  0  0
   -2.9994   -8.7247    4.9610 C   0  0  0  0  0  0  0  0  0  0  0  0
   -1.7715   -8.2787    5.0564 C   0  0  0  0  0  0  0  0  0  0  0  0
   -0.7291   -9.1586    4.6673 C   0  0  0  0  0  0  0  0  0  0  0  0
   -0.0606  -12.4996    3.3646 C   0  0  0  0  0  0  0  0  0  0  0  0
    0.6371  -13.1043    2.5808 C   0  0  0  0  0  0  0  0  0  0  0  0
    0.9007  -14.5958    2.5414 C   0  0  0  0  0  0  0  0  0  0  0  0
  3  7  1  0
  7  8  1  0
  8  9  1  0
  6 10  1  0
  8 16  1  0
 16 17  2  3
 17 18  1  0
  1  2  2  0
  2  6  1  0
  5  6  2  0
  4  5  1  0
  3  4  2  0
  1  3  1  0
  9 11  2  0
 11 12  1  0
 12 13  2  0
 13 14  1  0
 14 15  2  0
  9 15  1  0
M  END

$$$$
No_2743-/export/home/yangzhenyu/potential_scad_32_flow//YTHDC2/2024-12-06-03-22-00/
     RDKit          3D

 18 20  0  0  0  0  0  0  0  0999 V2000
    1.1787   -8.0297    3.5154 C   0  0  0  0  0  0  0  0  0  0  0  0
    1.0491   -6.8434    2.9820 C   0  0  0  0  0  0  0  0  0  0  0  0
    0.0950   -8.8404    3.2292 C   0  0  0  0  0  0  0  0  0  0  0  0
   -0.9173   -8.4596    2.5152 C   0  0  0  0  0  0  0  0  0  0  0  0
   -1.0331   -7.2162    2.0653 C   0  0  0  0  0  0  0  0  0  0  0  0
   -0.0105   -6.3168    2.3081 C   0  0  0  0  0  0  0  0  0  0  0  0
    0.1150   -4.9910    1.8495 C   0  0  0  0  0  0  0  0  0  0  0  0
    0.9121   -4.1017    2.4010 C   0  0  0  0  0  0  0  0  0  0  0  0
    0.1290  -10.2853    3.6695 C   0  0  0  0  0  0  0  0  0  0  0  0
    1.1742  -10.9478    4.0915 C   0  0  0  0  0  0  0  0  0  0  0  0
    1.0656  -12.3272    4.3450 C   0  0  0  0  0  0  0  0  0  0  0  0
    0.2639  -13.0498    3.5359 C   0  0  0  0  0  0  0  0  0  0  0  0
   -0.7479  -12.4168    2.9959 C   0  0  0  0  0  0  0  0  0  0  0  0
   -0.8824  -11.0478    3.0179 C   0  0  0  0  0  0  0  0  0  0  0  0
   -0.5345   -4.5423    0.6897 C   0  0  0  0  0  0  0  0  0  0  0  0
   -0.6078   -3.2968    0.3201 C   0  0  0  0  0  0  0  0  0  0  0  0
    0.2493   -2.3161    1.0063 C   0  0  0  0  0  0  0  0  0  0  0  0
    1.0532   -2.7423    2.0002 C   0  0  0  0  0  0  0  0  0  0  0  0
  6  7  1  0
  3  9  1  0
  1  2  2  0
  2  6  1  0
  5  6  2  0
  4  5  1  0
  3  4  2  0
  1  3  1  0
  9 10  2  0
 10 11  1  0
 11 12  2  0
 12 13  1  0
 13 14  2  0
  9 14  1  0
  7  8  2  0
  8 18  1  0
 17 18  2  0
 16 17  1  0
 15 16  2  0
  7 15  1  0
M  END

$$$$
No_2744-/export/home/yangzhenyu/potential_scad_32_flow//YTHDC2/2024-12-06-03-22-00/
     RDKit          3D

 18 20  0  0  0  0  0  0  0  0999 V2000
    1.1787   -8.0297    3.5154 C   0  0  0  0  0  0  0  0  0  0  0  0
    1.1048   -9.2215    3.2892 C   0  0  0  0  0  0  0  0  0  0  0  0
    1.3627  -10.1721    4.3044 C   0  0  0  0  0  0  0  0  0  0  0  0
    1.0682  -11.5187    4.0618 C   0  0  0  0  0  0  0  0  0  0  0  0
    0.6332  -11.9655    2.9682 C   0  0  0  0  0  0  0  0  0  0  0  0
    0.4776  -11.1308    1.9203 C   0  0  0  0  0  0  0  0  0  0  0  0
    0.7470   -9.8274    2.0368 C   0  0  0  0  0  0  0  0  0  0  0  0
    1.0387   -7.0301    2.5175 C   0  0  0  0  0  0  0  0  0  0  0  0
    0.9130   -7.5288    1.2013 C   0  0  0  0  0  0  0  0  0  0  0  0
    0.7893   -8.7979    0.9542 C   0  0  0  0  0  0  0  0  0  0  0  0
    0.5241   -9.2578   -0.2817 C   0  0  0  0  0  0  0  0  0  0  0  0
   -0.1121   -8.6523   -1.0898 O   0  0  0  0  0  0  0  0  0  0  0  0
    0.4916  -13.3676    2.6814 C   0  0  0  0  0  0  0  0  0  0  0  0
   -0.7278  -13.8133    2.2836 C   0  0  0  0  0  0  0  0  0  0  0  0
    1.2041  -14.4210    3.3926 C   0  0  0  0  0  0  0  0  0  0  0  0
    1.0658  -15.7266    3.1163 C   0  0  0  0  0  0  0  0  0  0  0  0
    0.0309  -16.1291    2.4414 C   0  0  0  0  0  0  0  0  0  0  0  0
   -0.8977  -15.1091    1.9752 C   0  0  0  0  0  0  0  0  0  0  0  0
 10 11  1  0
 11 12  2  0
  5 13  1  0
  2  3  1  0
  3  4  2  0
  4  5  1  0
  5  6  2  0
  6  7  1  0
 13 14  2  0
 14 18  1  0
 17 18  2  0
 16 17  1  0
 15 16  2  0
 13 15  1  0
  1  2  2  0
  2  7  1  0
  7 10  2  0
  9 10  1  0
  8  9  2  0
  1  8  1  0
M  END

$$$$
No_2745-/export/home/yangzhenyu/potential_scad_32_flow//YTHDC2/2024-12-06-03-22-00/
     RDKit          3D

 17 17  0  0  0  0  0  0  0  0999 V2000
    1.1787   -8.0297    3.5154 C   0  0  0  0  0  0  0  0  0  0  0  0
    1.1048   -9.2215    3.2892 C   0  0  0  0  0  0  0  0  0  0  0  0
    1.2339   -9.7611    2.0189 C   0  0  0  0  0  0  0  0  0  0  0  0
    1.3583   -9.0036    0.9764 C   0  0  0  0  0  0  0  0  0  0  0  0
    1.7077   -9.6100   -0.3010 C   0  0  0  0  0  0  0  0  0  0  0  0
    1.3637   -7.1087    2.3226 C   0  0  0  0  0  0  0  0  0  0  0  0
    1.4257   -7.6645    1.0231 C   0  0  0  0  0  0  0  0  0  0  0  0
    1.6722  -10.7840   -0.4044 O   0  0  0  0  0  0  0  0  0  0  0  0
    1.4862   -8.9147   -1.4018 O   0  0  0  0  0  0  0  0  0  0  0  0
    1.1383  -10.1804    4.3877 O   0  0  0  0  0  0  0  0  0  0  0  0
    1.3152   -5.4024    2.6427 C   0  0  0  0  0  0  0  0  0  0  0  0
    1.0508  -11.6244    4.1721 C   0  0  0  0  0  0  0  0  0  0  0  0
    1.4575   -5.1720    3.8096 O   0  0  0  0  0  0  0  0  0  0  0  0
    1.3820   -4.7749    1.5811 O   0  0  0  0  0  0  0  0  0  0  0  0
    2.2808  -12.2689    4.1005 C   0  0  0  0  0  0  0  0  0  0  0  0
    2.1346  -13.5204    3.3002 C   0  0  0  0  0  0  0  0  0  0  0  0
    1.3469  -13.3460    2.2011 C   0  0  0  0  0  0  0  0  0  0  0  0
  4  5  1  0
  5  8  2  0
  5  9  1  0
  2 10  1  0
  6 11  1  0
 10 12  1  0
 11 13  1  0
 11 14  2  0
 12 15  1  0
 15 16  1  0
 16 17  1  0
  1  2  2  0
  2  3  1  0
  3  4  2  0
  4  7  1  0
  6  7  2  0
  1  6  1  0
M  END

$$$$
No_2746-/export/home/yangzhenyu/potential_scad_32_flow//YTHDC2/2024-12-06-03-22-00/
     RDKit          3D

 16 17  0  0  0  0  0  0  0  0999 V2000
    1.1787   -8.0297    3.5154 N   0  0  0  0  0  0  0  0  0  0  0  0
    1.0818   -9.0751    3.2053 C   0  0  0  0  0  0  0  0  0  0  0  0
    1.5216  -10.1164    3.9747 C   0  0  0  0  0  0  0  0  0  0  0  0
    1.7650  -11.2320    3.5712 C   0  0  0  0  0  0  0  0  0  0  0  0
    1.4277  -11.6899    2.3702 C   0  0  0  0  0  0  0  0  0  0  0  0
    1.0443  -10.7313    1.4783 C   0  0  0  0  0  0  0  0  0  0  0  0
    0.9294   -9.4471    1.8469 C   0  0  0  0  0  0  0  0  0  0  0  0
    0.3366   -8.5108    1.0081 C   0  0  0  0  0  0  0  0  0  0  0  0
    0.8384   -8.4333   -0.2510 C   0  0  0  0  0  0  0  0  0  0  0  0
   -0.0136   -7.9469   -1.2717 C   0  0  0  0  0  0  0  0  0  0  0  0
   -1.2967   -7.9913   -1.2287 C   0  0  0  0  0  0  0  0  0  0  0  0
   -1.7755   -8.0778    0.1863 C   0  0  0  0  0  0  0  0  0  0  0  0
   -3.2185   -7.9592    0.3840 C   0  0  0  0  0  0  0  0  0  0  0  0
   -0.9212   -8.1994    1.2098 C   0  0  0  0  0  0  0  0  0  0  0  0
    1.6583  -13.3156    1.9747 C   0  0  0  0  0  0  0  0  0  0  0  0
    2.1761  -13.9514    2.8534 C   0  0  0  0  0  0  0  0  0  0  0  0
  1  2  1  0
  7  8  1  0
 12 13  1  0
  5 15  1  0
 15 16  1  0
  2  3  2  0
  3  4  1  0
  4  5  2  0
  5  6  1  0
  6  7  2  0
  2  7  1  0
  8  9  2  0
  9 10  1  0
 10 11  2  0
 11 12  1  0
 12 14  2  0
  8 14  1  0
M  END

$$$$
No_2747-/export/home/yangzhenyu/potential_scad_32_flow//YTHDC2/2024-12-06-03-22-00/
     RDKit          3D

 17 18  0  0  0  0  0  0  0  0999 V2000
    1.1787   -8.0297    3.5154 C   0  0  0  0  0  0  0  0  0  0  0  0
    1.1048   -9.2215    3.2892 C   0  0  0  0  0  0  0  0  0  0  0  0
    1.3627  -10.1721    4.3044 Br  0  0  0  0  0  0  0  0  0  0  0  0
    0.9334   -6.8883    2.5517 C   0  0  0  0  0  0  0  0  0  0  0  0
    0.7773   -7.3570    1.2473 C   0  0  0  0  0  0  0  0  0  0  0  0
    0.6692   -8.6268    0.9370 C   0  0  0  0  0  0  0  0  0  0  0  0
    0.8664   -9.6065    1.8721 C   0  0  0  0  0  0  0  0  0  0  0  0
    0.7853  -10.9445    1.6470 C   0  0  0  0  0  0  0  0  0  0  0  0
   -0.4157  -11.4525    1.2934 C   0  0  0  0  0  0  0  0  0  0  0  0
   -0.4875  -12.8709    0.9120 C   0  0  0  0  0  0  0  0  0  0  0  0
    0.6945  -13.6853    0.9677 C   0  0  0  0  0  0  0  0  0  0  0  0
    1.9051  -13.0446    1.1450 C   0  0  0  0  0  0  0  0  0  0  0  0
    2.0193  -11.7164    1.4341 C   0  0  0  0  0  0  0  0  0  0  0  0
    1.1326   -5.2982    2.9310 Cl  0  0  0  0  0  0  0  0  0  0  0  0
    0.6961  -14.9868    0.5620 C   0  0  0  0  0  0  0  0  0  0  0  0
   -0.1947  -15.6512    0.9294 C   0  0  0  0  0  0  0  0  0  0  0  0
   -1.1303  -15.3988    1.8141 C   0  0  0  0  0  0  0  0  0  0  0  0
  2  3  1  0
  7  8  1  0
  4 14  1  0
 11 15  1  0
 15 16  2  3
 16 17  1  0
  1  2  2  0
  2  7  1  0
  6  7  2  0
  5  6  1  0
  4  5  2  0
  1  4  1  0
  8  9  2  0
  9 10  1  0
 10 11  2  0
 11 12  1  0
 12 13  2  0
  8 13  1  0
M  END

$$$$
No_2748-/export/home/yangzhenyu/potential_scad_32_flow//YTHDC2/2024-12-06-03-22-00/
     RDKit          3D

 17 18  0  0  1  0  0  0  0  0999 V2000
    1.1787   -8.0297    3.5154 C   0  0  0  0  0  0  0  0  0  0  0  0
    1.1048   -9.2215    3.2892 C   0  0  0  0  0  0  0  0  0  0  0  0
    1.2339   -9.7611    2.0189 C   0  0  1  0  0  0  0  0  0  0  0  0
    1.1954  -11.2312    1.8661 C   0  0  0  0  0  0  0  0  0  0  0  0
    1.5546  -12.1691    2.7931 C   0  0  0  0  0  0  0  0  0  0  0  0
    0.9527   -7.0669    2.3918 C   0  0  2  0  0  0  0  0  0  0  0  0
    1.0618   -7.6392    1.0692 C   0  0  0  0  0  0  0  0  0  0  0  0
    1.2060   -8.9530    0.8578 C   0  0  0  0  0  0  0  0  0  0  0  0
    1.5159  -13.5011    2.3738 C   0  0  0  0  0  0  0  0  0  0  0  0
    1.1409  -13.8990    1.1908 C   0  0  0  0  0  0  0  0  0  0  0  0
    0.9249  -13.0546    0.2183 C   0  0  0  0  0  0  0  0  0  0  0  0
    0.9227  -11.6707    0.5316 C   0  0  0  0  0  0  0  0  0  0  0  0
    1.0078   -5.6071    2.4628 Cl  0  0  0  0  0  0  0  0  0  0  0  0
    1.4283   -9.3783   -0.3605 O   0  0  0  0  0  0  0  0  0  0  0  0
    1.9457  -14.5260    3.6361 O   0  0  0  0  0  0  0  0  0  0  0  0
    1.9506  -15.8295    3.1246 C   0  0  0  0  0  0  0  0  0  0  0  0
    0.7334  -16.5035    3.5322 C   0  0  0  0  0  0  0  0  0  0  0  0
  1  2  1  0
  3  4  1  6
  6  7  1  0
  3  8  1  0
  7  8  1  0
  6 13  1  6
  8 14  2  0
  9 15  1  0
 15 16  1  0
 16 17  1  0
  2  3  1  0
  1  6  1  0
  4  5  2  0
  5  9  1  0
  9 10  2  0
 10 11  1  0
 11 12  2  0
  4 12  1  0
M  END

$$$$
No_2749-/export/home/yangzhenyu/potential_scad_32_flow//YTHDC2/2024-12-06-03-22-00/
     RDKit          3D

 18 18  0  0  1  0  0  0  0  0999 V2000
    1.1787   -8.0297    3.5154 C   0  0  0  0  0  0  0  0  0  0  0  0
    1.0491   -6.8434    2.9820 Br  0  0  0  0  0  0  0  0  0  0  0  0
    0.9353   -9.2296    2.6511 C   0  0  2  0  0  0  0  0  0  0  0  0
    0.8775   -9.2156    1.4186 C   0  0  0  0  0  0  0  0  0  0  0  0
    1.9979   -9.1720    0.6280 C   0  0  0  0  0  0  0  0  0  0  0  0
    2.0950   -9.1979   -0.3694 O   0  0  0  0  0  0  0  0  0  0  0  0
    3.1761   -9.5262    1.2532 O   0  0  0  0  0  0  0  0  0  0  0  0
   -0.2568  -10.0003    3.2952 C   0  0  2  0  0  0  0  0  0  0  0  0
   -0.5415  -11.1931    3.2778 N   0  0  0  0  0  0  0  0  0  0  0  0
   -1.6610  -11.7463    3.1052 C   0  0  0  0  0  0  0  0  0  0  0  0
   -2.7007  -10.9172    3.3543 C   0  0  0  0  0  0  0  0  0  0  0  0
   -2.5211   -9.5872    3.7261 C   0  0  0  0  0  0  0  0  0  0  0  0
   -1.2936   -9.1239    3.6691 C   0  0  0  0  0  0  0  0  0  0  0  0
    0.6663  -12.1345    2.8104 C   0  0  0  0  0  0  0  0  0  0  0  0
    1.7593  -12.1483    3.7404 O   0  0  0  0  0  0  0  0  0  0  0  0
    0.4966  -13.3835    2.3111 N   0  0  0  0  0  0  0  0  0  0  0  0
    1.5424  -14.3671    2.3165 C   0  0  0  0  0  0  0  0  0  0  0  0
    2.3168  -14.4823    1.1807 C   0  0  0  0  0  0  0  0  0  0  0  0
  1  2  1  0
  3  1  1  1
  3  4  1  0
  4  5  1  0
  5  6  2  0
  5  7  1  0
  3  8  1  0
  8  9  1  0
  9 10  1  0
 11 12  1  0
  8 13  1  6
  9 14  1  0
 14 15  2  0
 14 16  1  0
 16 17  1  0
 17 18  1  0
 12 13  1  0
 10 11  1  0
M  END

$$$$
No_2750-/export/home/yangzhenyu/potential_scad_32_flow//YTHDC2/2024-12-06-03-22-00/
     RDKit          3D

 17 18  0  0  1  0  0  0  0  0999 V2000
    1.1787   -8.0297    3.5154 C   0  0  0  0  0  0  0  0  0  0  0  0
    1.1048   -9.2215    3.2892 P   0  0  2  0  0  0  0  0  0  0  0  0
    0.3106   -9.8009    2.8787 C   0  0  0  0  0  0  0  0  0  0  0  0
    0.6660   -7.0082    2.4799 C   0  0  0  0  0  0  0  0  0  0  0  0
   -0.1407   -7.6077    1.6430 C   0  0  0  0  0  0  0  0  0  0  0  0
   -0.4558   -9.0167    1.6580 C   0  0  0  0  0  0  0  0  0  0  0  0
    1.4862   -9.9844    4.7493 O   0  0  0  0  0  0  0  0  0  0  0  0
   -0.7340   -6.8450    0.6684 F   0  0  0  0  0  0  0  0  0  0  0  0
    1.0313   -5.6191    2.4611 C   0  0  0  0  0  0  0  0  0  0  0  0
    2.5791   -9.8200    2.5644 C   0  0  0  0  0  0  0  0  0  0  0  0
    1.3517   -5.0890    1.2787 C   0  0  0  0  0  0  0  0  0  0  0  0
    1.1480   -3.7897    1.2179 C   0  0  0  0  0  0  0  0  0  0  0  0
    1.2014   -2.9043    2.1218 C   0  0  0  0  0  0  0  0  0  0  0  0
    1.0326   -3.3808    3.3975 C   0  0  0  0  0  0  0  0  0  0  0  0
    1.0445   -4.7816    3.5375 C   0  0  0  0  0  0  0  0  0  0  0  0
   -0.3874  -11.1214    2.9849 O   0  0  0  0  0  0  0  0  0  0  0  0
    1.3476   -1.2847    1.9303 Cl  0  0  0  0  0  0  0  0  0  0  0  0
  1  2  1  0
  2  3  1  0
  1  4  2  0
  4  5  1  0
  3  6  1  0
  5  6  1  0
  2  7  2  0
  5  8  1  0
  4  9  1  0
  2 10  1  6
  3 16  2  0
 13 17  1  0
  9 11  2  0
 11 12  1  0
 12 13  2  0
 13 14  1  0
 14 15  2  0
  9 15  1  0
M  END

$$$$
No_2751-/export/home/yangzhenyu/potential_scad_32_flow//YTHDC2/2024-12-06-03-22-00/
     RDKit          3D

 18 19  0  0  0  0  0  0  0  0999 V2000
    1.1787   -8.0297    3.5154 C   0  0  0  0  0  0  0  0  0  0  0  0
    1.1048   -9.2215    3.2892 C   0  0  0  0  0  0  0  0  0  0  0  0
    1.3627  -10.1721    4.3044 C   0  0  0  0  0  0  0  0  0  0  0  0
    1.7354  -11.4730    3.9024 C   0  0  0  0  0  0  0  0  0  0  0  0
    1.8080  -11.8127    2.7216 N   0  0  0  0  0  0  0  0  0  0  0  0
    1.6163  -11.0258    1.7554 C   0  0  0  0  0  0  0  0  0  0  0  0
    1.3973   -9.7755    1.9269 C   0  0  0  0  0  0  0  0  0  0  0  0
    1.3839   -8.9010    0.8794 C   0  0  0  0  0  0  0  0  0  0  0  0
    0.8216   -7.6607    1.0143 C   0  0  0  0  0  0  0  0  0  0  0  0
    0.8921   -7.0954    2.2942 C   0  0  0  0  0  0  0  0  0  0  0  0
    0.6894   -5.6879    2.5093 C   0  0  0  0  0  0  0  0  0  0  0  0
   -0.4445   -5.0978    2.0829 C   0  0  0  0  0  0  0  0  0  0  0  0
   -0.6129   -3.6795    2.1817 N   0  0  0  0  0  0  0  0  0  0  0  0
    1.5058   -9.3590   -0.3909 C   0  0  0  0  0  0  0  0  0  0  0  0
    2.5689   -9.9479   -0.7475 O   0  0  0  0  0  0  0  0  0  0  0  0
    0.7034   -9.0871   -1.3361 Cl  0  0  0  0  0  0  0  0  0  0  0  0
   -1.3098   -5.7462    1.2172 C   0  0  0  0  0  0  0  0  0  0  0  0
   -1.9644   -4.9699    0.3217 C   0  0  0  0  0  0  0  0  0  0  0  0
 10 11  1  0
 11 12  2  3
 12 13  1  0
  8 14  1  0
 14 15  2  0
 14 16  1  0
 12 17  1  0
 17 18  2  0
  1  2  2  0
  7  8  2  0
  8  9  1  0
  9 10  2  0
  1 10  1  0
  2  3  1  0
  3  4  2  0
  4  5  1  0
  5  6  2  0
  6  7  1  0
  2  7  1  0
M  END

$$$$
No_2752-/export/home/yangzhenyu/potential_scad_32_flow//YTHDC2/2024-12-06-03-22-00/
     RDKit          3D

 19 19  0  0  1  0  0  0  0  0999 V2000
    1.1787   -8.0297    3.5154 C   0  0  0  0  0  0  0  0  0  0  0  0
    1.0491   -6.8434    2.9820 C   0  0  0  0  0  0  0  0  0  0  0  0
    0.9905   -9.0774    2.6527 C   0  0  0  0  0  0  0  0  0  0  0  0
    0.7897   -8.9519    1.3691 C   0  0  0  0  0  0  0  0  0  0  0  0
    0.7018   -7.7198    0.7892 C   0  0  0  0  0  0  0  0  0  0  0  0
    0.8918   -6.5957    1.6117 C   0  0  0  0  0  0  0  0  0  0  0  0
    1.0998  -10.4710    3.2437 C   0  0  0  0  0  0  0  0  0  0  0  0
    2.1917  -10.8879    3.7399 N   0  0  0  0  0  0  0  0  0  0  0  0
    0.8894   -5.2522    1.2117 C   0  0  0  0  0  0  0  0  0  0  0  0
    0.0775  -11.2484    3.3189 O   0  0  0  0  0  0  0  0  0  0  0  0
    0.2377   -4.2943    2.0392 C   0  0  1  0  0  0  0  0  0  0  0  0
    1.0162   -3.3932    2.6473 C   0  0  0  0  0  0  0  0  0  0  0  0
    2.0842   -3.3736    2.7400 C   0  0  0  0  0  0  0  0  0  0  0  0
   -1.1511   -4.1641    1.6608 C   0  0  0  0  0  0  0  0  0  0  0  0
   -1.5606   -4.1361    0.3773 O   0  0  0  0  0  0  0  0  0  0  0  0
   -2.1339   -4.0611    2.5496 O   0  0  0  0  0  0  0  0  0  0  0  0
    2.3478  -12.1437    4.4313 C   0  0  0  0  0  0  0  0  0  0  0  0
    2.2828  -13.1441    3.2947 C   0  0  0  0  0  0  0  0  0  0  0  0
    1.2154  -13.4154    2.6570 C   0  0  0  0  0  0  0  0  0  0  0  0
  3  7  1  0
  7  8  1  0
  6  9  1  0
  7 10  2  0
 11  9  1  6
 11 12  1  0
 12 13  2  0
 11 14  1  0
 14 15  2  0
 14 16  1  0
  8 17  1  0
 17 18  1  0
 18 19  1  0
  1  2  2  0
  2  6  1  0
  5  6  2  0
  4  5  1  0
  3  4  2  0
  1  3  1  0
M  END

$$$$
No_2753-/export/home/yangzhenyu/potential_scad_32_flow//YTHDC2/2024-12-06-03-22-00/
     RDKit          3D

 16 16  0  0  1  0  0  0  0  0999 V2000
    1.1787   -8.0297    3.5154 C   0  0  0  0  0  0  0  0  0  0  0  0
    1.1048   -9.2215    3.2892 C   0  0  0  0  0  0  0  0  0  0  0  0
    1.2339   -9.7611    2.0189 C   0  0  0  0  0  0  0  0  0  0  0  0
    1.3583   -9.0036    0.9764 C   0  0  0  0  0  0  0  0  0  0  0  0
    1.5996   -7.6362    1.1311 C   0  0  0  0  0  0  0  0  0  0  0  0
    1.4830   -7.0928    2.3626 C   0  0  0  0  0  0  0  0  0  0  0  0
    1.1008  -11.2372    1.8542 C   0  0  1  0  0  0  0  0  0  0  0  0
    0.4812  -11.6084    0.6459 C   0  0  0  0  0  0  0  0  0  0  0  0
   -0.3691  -10.9312    0.0124 C   0  0  0  0  0  0  0  0  0  0  0  0
   -1.0102  -11.3797   -1.1447 C   0  0  0  0  0  0  0  0  0  0  0  0
   -1.7633  -10.5197   -1.9537 O   0  0  0  0  0  0  0  0  0  0  0  0
   -1.0793  -12.5858   -1.5190 O   0  0  0  0  0  0  0  0  0  0  0  0
    1.6831  -11.9927    2.7237 C   0  0  0  0  0  0  0  0  0  0  0  0
    1.8617  -11.8073    3.9482 C   0  0  0  0  0  0  0  0  0  0  0  0
    2.1559  -13.3425    2.1808 O   0  0  0  0  0  0  0  0  0  0  0  0
    1.5684   -5.6887    2.6668 Cl  0  0  0  0  0  0  0  0  0  0  0  0
  3  7  1  0
  7  8  1  0
  8  9  2  3
  9 10  1  0
 10 11  2  0
 10 12  1  0
  7 13  1  6
 13 14  2  0
 13 15  1  0
  6 16  1  0
  1  2  2  0
  2  3  1  0
  3  4  2  0
  4  5  1  0
  5  6  2  0
  1  6  1  0
M  END

$$$$
No_2754-/export/home/yangzhenyu/potential_scad_32_flow//YTHDC2/2024-12-06-03-22-00/
     RDKit          3D

 18 18  0  0  1  0  0  0  0  0999 V2000
    1.1787   -8.0297    3.5154 C   0  0  0  0  0  0  0  0  0  0  0  0
    1.1048   -9.2215    3.2892 C   0  0  0  0  0  0  0  0  0  0  0  0
    1.2339   -9.7611    2.0189 C   0  0  0  0  0  0  0  0  0  0  0  0
    1.3583   -9.0036    0.9764 C   0  0  0  0  0  0  0  0  0  0  0  0
    1.5996   -7.6362    1.1311 C   0  0  0  0  0  0  0  0  0  0  0  0
    1.4830   -7.0928    2.3626 C   0  0  0  0  0  0  0  0  0  0  0  0
    1.4898   -5.7274    2.6199 C   0  0  0  0  0  0  0  0  0  0  0  0
    1.1681  -11.2222    1.8390 C   0  0  1  0  0  0  0  0  0  0  0  0
    0.7145  -11.5870    0.5424 C   0  0  0  0  0  0  0  0  0  0  0  0
   -0.1922  -10.9837   -0.0791 C   0  0  0  0  0  0  0  0  0  0  0  0
    1.7315  -12.0566    2.7056 C   0  0  0  0  0  0  0  0  0  0  0  0
    0.8589  -12.8979    3.2425 C   0  0  0  0  0  0  0  0  0  0  0  0
    1.1120  -14.2964    3.1093 C   0  0  0  0  0  0  0  0  0  0  0  0
    0.2194  -15.3577    3.3130 O   0  0  0  0  0  0  0  0  0  0  0  0
    2.3902  -14.7811    2.8118 O   0  0  0  0  0  0  0  0  0  0  0  0
    1.2720   -4.8727    1.6003 O   0  0  0  0  0  0  0  0  0  0  0  0
    1.4617   -5.1698    3.8795 O   0  0  0  0  0  0  0  0  0  0  0  0
   -0.8324  -11.5395   -1.2388 C   0  0  0  0  0  0  0  0  0  0  0  0
  6  7  1  0
  3  8  1  0
  8  9  1  0
  9 10  2  3
  8 11  1  6
 11 12  1  0
 12 13  1  0
 13 14  1  0
 13 15  2  0
  7 16  2  0
  7 17  1  0
 10 18  1  0
  1  2  2  0
  2  3  1  0
  3  4  2  0
  4  5  1  0
  5  6  2  0
  1  6  1  0
M  END

$$$$
No_2755-/export/home/yangzhenyu/potential_scad_32_flow//YTHDC2/2024-12-06-03-22-00/
     RDKit          3D

 18 19  0  0  0  0  0  0  0  0999 V2000
    1.1787   -8.0297    3.5154 C   0  0  0  0  0  0  0  0  0  0  0  0
    1.0491   -6.8434    2.9820 C   0  0  0  0  0  0  0  0  0  0  0  0
    0.0950   -8.8404    3.2292 C   0  0  0  0  0  0  0  0  0  0  0  0
   -0.9173   -8.4596    2.5152 C   0  0  0  0  0  0  0  0  0  0  0  0
   -1.0331   -7.2162    2.0653 C   0  0  0  0  0  0  0  0  0  0  0  0
   -0.0105   -6.3168    2.3081 C   0  0  0  0  0  0  0  0  0  0  0  0
    0.1150   -4.9910    1.8495 C   0  0  0  0  0  0  0  0  0  0  0  0
    0.9121   -4.1017    2.4010 N   0  0  0  0  0  0  0  0  0  0  0  0
   -0.4360   -4.5348    0.7258 N   0  0  0  0  0  0  0  0  0  0  0  0
    0.1744  -10.2755    3.6686 C   0  0  0  0  0  0  0  0  0  0  0  0
   -1.0091  -10.8978    3.9954 C   0  0  0  0  0  0  0  0  0  0  0  0
    1.4155  -10.8674    4.1413 C   0  0  0  0  0  0  0  0  0  0  0  0
    1.5239  -12.2469    4.2157 C   0  0  0  0  0  0  0  0  0  0  0  0
    0.3711  -12.9735    4.0407 C   0  0  0  0  0  0  0  0  0  0  0  0
   -2.2832  -10.3706    3.8886 C   0  0  0  0  0  0  0  0  0  0  0  0
   -0.8558  -12.3417    3.9325 C   0  0  0  0  0  0  0  0  0  0  0  0
   -0.8588   -3.5795    0.6111 C   0  0  0  0  0  0  0  0  0  0  0  0
    1.4317   -4.3373    3.2344 H   0  0  0  0  0  0  0  0  0  0  0  0
  6  7  1  0
  7  8  2  0
  7  9  1  0
  3 10  1  0
 11 15  1  0
  9 17  2  0
 10 11  2  0
 11 16  1  0
 14 16  2  0
 13 14  1  0
 12 13  2  0
 10 12  1  0
  1  2  2  0
  2  6  1  0
  5  6  2  0
  4  5  1  0
  3  4  2  0
  1  3  1  0
  8 18  1  0
M  END

$$$$
No_2756-/export/home/yangzhenyu/potential_scad_32_flow//YTHDC2/2024-12-06-03-22-00/
     RDKit          3D

 17 17  0  0  0  0  0  0  0  0999 V2000
    1.1787   -8.0297    3.5154 C   0  0  0  0  0  0  0  0  0  0  0  0
    1.1048   -9.2215    3.2892 C   0  0  0  0  0  0  0  0  0  0  0  0
    1.2339   -9.7611    2.0189 C   0  0  0  0  0  0  0  0  0  0  0  0
    1.1954  -11.2312    1.8661 C   0  0  0  0  0  0  0  0  0  0  0  0
    1.5546  -12.1691    2.7931 C   0  0  0  0  0  0  0  0  0  0  0  0
    0.9527   -7.0669    2.3918 C   0  0  0  0  0  0  0  0  0  0  0  0
    1.0618   -7.6392    1.0692 C   0  0  0  0  0  0  0  0  0  0  0  0
    1.2060   -8.9530    0.8578 C   0  0  0  0  0  0  0  0  0  0  0  0
    0.8228  -13.3051    2.8966 C   0  0  0  0  0  0  0  0  0  0  0  0
    1.4445  -14.5593    2.7508 C   0  0  0  0  0  0  0  0  0  0  0  0
    0.9746   -5.6154    2.4611 C   0  0  0  0  0  0  0  0  0  0  0  0
    0.6183  -15.7529    3.0552 C   0  0  0  0  0  0  0  0  0  0  0  0
    1.3644  -16.8716    3.5455 C   0  0  0  0  0  0  0  0  0  0  0  0
    2.6521  -17.1025    3.0357 C   0  0  0  0  0  0  0  0  0  0  0  0
    0.1962   -4.8947    1.7457 N   0  0  0  0  0  0  0  0  0  0  0  0
    1.9954   -4.8949    3.1152 O   0  0  0  0  0  0  0  0  0  0  0  0
    0.9618  -17.6097    4.5854 C   0  0  0  0  0  0  0  0  0  0  0  0
  3  4  1  0
  4  5  1  0
  5  9  1  0
  9 10  1  0
  6 11  1  0
 10 12  1  0
 12 13  1  0
 13 14  1  0
 11 15  1  0
 11 16  2  0
 13 17  1  0
  1  2  2  0
  2  3  1  0
  3  8  2  0
  7  8  1  0
  6  7  2  0
  1  6  1  0
M  END

$$$$
No_2757-/export/home/yangzhenyu/potential_scad_32_flow//YTHDC2/2024-12-06-03-22-00/
     RDKit          3D

 17 17  0  0  0  0  0  0  0  0999 V2000
    1.1787   -8.0297    3.5154 C   0  0  0  0  0  0  0  0  0  0  0  0
    1.0491   -6.8434    2.9820 C   0  0  0  0  0  0  0  0  0  0  0  0
    0.0950   -8.8404    3.2292 C   0  0  0  0  0  0  0  0  0  0  0  0
   -0.9173   -8.4596    2.5152 C   0  0  0  0  0  0  0  0  0  0  0  0
   -1.0331   -7.2162    2.0653 C   0  0  0  0  0  0  0  0  0  0  0  0
   -0.0105   -6.3168    2.3081 C   0  0  0  0  0  0  0  0  0  0  0  0
    0.1465  -10.2446    3.6981 C   0  0  0  0  0  0  0  0  0  0  0  0
    0.1907  -11.3369    2.8651 N   0  0  0  0  0  0  0  0  0  0  0  0
    0.4952  -12.6142    3.3024 C   0  0  0  0  0  0  0  0  0  0  0  0
    1.8580  -12.8702    3.5302 C   0  0  0  0  0  0  0  0  0  0  0  0
    0.0531   -4.7722    1.8118 Cl  0  0  0  0  0  0  0  0  0  0  0  0
    2.1053  -14.2664    3.0641 C   0  0  0  0  0  0  0  0  0  0  0  0
    2.6638  -14.4364    1.7921 C   0  0  0  0  0  0  0  0  0  0  0  0
    1.7522  -14.0657    0.8740 C   0  0  0  0  0  0  0  0  0  0  0  0
    0.4717  -14.2109    1.0808 C   0  0  0  0  0  0  0  0  0  0  0  0
   -0.4495  -14.3743   -0.0187 C   0  0  0  0  0  0  0  0  0  0  0  0
   -1.1838  -13.3119   -0.4738 C   0  0  0  0  0  0  0  0  0  0  0  0
  3  7  1  0
  7  8  1  0
  8  9  1  0
  9 10  1  0
  6 11  1  0
 10 12  1  0
 12 13  1  0
 13 14  1  0
 14 15  1  0
 15 16  1  0
 16 17  1  0
  1  2  2  0
  2  6  1  0
  5  6  2  0
  4  5  1  0
  3  4  2  0
  1  3  1  0
M  END

$$$$
No_2758-/export/home/yangzhenyu/potential_scad_32_flow//YTHDC2/2024-12-06-03-22-00/
     RDKit          3D

 19 20  0  0  1  0  0  0  0  0999 V2000
    1.1787   -8.0297    3.5154 C   0  0  0  0  0  0  0  0  0  0  0  0
    1.1048   -9.2215    3.2892 C   0  0  0  0  0  0  0  0  0  0  0  0
    1.2339   -9.7611    2.0189 C   0  0  0  0  0  0  0  0  0  0  0  0
    1.3583   -9.0036    0.9764 C   0  0  0  0  0  0  0  0  0  0  0  0
    1.5996   -7.6362    1.1311 C   0  0  0  0  0  0  0  0  0  0  0  0
    1.4830   -7.0928    2.3626 C   0  0  0  0  0  0  0  0  0  0  0  0
    1.1008  -11.2372    1.8542 C   0  0  0  0  0  0  0  0  0  0  0  0
    0.5178  -11.9759    2.3445 C   0  0  0  0  0  0  0  0  0  0  0  0
    0.4575  -13.3705    2.1281 C   0  0  0  0  0  0  0  0  0  0  0  0
   -0.4456  -13.9844    1.5572 C   0  0  1  0  0  0  0  0  0  0  0  0
   -1.4582  -13.1036    0.8544 C   0  0  0  0  0  0  0  0  0  0  0  0
   -2.4573  -13.8212    0.1303 C   0  0  0  0  0  0  0  0  0  0  0  0
   -2.5031  -15.0772    0.1929 C   0  0  0  0  0  0  0  0  0  0  0  0
   -1.5776  -15.8822    0.7981 C   0  0  0  0  0  0  0  0  0  0  0  0
   -0.5307  -15.3063    1.4422 N   0  0  0  0  0  0  0  0  0  0  0  0
    1.6106   -5.4693    2.6955 Cl  0  0  0  0  0  0  0  0  0  0  0  0
    0.5130  -16.1276    2.1360 C   0  0  0  0  0  0  0  0  0  0  0  0
    1.7106  -16.2528    1.4771 C   0  0  0  0  0  0  0  0  0  0  0  0
    2.6959  -17.0053    1.9734 C   0  0  0  0  0  0  0  0  0  0  0  0
  3  7  1  0
  7  8  2  3
  8  9  1  0
 10 11  1  0
 11 12  1  0
 13 14  1  0
 10 15  1  0
 14 15  1  0
  6 16  1  0
 15 17  1  0
 17 18  1  0
 18 19  2  0
 10  9  1  6
 12 13  1  0
  1  2  2  0
  2  3  1  0
  3  4  2  0
  4  5  1  0
  5  6  2  0
  1  6  1  0
M  END

$$$$
No_2759-/export/home/yangzhenyu/potential_scad_32_flow//YTHDC2/2024-12-06-03-22-00/
     RDKit          3D

 21 23  0  0  0  0  0  0  0  0999 V2000
    1.1787   -8.0297    3.5154 C   0  0  0  0  0  0  0  0  0  0  0  0
    1.1048   -9.2215    3.2892 C   0  0  0  0  0  0  0  0  0  0  0  0
    1.2339   -9.7611    2.0189 C   0  0  0  0  0  0  0  0  0  0  0  0
    1.3583   -9.0036    0.9764 C   0  0  0  0  0  0  0  0  0  0  0  0
    1.5996   -7.6362    1.1311 C   0  0  0  0  0  0  0  0  0  0  0  0
    1.4830   -7.0928    2.3626 C   0  0  0  0  0  0  0  0  0  0  0  0
    1.1008  -11.2372    1.8542 C   0  0  0  0  0  0  0  0  0  0  0  0
    0.4812  -11.6084    0.6459 C   0  0  0  0  0  0  0  0  0  0  0  0
   -0.6166  -12.2864    0.7859 C   0  0  0  0  0  0  0  0  0  0  0  0
   -0.7300  -13.0625    1.9848 C   0  0  0  0  0  0  0  0  0  0  0  0
    0.1540  -12.9133    3.0511 C   0  0  0  0  0  0  0  0  0  0  0  0
    1.1516  -11.9685    2.9361 C   0  0  0  0  0  0  0  0  0  0  0  0
    1.5663   -5.6461    2.6613 O   0  0  0  0  0  0  0  0  0  0  0  0
    2.0729  -11.7298    3.9370 C   0  0  0  0  0  0  0  0  0  0  0  0
   -1.7246  -14.4471    2.1196 C   0  0  0  0  0  0  0  0  0  0  0  0
   -1.1526  -15.5311    2.3880 C   0  0  0  0  0  0  0  0  0  0  0  0
   -1.9476  -16.3844    3.1677 C   0  0  0  0  0  0  0  0  0  0  0  0
   -3.2711  -16.0795    3.2893 C   0  0  0  0  0  0  0  0  0  0  0  0
   -3.7785  -14.8830    3.0446 C   0  0  0  0  0  0  0  0  0  0  0  0
   -2.9029  -13.9365    2.3162 C   0  0  0  0  0  0  0  0  0  0  0  0
    0.6327   -4.8274    2.8343 C   0  0  0  0  0  0  0  0  0  0  0  0
  3  7  1  0
  6 13  1  0
 12 14  1  0
 10 15  1  0
 13 21  1  0
 15 16  2  0
 16 17  1  0
 17 18  2  0
 18 19  1  0
 19 20  2  0
 15 20  1  0
  1  2  2  0
  2  3  1  0
  3  4  2  0
  4  5  1  0
  5  6  2  0
  1  6  1  0
  7  8  2  0
  8  9  1  0
  9 10  2  0
 10 11  1  0
 11 12  2  0
  7 12  1  0
M  END

$$$$
No_2760-/export/home/yangzhenyu/potential_scad_32_flow//YTHDC2/2024-12-06-03-22-00/
     RDKit          3D

 19 21  0  0  1  0  0  0  0  0999 V2000
    1.1787   -8.0297    3.5154 C   0  0  0  0  0  0  0  0  0  0  0  0
    1.0491   -6.8434    2.9820 C   0  0  0  0  0  0  0  0  0  0  0  0
    1.9985   -8.9840    2.8958 C   0  0  2  0  0  0  0  0  0  0  0  0
    1.7297   -9.2108    1.6335 C   0  0  2  0  0  0  0  0  0  0  0  0
    1.7343   -8.0566    0.8408 C   0  0  0  0  0  0  0  0  0  0  0  0
    1.0269   -6.8892    1.4456 C   0  0  0  0  0  0  0  0  0  0  0  0
    2.0740   -7.9416   -0.3682 O   0  0  0  0  0  0  0  0  0  0  0  0
    1.9646  -10.3580    3.5767 C   0  0  0  0  0  0  0  0  0  0  0  0
    1.1665  -11.3332    3.3170 C   0  0  2  0  0  0  0  0  0  0  0  0
    1.4579  -12.6468    3.4877 C   0  0  0  0  0  0  0  0  0  0  0  0
    1.2307  -13.4172    2.3695 C   0  0  1  0  0  0  0  0  0  0  0  0
    0.8325  -12.8584    1.2573 C   0  0  0  0  0  0  0  0  0  0  0  0
    0.2878  -11.6326    1.1442 C   0  0  1  0  0  0  0  0  0  0  0  0
    0.6185  -10.7046    2.1490 C   0  0  2  0  0  0  0  0  0  0  0  0
    1.9752  -14.5700    2.3884 C   0  0  0  0  0  0  0  0  0  0  0  0
    2.9741  -14.9010    1.5907 O   0  0  0  0  0  0  0  0  0  0  0  0
    1.6391  -15.6777    3.1663 O   0  0  0  0  0  0  0  0  0  0  0  0
    0.8681   -5.6358    3.4572 O   0  0  0  0  0  0  0  0  0  0  0  0
    0.0238  -11.1575   -0.2414 C   0  0  0  0  0  0  0  0  0  0  0  0
  1  2  1  0
  3  1  1  1
  3  4  1  0
  4  5  1  1
  2  6  1  0
  5  6  1  0
  5  7  2  0
  3  8  1  0
  9  8  1  6
  9 10  1  0
 10 11  1  0
 11 12  1  0
 12 13  1  0
  4 14  1  0
  9 14  1  0
 14 13  1  6
 11 15  1  6
 15 16  2  0
 15 17  1  0
  2 18  2  0
 13 19  1  6
M  END

$$$$
No_2761-/export/home/yangzhenyu/potential_scad_32_flow//YTHDC2/2024-12-06-03-22-00/
     RDKit          3D

 14 14  0  0  0  0  0  0  0  0999 V2000
    1.1787   -8.0297    3.5154 C   0  0  0  0  0  0  0  0  0  0  0  0
    1.1048   -9.2215    3.2892 C   0  0  0  0  0  0  0  0  0  0  0  0
    1.3627  -10.1721    4.3044 C   0  0  0  0  0  0  0  0  0  0  0  0
    1.7354  -11.4730    3.9023 C   0  0  0  0  0  0  0  0  0  0  0  0
    1.8080  -11.8127    2.7216 C   0  0  0  0  0  0  0  0  0  0  0  0
    1.5854  -11.0021    1.7249 C   0  0  0  0  0  0  0  0  0  0  0  0
    1.3573   -9.7389    1.9287 C   0  0  0  0  0  0  0  0  0  0  0  0
    1.1102   -8.8712    0.9017 C   0  0  0  0  0  0  0  0  0  0  0  0
    0.5299   -7.6926    1.0325 O   0  0  0  0  0  0  0  0  0  0  0  0
    1.3970   -9.2634   -0.4035 O   0  0  0  0  0  0  0  0  0  0  0  0
    2.1581  -13.4121    2.2886 C   0  0  0  0  0  0  0  0  0  0  0  0
    2.2497  -13.6620    1.0205 O   0  0  0  0  0  0  0  0  0  0  0  0
    1.9757  -14.2888    3.1671 O   0  0  0  0  0  0  0  0  0  0  0  0
    2.4725   -7.2848    3.5316 F   0  0  0  0  0  0  0  0  0  0  0  0
  1  2  1  0
  7  8  1  0
  8  9  2  0
  8 10  1  0
  5 11  1  0
 11 12  2  0
 11 13  1  0
  1 14  1  0
  2  3  2  0
  3  4  1  0
  4  5  2  0
  5  6  1  0
  6  7  2  0
  2  7  1  0
M  END

$$$$
No_2762-/export/home/yangzhenyu/potential_scad_32_flow//YTHDC2/2024-12-06-03-22-00/
     RDKit          3D

 19 20  0  0  1  0  0  0  0  0999 V2000
    1.1787   -8.0297    3.5154 C   0  0  0  0  0  0  0  0  0  0  0  0
    1.0491   -6.8434    2.9820 C   0  0  1  0  0  0  0  0  0  0  0  0
    1.9985   -8.9840    2.8958 C   0  0  2  0  0  0  0  0  0  0  0  0
    1.7297   -9.2108    1.6335 C   0  0  0  0  0  0  0  0  0  0  0  0
    1.7343   -8.0566    0.8408 C   0  0  2  0  0  0  0  0  0  0  0  0
    1.0269   -6.8892    1.4456 C   0  0  0  0  0  0  0  0  0  0  0  0
    2.0740   -7.9416   -0.3682 C   0  0  0  0  0  0  0  0  0  0  0  0
    3.0714   -8.7358   -0.8759 N   0  0  0  0  0  0  0  0  0  0  0  0
    1.9442  -10.3850    3.5576 C   0  0  0  0  0  0  0  0  0  0  0  0
    0.9810  -10.9026    3.8409 O   0  0  0  0  0  0  0  0  0  0  0  0
    3.1498  -10.8413    3.9803 O   0  0  0  0  0  0  0  0  0  0  0  0
    0.7133   -5.7152    3.5090 C   0  0  2  0  0  0  0  0  0  0  0  0
   -0.6356   -5.2575    3.1537 C   0  0  0  0  0  0  0  0  0  0  0  0
   -0.8156   -3.8755    3.0407 C   0  0  0  0  0  0  0  0  0  0  0  0
    0.3830   -3.0883    3.1210 C   0  0  0  0  0  0  0  0  0  0  0  0
    1.8305   -4.5371    3.2685 C   0  0  0  0  0  0  0  0  0  0  0  0
    1.6072   -3.3410    3.0468 C   0  0  0  0  0  0  0  0  0  0  0  0
   -1.5728   -6.0274    3.1809 O   0  0  0  0  0  0  0  0  0  0  0  0
    3.5315   -9.4105   -0.2816 H   0  0  0  0  0  0  0  0  0  0  0  0
  2  1  1  1
  1  3  1  0
  3  4  1  0
  4  5  1  0
  2  6  1  0
  5  6  1  0
  5  7  1  6
  7  8  2  0
  3  9  1  1
  9 10  2  0
  9 11  1  0
  2 12  1  0
 12 13  1  0
 13 14  1  0
 14 15  1  0
 12 16  1  6
 15 17  1  0
 16 17  1  0
 13 18  2  0
  8 19  1  0
M  END

$$$$
No_2763-/export/home/yangzhenyu/potential_scad_32_flow//YTHDC2/2024-12-06-03-22-00/
     RDKit          3D

 12 12  0  0  0  0  0  0  0  0999 V2000
    1.1787   -8.0297    3.5154 C   0  0  0  0  0  0  0  0  0  0  0  0
    1.1048   -9.2215    3.2892 C   0  0  0  0  0  0  0  0  0  0  0  0
    1.2339   -9.7611    2.0189 C   0  0  0  0  0  0  0  0  0  0  0  0
    1.3583   -9.0036    0.9764 C   0  0  0  0  0  0  0  0  0  0  0  0
    1.5996   -7.6362    1.1311 C   0  0  0  0  0  0  0  0  0  0  0  0
    1.4830   -7.0928    2.3626 C   0  0  0  0  0  0  0  0  0  0  0  0
    1.1008  -11.2372    1.8542 I   0  0  0  0  0  0  0  0  0  0  0  0
    1.5604   -9.4702   -0.3426 C   0  0  0  0  0  0  0  0  0  0  0  0
    0.3921   -9.8582   -0.8993 O   0  0  0  0  0  0  0  0  0  0  0  0
    2.6077   -9.3688   -1.0396 O   0  0  0  0  0  0  0  0  0  0  0  0
    1.5545   -5.6222    2.6664 Br  0  0  0  0  0  0  0  0  0  0  0  0
    0.9782  -10.1050    4.4091 Cl  0  0  0  0  0  0  0  0  0  0  0  0
  3  7  1  0
  4  8  1  0
  8  9  2  0
  8 10  1  0
  6 11  1  0
  2 12  1  0
  1  2  2  0
  2  3  1  0
  3  4  2  0
  4  5  1  0
  5  6  2  0
  1  6  1  0
M  END

$$$$
No_2764-/export/home/yangzhenyu/potential_scad_32_flow//YTHDC2/2024-12-06-03-22-00/
     RDKit          3D

 19 20  0  0  0  0  0  0  0  0999 V2000
    1.1787   -8.0297    3.5154 C   0  0  0  0  0  0  0  0  0  0  0  0
    1.0491   -6.8434    2.9820 C   0  0  0  0  0  0  0  0  0  0  0  0
    0.0950   -8.8404    3.2292 C   0  0  0  0  0  0  0  0  0  0  0  0
   -0.9173   -8.4596    2.5152 C   0  0  0  0  0  0  0  0  0  0  0  0
   -1.0331   -7.2162    2.0653 C   0  0  0  0  0  0  0  0  0  0  0  0
   -0.0105   -6.3168    2.3081 C   0  0  0  0  0  0  0  0  0  0  0  0
    0.1465  -10.2446    3.6981 C   0  0  0  0  0  0  0  0  0  0  0  0
    1.2433  -10.8239    4.0166 C   0  0  0  0  0  0  0  0  0  0  0  0
    1.1033  -12.2936    4.0346 C   0  0  0  0  0  0  0  0  0  0  0  0
    0.0220  -12.9035    3.7006 C   0  0  0  0  0  0  0  0  0  0  0  0
   -1.0373  -12.2681    3.2608 C   0  0  0  0  0  0  0  0  0  0  0  0
   -1.0058  -10.9076    3.2655 C   0  0  0  0  0  0  0  0  0  0  0  0
   -0.0949   -4.8269    1.7900 Cl  0  0  0  0  0  0  0  0  0  0  0  0
    0.0879  -14.3113    3.7295 O   0  0  0  0  0  0  0  0  0  0  0  0
    0.3938  -15.0451    2.6193 C   0  0  0  0  0  0  0  0  0  0  0  0
    0.8325  -14.4372    1.5710 C   0  0  0  0  0  0  0  0  0  0  0  0
   -0.0615  -14.1439    0.7012 C   0  0  0  0  0  0  0  0  0  0  0  0
   -1.1704  -14.8858    0.5176 C   0  0  0  0  0  0  0  0  0  0  0  0
   -1.5282  -15.7527    1.5170 C   0  0  0  0  0  0  0  0  0  0  0  0
  3  7  1  0
  6 13  1  0
 10 14  1  0
 14 15  1  0
 15 16  1  0
 16 17  2  3
 17 18  1  0
 18 19  2  0
  1  2  2  0
  2  6  1  0
  5  6  2  0
  4  5  1  0
  3  4  2  0
  1  3  1  0
  7  8  2  0
  8  9  1  0
  9 10  2  0
 10 11  1  0
 11 12  2  0
  7 12  1  0
M  END

$$$$
No_2765-/export/home/yangzhenyu/potential_scad_32_flow//YTHDC2/2024-12-06-03-22-00/
     RDKit          3D

 18 20  0  0  1  0  0  0  0  0999 V2000
    1.1787   -8.0297    3.5154 C   0  0  0  0  0  0  0  0  0  0  0  0
    1.0491   -6.8434    2.9820 C   0  0  0  0  0  0  0  0  0  0  0  0
    1.9985   -8.9840    2.8958 C   0  0  0  0  0  0  0  0  0  0  0  0
    1.1814  -10.1889    2.5497 C   0  0  0  0  0  0  0  0  0  0  0  0
    0.9817  -11.1388    2.8133 C   0  0  0  0  0  0  0  0  0  0  0  0
    0.2482  -12.1830    2.2948 C   0  0  2  0  0  0  0  0  0  0  0  0
    0.1317  -13.4463    2.9223 C   0  0  0  0  0  0  0  0  0  0  0  0
    0.7460  -14.3970    2.2076 C   0  0  1  0  0  0  0  0  0  0  0  0
    1.5432  -14.2324    1.1754 C   0  0  0  0  0  0  0  0  0  0  0  0
    1.3728  -13.0620    0.4417 C   0  0  0  0  0  0  0  0  0  0  0  0
    0.9347  -11.9345    1.1564 C   0  0  2  0  0  0  0  0  0  0  0  0
    0.2482   -6.7734    1.8302 C   0  0  0  0  0  0  0  0  0  0  0  0
    0.2068   -5.5897    1.1396 C   0  0  0  0  0  0  0  0  0  0  0  0
    0.8506   -4.4774    1.6928 C   0  0  0  0  0  0  0  0  0  0  0  0
    1.6508   -4.5468    2.8065 C   0  0  0  0  0  0  0  0  0  0  0  0
    1.7339   -5.7011    3.4535 C   0  0  0  0  0  0  0  0  0  0  0  0
    1.4356  -10.5477    0.9522 C   0  0  0  0  0  0  0  0  0  0  0  0
    0.6200  -15.7235    2.7941 C   0  0  0  0  0  0  0  0  0  0  0  0
  1  2  1  0
  1  3  1  0
  3  4  1  0
  4  5  2  0
  5  6  1  0
  6  7  1  1
  7  8  1  0
  8  9  1  0
  9 10  1  0
  6 11  1  0
 11 10  1  1
  4 17  1  0
 11 17  1  0
  8 18  1  1
  2 12  2  0
 12 13  1  0
 13 14  2  0
 14 15  1  0
 15 16  2  0
  2 16  1  0
M  END

$$$$
No_2766-/export/home/yangzhenyu/potential_scad_32_flow//YTHDC2/2024-12-06-03-22-00/
     RDKit          3D

 19 19  0  0  1  0  0  0  0  0999 V2000
    1.1787   -8.0297    3.5154 C   0  0  0  0  0  0  0  0  0  0  0  0
    1.0491   -6.8434    2.9820 C   0  0  0  0  0  0  0  0  0  0  0  0
    0.9905   -9.0774    2.6527 C   0  0  0  0  0  0  0  0  0  0  0  0
    0.9687   -8.6883    1.3634 C   0  0  0  0  0  0  0  0  0  0  0  0
    1.0948   -6.3768    1.7686 C   0  0  0  0  0  0  0  0  0  0  0  0
    0.9504   -7.3975    0.8471 C   0  0  0  0  0  0  0  0  0  0  0  0
    0.9617   -9.7173    0.3352 C   0  0  0  0  0  0  0  0  0  0  0  0
    0.7096   -9.5224   -0.9434 O   0  0  0  0  0  0  0  0  0  0  0  0
    1.1277  -11.0558    0.6195 O   0  0  0  0  0  0  0  0  0  0  0  0
    1.0606   -5.0436    1.3619 F   0  0  0  0  0  0  0  0  0  0  0  0
    1.1508  -10.5638    3.1948 S   0  0  0  0  0  0  0  0  0  0  0  0
    0.1582  -10.9807    3.6831 N   0  0  0  0  0  0  0  0  0  0  0  0
    2.3450  -10.4572    4.3289 O   0  0  0  0  0  0  0  0  0  0  0  0
    1.6937  -11.7379    2.4705 O   0  0  0  0  0  0  0  0  0  0  0  0
   -1.1797  -10.9830    3.1326 C   0  0  1  0  0  0  0  0  0  0  0  0
   -1.7505  -12.1434    2.5997 C   0  0  0  0  0  0  0  0  0  0  0  0
   -2.7600  -12.0283    1.7510 O   0  0  0  0  0  0  0  0  0  0  0  0
   -1.1513  -13.2455    2.8694 Cl  0  0  0  0  0  0  0  0  0  0  0  0
   -2.2455   -9.9487    3.7997 C   0  0  0  0  0  0  0  0  0  0  0  0
  4  7  1  0
  7  8  2  0
  7  9  1  0
  5 10  1  0
  3 11  1  0
 11 12  1  0
 11 13  2  0
 11 14  2  0
 12 15  1  0
 15 16  1  0
 16 17  2  0
 16 18  1  0
 15 19  1  1
  1  2  2  0
  2  5  1  0
  5  6  2  0
  4  6  1  0
  3  4  2  0
  1  3  1  0
M  END

$$$$
No_2767-/export/home/yangzhenyu/potential_scad_32_flow//YTHDC2/2024-12-06-03-22-00/
     RDKit          3D

 19 19  0  0  1  0  0  0  0  0999 V2000
    1.1787   -8.0297    3.5154 C   0  0  0  0  0  0  0  0  0  0  0  0
    1.0491   -6.8434    2.9820 C   0  0  0  0  0  0  0  0  0  0  0  0
    0.9905   -9.0774    2.6527 C   0  0  0  0  0  0  0  0  0  0  0  0
    0.7897   -8.9519    1.3691 C   0  0  0  0  0  0  0  0  0  0  0  0
    0.7018   -7.7198    0.7892 C   0  0  0  0  0  0  0  0  0  0  0  0
    0.8918   -6.5957    1.6117 C   0  0  0  0  0  0  0  0  0  0  0  0
    1.0998  -10.4710    3.2437 C   0  0  1  0  0  0  0  0  0  0  0  0
    2.1917  -10.8879    3.7399 C   0  0  0  0  0  0  0  0  0  0  0  0
    0.8983   -5.2566    1.2088 C   0  0  0  0  0  0  0  0  0  0  0  0
   -0.0163  -11.2298    3.3739 C   0  0  0  0  0  0  0  0  0  0  0  0
   -0.0826  -12.5020    3.1762 C   0  0  0  0  0  0  0  0  0  0  0  0
    0.2585  -12.9561    1.9837 C   0  0  0  0  0  0  0  0  0  0  0  0
    1.1819  -14.0946    1.8582 C   0  0  1  0  0  0  0  0  0  0  0  0
    2.4178  -13.8821    1.2715 C   0  0  0  0  0  0  0  0  0  0  0  0
    1.0533  -15.2178    2.5885 C   0  0  0  0  0  0  0  0  0  0  0  0
    0.7319  -16.3874    2.0800 C   0  0  0  0  0  0  0  0  0  0  0  0
    0.4924  -17.3319    2.8213 F   0  0  0  0  0  0  0  0  0  0  0  0
    1.5970   -4.3507    1.8903 O   0  0  0  0  0  0  0  0  0  0  0  0
    0.2400   -4.8942    0.2981 O   0  0  0  0  0  0  0  0  0  0  0  0
  3  7  1  0
  7  8  1  1
  6  9  1  0
  7 10  1  0
 10 11  1  0
 11 12  1  0
 12 13  1  0
 13 14  1  1
 13 15  1  0
 15 16  1  0
 16 17  1  0
  9 18  1  0
  9 19  2  0
  1  2  2  0
  2  6  1  0
  5  6  2  0
  4  5  1  0
  3  4  2  0
  1  3  1  0
M  END

$$$$
No_2768-/export/home/yangzhenyu/potential_scad_32_flow//YTHDC2/2024-12-06-03-22-00/
     RDKit          3D

 15 16  0  0  0  0  0  0  0  0999 V2000
    1.1787   -8.0297    3.5154 C   0  0  0  0  0  0  0  0  0  0  0  0
    1.1048   -9.2215    3.2892 C   0  0  0  0  0  0  0  0  0  0  0  0
    1.2339   -9.7611    2.0189 C   0  0  0  0  0  0  0  0  0  0  0  0
    1.4306   -8.9466    1.1170 C   0  0  0  0  0  0  0  0  0  0  0  0
    1.6532   -7.5949    1.1786 C   0  0  0  0  0  0  0  0  0  0  0  0
    1.4973   -7.0739    2.4258 C   0  0  0  0  0  0  0  0  0  0  0  0
    1.5178   -5.6803    2.7303 N   0  0  0  0  0  0  0  0  0  0  0  0
    1.2422  -11.1988    1.8283 C   0  0  0  0  0  0  0  0  0  0  0  0
    1.6782  -12.0564    2.6741 C   0  0  0  0  0  0  0  0  0  0  0  0
    0.9283  -13.2756    2.8008 C   0  0  0  0  0  0  0  0  0  0  0  0
   -0.0146  -13.6181    2.0304 C   0  0  0  0  0  0  0  0  0  0  0  0
   -0.3910  -12.7069    1.0439 C   0  0  0  0  0  0  0  0  0  0  0  0
    0.2295  -11.5502    0.8957 C   0  0  0  0  0  0  0  0  0  0  0  0
   -0.5000  -14.9203    2.1179 O   0  0  0  0  0  0  0  0  0  0  0  0
    1.3249   -4.8230    1.7548 O   0  0  0  0  0  0  0  0  0  0  0  0
  6  7  1  0
  3  8  1  0
 11 14  1  0
  7 15  2  0
  1  2  2  0
  2  3  1  0
  3  4  2  0
  4  5  1  0
  5  6  2  0
  1  6  1  0
  8  9  2  0
  9 10  1  0
 10 11  2  0
 11 12  1  0
 12 13  2  0
  8 13  1  0
M  END

$$$$
No_2769-/export/home/yangzhenyu/potential_scad_32_flow//YTHDC2/2024-12-06-03-22-00/
     RDKit          3D

 20 22  0  0  0  0  0  0  0  0999 V2000
    1.1787   -8.0297    3.5154 C   0  0  0  0  0  0  0  0  0  0  0  0
    1.1048   -9.2215    3.2892 C   0  0  0  0  0  0  0  0  0  0  0  0
    1.3627  -10.1721    4.3044 C   0  0  0  0  0  0  0  0  0  0  0  0
    1.0682  -11.5187    4.0618 C   0  0  0  0  0  0  0  0  0  0  0  0
    0.6332  -11.9655    2.9682 C   0  0  0  0  0  0  0  0  0  0  0  0
    0.4776  -11.1308    1.9203 C   0  0  0  0  0  0  0  0  0  0  0  0
    0.7470   -9.8274    2.0368 C   0  0  0  0  0  0  0  0  0  0  0  0
    1.0387   -7.0301    2.5175 C   0  0  0  0  0  0  0  0  0  0  0  0
    0.9130   -7.5288    1.2013 C   0  0  0  0  0  0  0  0  0  0  0  0
    0.7893   -8.7979    0.9542 C   0  0  0  0  0  0  0  0  0  0  0  0
    0.5241   -9.2578   -0.2817 C   0  0  0  0  0  0  0  0  0  0  0  0
   -0.7560   -9.7391   -0.6285 O   0  0  0  0  0  0  0  0  0  0  0  0
    1.3962   -9.1917   -1.2143 O   0  0  0  0  0  0  0  0  0  0  0  0
    0.5074  -13.3746    2.6907 C   0  0  0  0  0  0  0  0  0  0  0  0
   -0.5188  -14.0515    2.3528 C   0  0  0  0  0  0  0  0  0  0  0  0
   -0.5467  -15.3644    2.1476 C   0  0  0  0  0  0  0  0  0  0  0  0
    0.5578  -16.1093    2.0951 C   0  0  0  0  0  0  0  0  0  0  0  0
    1.8266  -15.5210    2.4787 C   0  0  0  0  0  0  0  0  0  0  0  0
    1.8239  -14.1418    2.7991 C   0  0  0  0  0  0  0  0  0  0  0  0
    1.2898   -5.5979    2.6990 O   0  0  0  0  0  0  0  0  0  0  0  0
 10 11  1  0
 11 12  2  0
 11 13  1  0
  5 14  1  0
  8 20  1  0
  2  3  1  0
  3  4  2  0
  4  5  1  0
  5  6  2  0
  6  7  1  0
  1  2  2  0
  2  7  1  0
  7 10  2  0
  9 10  1  0
  8  9  2  0
  1  8  1  0
 14 15  2  0
 15 16  1  0
 16 17  2  0
 17 18  1  0
 18 19  2  0
 14 19  1  0
M  END

$$$$
No_2770-/export/home/yangzhenyu/potential_scad_32_flow//YTHDC2/2024-12-06-03-22-00/
     RDKit          3D

 18 19  0  0  0  0  0  0  0  0999 V2000
    1.1787   -8.0297    3.5154 C   0  0  0  0  0  0  0  0  0  0  0  0
    1.1048   -9.2215    3.2892 C   0  0  0  0  0  0  0  0  0  0  0  0
    1.2339   -9.7611    2.0189 C   0  0  0  0  0  0  0  0  0  0  0  0
    1.3583   -9.0036    0.9764 C   0  0  0  0  0  0  0  0  0  0  0  0
    1.5996   -7.6362    1.1311 C   0  0  0  0  0  0  0  0  0  0  0  0
    1.4830   -7.0928    2.3626 C   0  0  0  0  0  0  0  0  0  0  0  0
    1.1008  -11.2372    1.8542 C   0  0  0  0  0  0  0  0  0  0  0  0
    0.4812  -11.6084    0.6459 C   0  0  0  0  0  0  0  0  0  0  0  0
   -0.6166  -12.2864    0.7859 C   0  0  0  0  0  0  0  0  0  0  0  0
   -0.7300  -13.0625    1.9848 C   0  0  0  0  0  0  0  0  0  0  0  0
    0.1540  -12.9133    3.0511 C   0  0  0  0  0  0  0  0  0  0  0  0
    1.1516  -11.9685    2.9361 C   0  0  0  0  0  0  0  0  0  0  0  0
    1.5663   -5.6461    2.6613 Cl  0  0  0  0  0  0  0  0  0  0  0  0
    2.0815  -11.7417    3.9304 N   0  0  0  0  0  0  0  0  0  0  0  0
   -1.5322  -14.2967    2.0619 O   0  0  0  0  0  0  0  0  0  0  0  0
   -1.0449  -15.3988    2.3278 C   0  0  0  0  0  0  0  0  0  0  0  0
    1.5766   -9.4415   -0.3564 C   0  0  0  0  0  0  0  0  0  0  0  0
    1.9454   -8.8728   -1.2174 O   0  0  0  0  0  0  0  0  0  0  0  0
  3  7  1  0
  6 13  1  0
 10 15  1  0
 15 16  1  0
  4 17  1  0
 17 18  2  0
 12 14  1  0
  1  2  2  0
  2  3  1  0
  3  4  2  0
  4  5  1  0
  5  6  2  0
  1  6  1  0
  7  8  2  0
  8  9  1  0
  9 10  2  0
 10 11  1  0
 11 12  2  0
  7 12  1  0
M  END

$$$$
No_2771-/export/home/yangzhenyu/potential_scad_32_flow//YTHDC2/2024-12-06-03-22-00/
     RDKit          3D

 17 18  0  0  0  0  0  0  0  0999 V2000
    1.1787   -8.0297    3.5154 C   0  0  0  0  0  0  0  0  0  0  0  0
    1.1048   -9.2215    3.2892 C   0  0  0  0  0  0  0  0  0  0  0  0
    1.2339   -9.7611    2.0189 C   0  0  0  0  0  0  0  0  0  0  0  0
    1.3583   -9.0036    0.9764 C   0  0  0  0  0  0  0  0  0  0  0  0
    1.5996   -7.6362    1.1311 C   0  0  0  0  0  0  0  0  0  0  0  0
    1.4830   -7.0928    2.3626 C   0  0  0  0  0  0  0  0  0  0  0  0
    1.5395   -5.7300    2.6182 C   0  0  0  0  0  0  0  0  0  0  0  0
    1.1775  -11.2233    1.8407 C   0  0  0  0  0  0  0  0  0  0  0  0
    0.5085  -11.9762    2.1989 C   0  0  0  0  0  0  0  0  0  0  0  0
    0.4247  -13.3704    2.0465 C   0  0  0  0  0  0  0  0  0  0  0  0
   -0.6059  -14.0773    1.8608 C   0  0  0  0  0  0  0  0  0  0  0  0
   -0.5437  -15.5485    1.8404 C   0  0  0  0  0  0  0  0  0  0  0  0
    0.7428  -16.1379    2.1583 C   0  0  0  0  0  0  0  0  0  0  0  0
    1.8608  -15.4332    2.4453 C   0  0  0  0  0  0  0  0  0  0  0  0
    1.7696  -14.0190    2.4364 C   0  0  0  0  0  0  0  0  0  0  0  0
    0.6230   -4.8889    2.7668 O   0  0  0  0  0  0  0  0  0  0  0  0
    0.8263   -3.4970    3.0770 C   0  0  0  0  0  0  0  0  0  0  0  0
  6  7  1  0
  3  8  1  0
  8  9  2  3
  9 10  1  0
  7 16  1  0
 16 17  1  0
  1  2  2  0
  2  3  1  0
  3  4  2  0
  4  5  1  0
  5  6  2  0
  1  6  1  0
 10 11  2  0
 11 12  1  0
 12 13  2  0
 13 14  1  0
 14 15  2  0
 10 15  1  0
M  END

$$$$
No_2772-/export/home/yangzhenyu/potential_scad_32_flow//YTHDC2/2024-12-06-03-22-00/
     RDKit          3D

 20 21  0  0  1  0  0  0  0  0999 V2000
    1.1787   -8.0297    3.5154 C   0  0  0  0  0  0  0  0  0  0  0  0
    1.1048   -9.2215    3.2892 C   0  0  0  0  0  0  0  0  0  0  0  0
    1.4683  -10.2314    4.1915 C   0  0  0  0  0  0  0  0  0  0  0  0
    0.8445   -6.9865    2.5175 C   0  0  0  0  0  0  0  0  0  0  0  0
    0.3587   -7.3973    1.3953 C   0  0  0  0  0  0  0  0  0  0  0  0
    0.1901   -8.6971    1.0711 C   0  0  0  0  0  0  0  0  0  0  0  0
    0.5759   -9.6647    1.9442 C   0  0  0  0  0  0  0  0  0  0  0  0
    0.6934  -11.4709    4.1321 C   0  0  0  0  0  0  0  0  0  0  0  0
    0.3760  -11.9548    2.8946 C   0  0  2  0  0  0  0  0  0  0  0  0
   -0.0435  -10.8962    1.9144 N   0  0  0  0  0  0  0  0  0  0  0  0
    0.2357  -13.1881    2.6887 C   0  0  2  0  0  0  0  0  0  0  0  0
    1.0239  -14.1376    3.3610 C   0  0  0  0  0  0  0  0  0  0  0  0
    0.9703  -15.5842    2.9508 O   0  0  0  0  0  0  0  0  0  0  0  0
   -0.2071   -9.0619   -0.1601 C   0  0  0  0  0  0  0  0  0  0  0  0
    0.5489   -9.1863   -1.2617 O   0  0  0  0  0  0  0  0  0  0  0  0
   -1.4113   -9.8189   -0.1290 O   0  0  0  0  0  0  0  0  0  0  0  0
   -0.5596  -13.7121    1.6835 C   0  0  0  0  0  0  0  0  0  0  0  0
    1.1846   -5.5531    2.7863 Cl  0  0  0  0  0  0  0  0  0  0  0  0
   -1.9199  -13.6875    1.8187 C   0  0  0  0  0  0  0  0  0  0  0  0
   -2.6624  -13.9748    0.8891 C   0  0  0  0  0  0  0  0  0  0  0  0
  2  3  1  0
  3  8  1  0
  9  8  1  1
  7 10  1  0
  9 10  1  0
  9 11  1  0
 11 12  1  0
 12 13  2  0
  6 14  1  0
 14 15  1  0
 14 16  2  0
 11 17  1  6
  4 18  1  0
 17 19  1  0
 19 20  2  0
  1  2  2  0
  2  7  1  0
  6  7  2  0
  5  6  1  0
  4  5  2  0
  1  4  1  0
M  END

$$$$
No_2773-/export/home/yangzhenyu/potential_scad_32_flow//YTHDC2/2024-12-06-03-22-00/
     RDKit          3D

 19 20  0  0  0  0  0  0  0  0999 V2000
    1.1787   -8.0297    3.5154 O   0  0  0  0  0  0  0  0  0  0  0  0
    0.6747   -7.4019    2.7838 C   0  0  0  0  0  0  0  0  0  0  0  0
    0.5570   -6.0797    2.8560 C   0  0  0  0  0  0  0  0  0  0  0  0
    1.1189   -5.2588    2.0517 C   0  0  0  0  0  0  0  0  0  0  0  0
    1.6070   -5.7863    0.8484 C   0  0  0  0  0  0  0  0  0  0  0  0
    1.2319   -7.6503    1.2767 C   0  0  0  0  0  0  0  0  0  0  0  0
    1.8508   -6.9193    0.6689 C   0  0  0  0  0  0  0  0  0  0  0  0
    0.7927   -3.6018    2.2653 C   0  0  0  0  0  0  0  0  0  0  0  0
    0.9984   -9.0181    0.9347 C   0  0  0  0  0  0  0  0  0  0  0  0
   -0.1820   -9.6328    1.1241 N   0  0  0  0  0  0  0  0  0  0  0  0
    2.0026   -9.7499    0.4157 C   0  0  0  0  0  0  0  0  0  0  0  0
    2.9820   -9.3858   -0.1594 O   0  0  0  0  0  0  0  0  0  0  0  0
    2.0010  -11.0750    0.7044 N   0  0  0  0  0  0  0  0  0  0  0  0
   -1.1753   -9.4224    0.1287 C   0  0  0  0  0  0  0  0  0  0  0  0
   -2.3707   -9.3753    0.3703 C   0  0  0  0  0  0  0  0  0  0  0  0
   -3.2699   -8.6587   -0.2685 C   0  0  0  0  0  0  0  0  0  0  0  0
   -2.8783   -8.1671   -1.5792 C   0  0  0  0  0  0  0  0  0  0  0  0
   -1.5210   -8.2857   -2.0207 C   0  0  0  0  0  0  0  0  0  0  0  0
   -0.6011   -8.9177   -1.0760 C   0  0  0  0  0  0  0  0  0  0  0  0
  1  2  1  0
  4  8  1  0
  6  9  1  0
  9 10  1  0
  9 11  1  0
 11 12  2  0
 11 13  1  0
 10 14  1  0
 14 15  2  0
 15 16  1  0
 16 17  2  0
 17 18  1  0
 18 19  2  0
 14 19  1  0
  2  3  2  0
  3  4  1  0
  4  5  2  0
  5  7  1  0
  6  7  2  0
  2  6  1  0
M  END

$$$$
No_2774-/export/home/yangzhenyu/potential_scad_32_flow//YTHDC2/2024-12-06-03-22-00/
     RDKit          3D

 18 19  0  0  0  0  0  0  0  0999 V2000
    1.1787   -8.0297    3.5154 C   0  0  0  0  0  0  0  0  0  0  0  0
    1.1048   -9.2215    3.2892 C   0  0  0  0  0  0  0  0  0  0  0  0
    1.2339   -9.7611    2.0189 C   0  0  0  0  0  0  0  0  0  0  0  0
    1.3583   -9.0036    0.9764 C   0  0  0  0  0  0  0  0  0  0  0  0
    1.5996   -7.6362    1.1311 C   0  0  0  0  0  0  0  0  0  0  0  0
    1.4830   -7.0928    2.3626 C   0  0  0  0  0  0  0  0  0  0  0  0
    1.1008  -11.2372    1.8542 C   0  0  0  0  0  0  0  0  0  0  0  0
    0.5178  -11.9759    2.3445 C   0  0  0  0  0  0  0  0  0  0  0  0
    0.4575  -13.3705    2.1281 C   0  0  0  0  0  0  0  0  0  0  0  0
   -0.4455  -13.9844    1.5571 C   0  0  0  0  0  0  0  0  0  0  0  0
   -0.4379  -15.3838    1.3067 C   0  0  0  0  0  0  0  0  0  0  0  0
    0.7051  -16.0983    1.9315 C   0  0  0  0  0  0  0  0  0  0  0  0
    1.6299  -15.5240    2.5821 C   0  0  0  0  0  0  0  0  0  0  0  0
    1.5398  -14.1300    2.8462 C   0  0  0  0  0  0  0  0  0  0  0  0
    1.5722   -5.6574    2.6492 C   0  0  0  0  0  0  0  0  0  0  0  0
    0.7348   -4.8233    2.6087 O   0  0  0  0  0  0  0  0  0  0  0  0
    1.4786   -9.4309   -0.3828 C   0  0  0  0  0  0  0  0  0  0  0  0
    2.4559   -9.6460   -0.9620 O   0  0  0  0  0  0  0  0  0  0  0  0
  3  7  1  0
  7  8  2  3
  8  9  1  0
  6 15  1  0
 15 16  2  0
  4 17  1  0
 17 18  1  0
  1  2  2  0
  2  3  1  0
  3  4  2  0
  4  5  1  0
  5  6  2  0
  1  6  1  0
  9 10  2  0
 10 11  1  0
 11 12  2  0
 12 13  1  0
 13 14  2  0
  9 14  1  0
M  END

$$$$
No_2775-/export/home/yangzhenyu/potential_scad_32_flow//YTHDC2/2024-12-06-03-22-00/
     RDKit          3D

 14 14  0  0  0  0  0  0  0  0999 V2000
    1.1787   -8.0297    3.5154 C   0  0  0  0  0  0  0  0  0  0  0  0
    1.1048   -9.2215    3.2892 C   0  0  0  0  0  0  0  0  0  0  0  0
    1.3627  -10.1721    4.3044 C   0  0  0  0  0  0  0  0  0  0  0  0
    1.7354  -11.4730    3.9023 C   0  0  0  0  0  0  0  0  0  0  0  0
    1.8080  -11.8127    2.7216 C   0  0  0  0  0  0  0  0  0  0  0  0
    1.5854  -11.0021    1.7249 C   0  0  0  0  0  0  0  0  0  0  0  0
    1.3573   -9.7389    1.9287 C   0  0  0  0  0  0  0  0  0  0  0  0
    1.1102   -8.8712    0.9017 C   0  0  0  0  0  0  0  0  0  0  0  0
    0.5299   -7.6926    1.0325 O   0  0  0  0  0  0  0  0  0  0  0  0
    1.3970   -9.2634   -0.4035 O   0  0  0  0  0  0  0  0  0  0  0  0
    2.1059  -13.2053    2.3252 C   0  0  0  0  0  0  0  0  0  0  0  0
    1.8988  -14.2531    3.1368 C   0  0  0  0  0  0  0  0  0  0  0  0
    2.1252  -15.5647    2.5499 N   0  0  0  0  0  0  0  0  0  0  0  0
    3.2229  -15.6393    1.8386 O   0  0  0  0  0  0  0  0  0  0  0  0
  1  2  1  0
  7  8  1  0
  8  9  2  0
  8 10  1  0
  5 11  1  0
 11 12  1  0
 12 13  1  0
 13 14  2  0
  2  3  2  0
  3  4  1  0
  4  5  2  0
  5  6  1  0
  6  7  2  0
  2  7  1  0
M  END

$$$$
No_2776-/export/home/yangzhenyu/potential_scad_32_flow//YTHDC2/2024-12-06-03-22-00/
     RDKit          3D

 18 19  0  0  1  0  0  0  0  0999 V2000
    1.1787   -8.0297    3.5154 C   0  0  0  0  0  0  0  0  0  0  0  0
    1.1048   -9.2215    3.2892 C   0  0  0  0  0  0  0  0  0  0  0  0
    1.2339   -9.7611    2.0189 C   0  0  0  0  0  0  0  0  0  0  0  0
    1.3583   -9.0036    0.9764 C   0  0  0  0  0  0  0  0  0  0  0  0
    1.5996   -7.6362    1.1311 C   0  0  0  0  0  0  0  0  0  0  0  0
    1.4830   -7.0928    2.3626 C   0  0  0  0  0  0  0  0  0  0  0  0
    1.1171  -11.3311    1.8661 C   0  0  0  0  0  0  0  0  0  0  0  0
    1.9975  -12.1095    2.2478 C   0  0  1  0  0  0  0  0  0  0  0  0
    1.9221  -12.5193    3.3839 C   0  0  0  0  0  0  0  0  0  0  0  0
    1.2526  -13.8110    3.3737 N   0  0  0  0  0  0  0  0  0  0  0  0
    1.2363  -14.5049    2.2857 C   0  0  2  0  0  0  0  0  0  0  0  0
    1.3372  -13.9306    1.0594 C   0  0  0  0  0  0  0  0  0  0  0  0
    1.8701  -12.6552    1.0205 C   0  0  0  0  0  0  0  0  0  0  0  0
    0.6524  -15.8104    2.4393 C   0  0  0  0  0  0  0  0  0  0  0  0
    0.9511  -16.6807    3.3974 O   0  0  0  0  0  0  0  0  0  0  0  0
   -0.2304  -16.2028    1.5560 O   0  0  0  0  0  0  0  0  0  0  0  0
    1.5368   -5.4741    2.6603 O   0  0  0  0  0  0  0  0  0  0  0  0
   -0.2125  -11.4811    1.3598 O   0  0  0  0  0  0  0  0  0  0  0  0
  3  7  1  0
  8  7  1  1
  8  9  1  0
  9 10  1  0
 10 11  1  0
 11 12  1  0
  8 13  1  0
 12 13  1  0
 11 14  1  6
 14 15  2  0
 14 16  1  0
  6 17  1  0
  7 18  2  0
  1  2  2  0
  2  3  1  0
  3  4  2  0
  4  5  1  0
  5  6  2  0
  1  6  1  0
M  END

$$$$
No_2777-/export/home/yangzhenyu/potential_scad_32_flow//YTHDC2/2024-12-06-03-22-00/
     RDKit          3D

 19 21  0  0  0  0  0  0  0  0999 V2000
    1.1787   -8.0297    3.5154 C   0  0  0  0  0  0  0  0  0  0  0  0
    1.1048   -9.2215    3.2892 C   0  0  0  0  0  0  0  0  0  0  0  0
    1.3627  -10.1721    4.3044 C   0  0  0  0  0  0  0  0  0  0  0  0
    1.0682  -11.5187    4.0618 C   0  0  0  0  0  0  0  0  0  0  0  0
    0.6332  -11.9655    2.9682 C   0  0  0  0  0  0  0  0  0  0  0  0
    0.6698  -11.3145    2.0035 C   0  0  0  0  0  0  0  0  0  0  0  0
    0.9069   -9.8966    2.0084 C   0  0  0  0  0  0  0  0  0  0  0  0
    1.0124   -7.0534    2.4581 C   0  0  0  0  0  0  0  0  0  0  0  0
    0.9325   -7.6170    1.1269 C   0  0  0  0  0  0  0  0  0  0  0  0
    0.8653   -8.9137    0.9167 C   0  0  0  0  0  0  0  0  0  0  0  0
    0.6872   -9.3286   -0.3265 C   0  0  0  0  0  0  0  0  0  0  0  0
    1.3965   -9.1995   -1.3178 O   0  0  0  0  0  0  0  0  0  0  0  0
   -0.6495   -9.5156   -0.8100 O   0  0  0  0  0  0  0  0  0  0  0  0
    0.5957  -13.4184    2.7432 C   0  0  0  0  0  0  0  0  0  0  0  0
   -0.5070  -14.0121    2.2659 N   0  0  0  0  0  0  0  0  0  0  0  0
    1.6818  -14.2583    3.0411 C   0  0  0  0  0  0  0  0  0  0  0  0
    1.4440  -15.6685    2.9098 C   0  0  0  0  0  0  0  0  0  0  0  0
    0.0360  -15.7792    2.3856 N   0  0  0  0  0  0  0  0  0  0  0  0
   -0.7072  -15.1145    2.1195 C   0  0  0  0  0  0  0  0  0  0  0  0
 10 11  1  0
 11 12  2  0
 11 13  1  0
  5 14  1  0
  2  3  1  0
  3  4  2  0
  4  5  1  0
  5  6  2  0
  6  7  1  0
  1  2  2  0
  2  7  1  0
  7 10  2  0
  9 10  1  0
  8  9  2  0
  1  8  1  0
 14 15  2  0
 15 19  1  0
 18 19  2  0
 17 18  1  0
 16 17  2  0
 14 16  1  0
M  END

$$$$
No_2778-/export/home/yangzhenyu/potential_scad_32_flow//YTHDC2/2024-12-06-03-22-00/
     RDKit          3D

 20 21  0  0  0  0  0  0  0  0999 V2000
    1.1787   -8.0297    3.5154 C   0  0  0  0  0  0  0  0  0  0  0  0
    1.1048   -9.2215    3.2892 C   0  0  0  0  0  0  0  0  0  0  0  0
    1.2339   -9.7611    2.0189 C   0  0  0  0  0  0  0  0  0  0  0  0
    1.3583   -9.0036    0.9764 C   0  0  0  0  0  0  0  0  0  0  0  0
    1.7077   -9.6100   -0.3010 C   0  0  0  0  0  0  0  0  0  0  0  0
    1.3637   -7.1087    2.3226 C   0  0  0  0  0  0  0  0  0  0  0  0
    1.4257   -7.6645    1.0231 C   0  0  0  0  0  0  0  0  0  0  0  0
    1.9364   -8.8976   -1.3212 O   0  0  0  0  0  0  0  0  0  0  0  0
    1.5810  -10.8409   -0.4184 O   0  0  0  0  0  0  0  0  0  0  0  0
    1.3325   -5.6207    2.4687 C   0  0  0  0  0  0  0  0  0  0  0  0
    1.0037   -4.8749    1.3909 C   0  0  0  0  0  0  0  0  0  0  0  0
    1.1758   -3.4722    1.4892 C   0  0  0  0  0  0  0  0  0  0  0  0
    1.8400   -2.8769    2.5583 C   0  0  0  0  0  0  0  0  0  0  0  0
    2.1488   -3.6409    3.6984 C   0  0  0  0  0  0  0  0  0  0  0  0
    1.8883   -5.0176    3.6599 C   0  0  0  0  0  0  0  0  0  0  0  0
    1.0527  -10.1727    4.3754 Br  0  0  0  0  0  0  0  0  0  0  0  0
    0.7806   -2.5893    0.1725 I   0  0  0  0  0  0  0  0  0  0  0  0
    1.3229  -11.1662    1.9671 C   0  0  0  0  0  0  0  0  0  0  0  0
    0.2967  -12.0562    1.8214 C   0  0  0  0  0  0  0  0  0  0  0  0
    0.4414  -13.4758    1.8376 C   0  0  0  0  0  0  0  0  0  0  0  0
  4  5  1  0
  5  8  1  0
  5  9  2  0
  6 10  1  0
  2 16  1  0
 12 17  1  0
  3 18  1  0
 18 19  1  0
 19 20  1  0
 10 11  2  0
 11 12  1  0
 12 13  2  0
 13 14  1  0
 14 15  2  0
 10 15  1  0
  1  2  2  0
  2  3  1  0
  3  4  2  0
  4  7  1  0
  6  7  2  0
  1  6  1  0
M  END

$$$$
No_2779-/export/home/yangzhenyu/potential_scad_32_flow//YTHDC2/2024-12-06-03-22-00/
     RDKit          3D

 17 17  0  0  1  0  0  0  0  0999 V2000
    1.1787   -8.0297    3.5154 C   0  0  2  0  0  0  0  0  0  0  0  0
    1.0491   -6.8434    2.9820 C   0  0  0  0  0  0  0  0  0  0  0  0
    1.9985   -8.9840    2.8958 C   0  0  0  0  0  0  0  0  0  0  0  0
    1.9135  -10.3404    3.6266 C   0  0  0  0  0  0  0  0  0  0  0  0
    0.7479  -10.9191    3.7202 C   0  0  2  0  0  0  0  0  0  0  0  0
    1.8085   -5.7988    3.2380 N   0  0  0  0  0  0  0  0  0  0  0  0
   -0.3265  -10.2516    3.8200 C   0  0  0  0  0  0  0  0  0  0  0  0
   -0.1934   -8.7541    3.5933 C   0  0  0  0  0  0  0  0  0  0  0  0
    0.8127  -12.2865    4.1337 C   0  0  0  0  0  0  0  0  0  0  0  0
    1.0419  -13.2349    3.0075 C   0  0  0  0  0  0  0  0  0  0  0  0
    1.1300  -12.8081    1.7357 C   0  0  0  0  0  0  0  0  0  0  0  0
    2.1817  -14.2638    3.3157 C   0  0  0  0  0  0  0  0  0  0  0  0
    0.0880   -6.6039    2.0215 C   0  0  0  0  0  0  0  0  0  0  0  0
   -0.2233   -5.2566    1.6972 C   0  0  0  0  0  0  0  0  0  0  0  0
    0.5417   -4.2628    2.2747 Cl  0  0  0  0  0  0  0  0  0  0  0  0
   -1.2865   -5.0165    0.7471 C   0  0  0  0  0  0  0  0  0  0  0  0
   -1.8943   -6.0392    0.1253 C   0  0  0  0  0  0  0  0  0  0  0  0
  1  2  1  6
  1  3  1  0
  3  4  1  0
  4  5  1  0
  2  6  1  0
  5  7  1  0
  1  8  1  0
  7  8  1  0
  5  9  1  1
  9 10  1  0
 10 11  1  0
 10 12  1  0
  2 13  1  0
 13 14  2  3
 14 15  1  0
 14 16  1  0
 16 17  2  0
M  END

$$$$
No_2780-/export/home/yangzhenyu/potential_scad_32_flow//YTHDC2/2024-12-06-03-22-00/
     RDKit          3D

 19 19  0  0  0  0  0  0  0  0999 V2000
    1.1787   -8.0297    3.5154 C   0  0  0  0  0  0  0  0  0  0  0  0
    1.1048   -9.2215    3.2892 C   0  0  0  0  0  0  0  0  0  0  0  0
    1.2339   -9.7611    2.0189 C   0  0  0  0  0  0  0  0  0  0  0  0
    1.3583   -9.0036    0.9764 C   0  0  0  0  0  0  0  0  0  0  0  0
    1.5996   -7.6362    1.1311 C   0  0  0  0  0  0  0  0  0  0  0  0
    1.4830   -7.0928    2.3626 C   0  0  0  0  0  0  0  0  0  0  0  0
    1.5395   -5.7300    2.6182 C   0  0  0  0  0  0  0  0  0  0  0  0
    1.1775  -11.2233    1.8407 C   0  0  0  0  0  0  0  0  0  0  0  0
    0.7252  -11.5870    0.5412 O   0  0  0  0  0  0  0  0  0  0  0  0
    2.0095  -12.0297    2.4291 N   0  0  0  0  0  0  0  0  0  0  0  0
    1.5560  -13.3183    2.6484 C   0  0  0  0  0  0  0  0  0  0  0  0
    2.2221  -14.4500    2.0446 C   0  0  0  0  0  0  0  0  0  0  0  0
    1.8996  -15.7496    2.4735 O   0  0  0  0  0  0  0  0  0  0  0  0
    0.7980  -15.9293    3.0229 C   0  0  0  0  0  0  0  0  0  0  0  0
    1.6326   -5.1746    3.8646 O   0  0  0  0  0  0  0  0  0  0  0  0
    1.6990   -4.8514    1.6083 O   0  0  0  0  0  0  0  0  0  0  0  0
    0.9048  -16.8904    4.0786 C   0  0  0  0  0  0  0  0  0  0  0  0
    1.8890  -17.8932    4.0216 O   0  0  0  0  0  0  0  0  0  0  0  0
    0.3080  -16.9674    5.2481 O   0  0  0  0  0  0  0  0  0  0  0  0
  6  7  1  0
  3  8  1  0
  8  9  2  0
  8 10  1  0
 10 11  1  0
 11 12  1  0
 12 13  1  0
 13 14  1  0
  7 15  1  0
  7 16  2  0
 14 17  1  0
 17 18  1  0
 17 19  2  0
  1  2  2  0
  2  3  1  0
  3  4  2  0
  4  5  1  0
  5  6  2  0
  1  6  1  0
M  END

$$$$
No_2781-/export/home/yangzhenyu/potential_scad_32_flow//YTHDC2/2024-12-06-03-22-00/
     RDKit          3D

 17 18  0  0  1  0  0  0  0  0999 V2000
    1.1787   -8.0297    3.5154 C   0  0  0  0  0  0  0  0  0  0  0  0
    1.1048   -9.2215    3.2892 C   0  0  0  0  0  0  0  0  0  0  0  0
    1.2339   -9.7611    2.0189 C   0  0  0  0  0  0  0  0  0  0  0  0
    1.3583   -9.0036    0.9764 C   0  0  0  0  0  0  0  0  0  0  0  0
    1.5996   -7.6362    1.1311 C   0  0  0  0  0  0  0  0  0  0  0  0
    1.4758   -7.0006    2.1892 C   0  0  0  0  0  0  0  0  0  0  0  0
    1.3121   -5.6735    2.4579 C   0  0  0  0  0  0  0  0  0  0  0  0
    1.2126  -11.2190    1.8610 C   0  0  0  0  0  0  0  0  0  0  0  0
    0.5548  -11.9425    2.1937 C   0  0  0  0  0  0  0  0  0  0  0  0
    0.5168  -13.3650    1.9845 C   0  0  1  0  0  0  0  0  0  0  0  0
    1.7196  -14.1457    1.9320 C   0  0  0  0  0  0  0  0  0  0  0  0
    1.8019  -15.3732    1.9350 C   0  0  0  0  0  0  0  0  0  0  0  0
    0.7290  -16.1382    2.1369 C   0  0  0  0  0  0  0  0  0  0  0  0
   -0.5397  -15.5348    2.3062 C   0  0  0  0  0  0  0  0  0  0  0  0
   -0.6204  -14.1806    2.2871 C   0  0  0  0  0  0  0  0  0  0  0  0
   -1.7990  -13.6257    2.5098 O   0  0  0  0  0  0  0  0  0  0  0  0
    0.9567   -4.9714    1.2950 O   0  0  0  0  0  0  0  0  0  0  0  0
  6  7  1  0
  3  8  1  0
  8  9  2  3
  9 10  1  0
 10 11  1  1
 12 13  1  0
 10 15  1  0
 14 15  1  0
 15 16  2  0
  7 17  2  0
 11 12  1  0
 13 14  1  0
  1  2  2  0
  2  3  1  0
  3  4  2  0
  4  5  1  0
  5  6  2  0
  1  6  1  0
M  END

$$$$
No_2782-/export/home/yangzhenyu/potential_scad_32_flow//YTHDC2/2024-12-06-03-22-00/
     RDKit          3D

 17 17  0  0  0  0  0  0  0  0999 V2000
    1.1787   -8.0297    3.5154 C   0  0  0  0  0  0  0  0  0  0  0  0
    1.0491   -6.8434    2.9820 N   0  0  0  0  0  0  0  0  0  0  0  0
    1.0164   -9.0814    2.6596 C   0  0  0  0  0  0  0  0  0  0  0  0
    0.8420   -8.8183    1.4191 C   0  0  0  0  0  0  0  0  0  0  0  0
    0.8257   -7.4377    1.2233 C   0  0  0  0  0  0  0  0  0  0  0  0
    0.9947   -6.4434    1.9274 C   0  0  0  0  0  0  0  0  0  0  0  0
    0.9916   -5.1239    1.5207 C   0  0  0  0  0  0  0  0  0  0  0  0
    1.1044  -10.5007    3.1668 C   0  0  0  0  0  0  0  0  0  0  0  0
    0.0131  -11.2095    3.3022 O   0  0  0  0  0  0  0  0  0  0  0  0
    2.3253  -11.0089    3.4505 N   0  0  0  0  0  0  0  0  0  0  0  0
    0.2457   -4.2258    2.1930 O   0  0  0  0  0  0  0  0  0  0  0  0
    0.8273   -2.9981    2.7430 C   0  0  0  0  0  0  0  0  0  0  0  0
    0.8058   -9.8124    0.3579 C   0  0  0  0  0  0  0  0  0  0  0  0
   -0.3858  -10.3634    0.2677 O   0  0  0  0  0  0  0  0  0  0  0  0
    1.7846  -10.2544   -0.2655 O   0  0  0  0  0  0  0  0  0  0  0  0
    2.4007  -12.2630    4.0495 C   0  0  0  0  0  0  0  0  0  0  0  0
    2.3002  -13.3135    2.9409 C   0  0  0  0  0  0  0  0  0  0  0  0
  6  7  1  0
  3  8  1  0
  8  9  2  0
  8 10  1  0
  7 11  1  0
 11 12  1  0
  4 13  1  0
 13 14  1  0
 13 15  2  0
 10 16  1  0
 16 17  1  0
  1  2  2  0
  2  6  1  0
  5  6  2  0
  4  5  1  0
  3  4  2  0
  1  3  1  0
M  END

$$$$
No_2783-/export/home/yangzhenyu/potential_scad_32_flow//YTHDC2/2024-12-06-03-22-00/
     RDKit          3D

 18 20  0  0  0  0  0  0  0  0999 V2000
    1.1787   -8.0297    3.5154 C   0  0  0  0  0  0  0  0  0  0  0  0
    1.1048   -9.2215    3.2892 C   0  0  0  0  0  0  0  0  0  0  0  0
    1.3627  -10.1721    4.3044 C   0  0  0  0  0  0  0  0  0  0  0  0
    1.7354  -11.4730    3.9023 C   0  0  0  0  0  0  0  0  0  0  0  0
    1.8080  -11.8127    2.7216 C   0  0  0  0  0  0  0  0  0  0  0  0
    1.5854  -11.0021    1.7249 C   0  0  0  0  0  0  0  0  0  0  0  0
    1.3573   -9.7389    1.9287 C   0  0  0  0  0  0  0  0  0  0  0  0
    1.1102   -8.8712    0.9017 C   0  0  0  0  0  0  0  0  0  0  0  0
    0.5299   -7.6926    1.0325 C   0  0  0  0  0  0  0  0  0  0  0  0
    0.7526   -7.0802    2.3301 C   0  0  0  0  0  0  0  0  0  0  0  0
    2.0528  -13.2563    2.4302 C   0  0  0  0  0  0  0  0  0  0  0  0
    1.1153  -14.0523    1.8967 C   0  0  0  0  0  0  0  0  0  0  0  0
    0.6296  -14.8085    2.6366 C   0  0  0  0  0  0  0  0  0  0  0  0
   -0.6211  -15.1450    2.6475 C   0  0  0  0  0  0  0  0  0  0  0  0
   -1.3779  -14.9521    1.6510 C   0  0  0  0  0  0  0  0  0  0  0  0
   -0.8244  -14.1139    0.6267 C   0  0  0  0  0  0  0  0  0  0  0  0
    0.4280  -13.6004    0.7675 C   0  0  0  0  0  0  0  0  0  0  0  0
    0.6114   -5.7080    2.5490 C   0  0  0  0  0  0  0  0  0  0  0  0
  5 11  1  0
 11 12  1  0
 10 18  1  0
  1  2  2  0
  7  8  2  0
  8  9  1  0
  9 10  2  0
  1 10  1  0
  2  3  1  0
  3  4  2  0
  4  5  1  0
  5  6  2  0
  6  7  1  0
  2  7  1  0
 12 13  2  0
 13 14  1  0
 14 15  2  0
 15 16  1  0
 16 17  2  0
 12 17  1  0
M  END

$$$$
No_2784-/export/home/yangzhenyu/potential_scad_32_flow//YTHDC2/2024-12-06-03-22-00/
     RDKit          3D

 17 19  0  0  0  0  0  0  0  0999 V2000
    1.1787   -8.0297    3.5154 C   0  0  0  0  0  0  0  0  0  0  0  0
    1.0491   -6.8434    2.9820 C   0  0  0  0  0  0  0  0  0  0  0  0
    0.0950   -8.8404    3.2292 C   0  0  0  0  0  0  0  0  0  0  0  0
    0.0602  -10.1764    3.8231 C   0  0  0  0  0  0  0  0  0  0  0  0
    0.2248   -6.3830    2.0648 C   0  0  0  0  0  0  0  0  0  0  0  0
   -0.6745   -7.2322    1.6857 C   0  0  0  0  0  0  0  0  0  0  0  0
   -0.7374   -8.4992    2.1291 C   0  0  0  0  0  0  0  0  0  0  0  0
   -1.2197  -10.6611    4.0385 C   0  0  0  0  0  0  0  0  0  0  0  0
   -2.2122  -10.2766    3.1435 C   0  0  0  0  0  0  0  0  0  0  0  0
   -2.0039   -9.1685    2.3315 C   0  0  0  0  0  0  0  0  0  0  0  0
    0.2925   -5.1707    1.3181 C   0  0  0  0  0  0  0  0  0  0  0  0
   -0.5563   -4.5413    0.7244 C   0  0  0  0  0  0  0  0  0  0  0  0
   -0.4894   -3.3277    0.1380 C   0  0  0  0  0  0  0  0  0  0  0  0
   -1.0493   -2.4101   -0.0176 C   0  0  0  0  0  0  0  0  0  0  0  0
   -2.4931   -2.6154    0.3563 N   0  0  0  0  0  0  0  0  0  0  0  0
   -1.9859   -4.6844    0.8286 N   0  0  0  0  0  0  0  0  0  0  0  0
   -2.8484   -3.7988    0.7664 C   0  0  0  0  0  0  0  0  0  0  0  0
  5 11  1  0
 11 12  1  0
 12 13  2  0
 13 14  1  0
 14 15  2  0
 15 17  1  0
 16 17  2  0
 12 16  1  0
  1  2  2  0
  2  5  1  0
  5  6  2  0
  6  7  1  0
  1  3  1  0
  3  4  2  0
  4  8  1  0
  8  9  2  0
  9 10  1  0
  7 10  2  0
  3  7  1  0
M  END

$$$$
No_2785-/export/home/yangzhenyu/potential_scad_32_flow//YTHDC2/2024-12-06-03-22-00/
     RDKit          3D

 20 22  0  0  0  0  0  0  0  0999 V2000
    1.1787   -8.0297    3.5154 C   0  0  0  0  0  0  0  0  0  0  0  0
    1.1048   -9.2215    3.2892 N   0  0  0  0  0  0  0  0  0  0  0  0
    1.0346   -9.7785    2.1176 C   0  0  0  0  0  0  0  0  0  0  0  0
    1.1237  -11.2310    2.0784 C   0  0  0  0  0  0  0  0  0  0  0  0
    1.4532  -12.1118    3.1715 C   0  0  0  0  0  0  0  0  0  0  0  0
    1.0405   -7.1954    2.2050 C   0  0  0  0  0  0  0  0  0  0  0  0
    1.0819   -7.7262    1.0728 C   0  0  0  0  0  0  0  0  0  0  0  0
    1.1468   -9.1222    0.9023 C   0  0  0  0  0  0  0  0  0  0  0  0
    1.3768  -13.4734    2.9685 C   0  0  0  0  0  0  0  0  0  0  0  0
    1.0060  -14.0737    1.9304 C   0  0  0  0  0  0  0  0  0  0  0  0
    0.7970  -13.3883    0.8124 C   0  0  0  0  0  0  0  0  0  0  0  0
    0.8672  -11.9693    0.8537 C   0  0  0  0  0  0  0  0  0  0  0  0
    1.1342   -5.6744    2.4008 Cl  0  0  0  0  0  0  0  0  0  0  0  0
    1.0569  -15.4821    1.9247 C   0  0  0  0  0  0  0  0  0  0  0  0
    2.1852  -16.1330    2.1397 C   0  0  0  0  0  0  0  0  0  0  0  0
    2.1951  -17.5705    2.3361 C   0  0  0  0  0  0  0  0  0  0  0  0
    1.1208  -18.3032    2.3327 C   0  0  0  0  0  0  0  0  0  0  0  0
   -0.0265  -17.7239    1.9921 C   0  0  0  0  0  0  0  0  0  0  0  0
   -0.1030  -16.3327    1.8939 C   0  0  0  0  0  0  0  0  0  0  0  0
   -1.3301  -15.6808    1.7078 Cl  0  0  0  0  0  0  0  0  0  0  0  0
  3  4  1  0
  6 13  1  0
 10 14  1  0
 19 20  1  0
 14 15  2  0
 15 16  1  0
 16 17  2  0
 17 18  1  0
 18 19  2  0
 14 19  1  0
  1  2  2  0
  2  3  1  0
  3  8  2  0
  7  8  1  0
  6  7  2  0
  1  6  1  0
  4  5  2  0
  5  9  1  0
  9 10  2  0
 10 11  1  0
 11 12  2  0
  4 12  1  0
M  END

$$$$
No_2786-/export/home/yangzhenyu/potential_scad_32_flow//YTHDC2/2024-12-06-03-22-00/
     RDKit          3D

 19 20  0  0  1  0  0  0  0  0999 V2000
    1.1787   -8.0297    3.5154 C   0  0  0  0  0  0  0  0  0  0  0  0
    1.1048   -9.2215    3.2892 C   0  0  0  0  0  0  0  0  0  0  0  0
    1.3627  -10.1721    4.3044 C   0  0  0  0  0  0  0  0  0  0  0  0
    2.3720  -10.8948    4.2468 C   0  0  0  0  0  0  0  0  0  0  0  0
    2.9262  -11.1926    3.1170 C   0  0  0  0  0  0  0  0  0  0  0  0
    2.5807  -10.4593    1.9550 C   0  0  0  0  0  0  0  0  0  0  0  0
    1.7065   -9.4353    2.0233 C   0  0  0  0  0  0  0  0  0  0  0  0
    1.3623   -8.6610    1.0017 C   0  0  2  0  0  0  0  0  0  0  0  0
    0.6938   -7.5136    1.2430 C   0  0  0  0  0  0  0  0  0  0  0  0
    0.6151   -7.0124    2.4820 C   0  0  2  0  0  0  0  0  0  0  0  0
    1.5739   -9.0102   -0.3288 C   0  0  0  0  0  0  0  0  0  0  0  0
    2.7958   -9.3956   -0.7074 O   0  0  0  0  0  0  0  0  0  0  0  0
    0.7049   -9.0221   -1.1894 O   0  0  0  0  0  0  0  0  0  0  0  0
    1.0329   -5.6356    2.6550 C   0  0  0  0  0  0  0  0  0  0  0  0
    1.5621   -5.3475    3.8110 O   0  0  0  0  0  0  0  0  0  0  0  0
    0.9871   -4.8010    1.7565 O   0  0  0  0  0  0  0  0  0  0  0  0
    2.5989  -11.8690    5.2844 O   0  0  0  0  0  0  0  0  0  0  0  0
   -0.9357   -6.8528    2.6473 O   0  0  0  0  0  0  0  0  0  0  0  0
   -1.6781   -7.8395    3.1577 C   0  0  0  0  0  0  0  0  0  0  0  0
  1  2  1  0
  7  8  1  0
  1 10  1  0
  9 10  1  0
  8 11  1  6
 11 12  1  0
 11 13  2  0
 10 14  1  0
 14 15  1  0
 14 16  2  0
  4 17  1  0
 10 18  1  1
 18 19  1  0
  8  9  1  0
  2  3  2  0
  3  4  1  0
  4  5  2  0
  5  6  1  0
  6  7  2  0
  2  7  1  0
M  END

$$$$
No_2787-/export/home/yangzhenyu/potential_scad_32_flow//YTHDC2/2024-12-06-03-22-00/
     RDKit          3D

 18 19  0  0  0  0  0  0  0  0999 V2000
    1.1787   -8.0297    3.5154 C   0  0  0  0  0  0  0  0  0  0  0  0
    1.1048   -9.2215    3.2892 C   0  0  0  0  0  0  0  0  0  0  0  0
    1.2339   -9.7611    2.0189 C   0  0  0  0  0  0  0  0  0  0  0  0
    1.3583   -9.0036    0.9764 C   0  0  0  0  0  0  0  0  0  0  0  0
    1.5996   -7.6362    1.1311 C   0  0  0  0  0  0  0  0  0  0  0  0
    1.4830   -7.0928    2.3626 C   0  0  0  0  0  0  0  0  0  0  0  0
    1.1008  -11.2372    1.8542 C   0  0  0  0  0  0  0  0  0  0  0  0
    0.5178  -11.9759    2.3445 C   0  0  0  0  0  0  0  0  0  0  0  0
   -0.4557  -11.5167    3.4352 C   0  0  0  0  0  0  0  0  0  0  0  0
    0.4022  -13.4411    2.1639 C   0  0  0  0  0  0  0  0  0  0  0  0
    1.5169  -14.2106    2.7792 C   0  0  0  0  0  0  0  0  0  0  0  0
    1.4602  -15.6351    2.6122 C   0  0  0  0  0  0  0  0  0  0  0  0
    0.5317  -16.1966    1.9360 C   0  0  0  0  0  0  0  0  0  0  0  0
   -0.3901  -15.4721    1.2329 C   0  0  0  0  0  0  0  0  0  0  0  0
   -1.3525  -16.2147    0.5806 C   0  0  0  0  0  0  0  0  0  0  0  0
   -0.5332  -14.1256    1.4720 C   0  0  0  0  0  0  0  0  0  0  0  0
   -1.5117  -13.3835    0.9183 C   0  0  0  0  0  0  0  0  0  0  0  0
   -2.7450  -13.5121    0.8864 C   0  0  0  0  0  0  0  0  0  0  0  0
  3  7  1  0
  7  8  2  3
  8  9  1  0
  8 10  1  0
 14 15  1  0
 16 17  1  0
 17 18  2  0
  1  2  2  0
  2  3  1  0
  3  4  2  0
  4  5  1  0
  5  6  2  0
  1  6  1  0
 10 11  2  0
 11 12  1  0
 12 13  2  0
 13 14  1  0
 14 16  2  0
 10 16  1  0
M  END

$$$$
No_2788-/export/home/yangzhenyu/potential_scad_32_flow//YTHDC2/2024-12-06-03-22-00/
     RDKit          3D

 18 18  0  0  1  0  0  0  0  0999 V2000
    1.1787   -8.0297    3.5154 C   0  0  0  0  0  0  0  0  0  0  0  0
    1.1048   -9.2215    3.2892 C   0  0  0  0  0  0  0  0  0  0  0  0
    1.2339   -9.7611    2.0189 C   0  0  0  0  0  0  0  0  0  0  0  0
    1.3583   -9.0036    0.9764 C   0  0  0  0  0  0  0  0  0  0  0  0
    1.5996   -7.6362    1.1311 C   0  0  0  0  0  0  0  0  0  0  0  0
    1.4830   -7.0928    2.3626 C   0  0  0  0  0  0  0  0  0  0  0  0
    1.4898   -5.7274    2.6199 C   0  0  2  0  0  0  0  0  0  0  0  0
    1.1681  -11.2222    1.8390 C   0  0  0  0  0  0  0  0  0  0  0  0
    0.5014  -11.9760    2.2068 C   0  0  0  0  0  0  0  0  0  0  0  0
    0.4167  -13.3685    2.0527 C   0  0  0  0  0  0  0  0  0  0  0  0
   -0.6161  -14.0718    1.8701 C   0  0  0  0  0  0  0  0  0  0  0  0
   -0.5561  -15.5453    1.8466 C   0  0  0  0  0  0  0  0  0  0  0  0
    0.7310  -16.1377    2.1551 F   0  0  0  0  0  0  0  0  0  0  0  0
   -1.5018  -16.3787    1.9343 O   0  0  0  0  0  0  0  0  0  0  0  0
    1.7018   -5.1730    3.8678 C   0  0  0  0  0  0  0  0  0  0  0  0
    0.6452   -4.9663    1.7474 C   0  0  0  0  0  0  0  0  0  0  0  0
   -0.4569   -5.4044    1.3805 O   0  0  0  0  0  0  0  0  0  0  0  0
    0.8177   -3.6199    1.4451 O   0  0  0  0  0  0  0  0  0  0  0  0
  6  7  1  0
  3  8  1  0
  8  9  2  3
  9 10  1  0
 10 11  1  0
 11 12  2  3
 12 13  1  0
 12 14  1  0
  7 15  1  1
  7 16  1  0
 16 17  2  0
 16 18  1  0
  1  2  2  0
  2  3  1  0
  3  4  2  0
  4  5  1  0
  5  6  2  0
  1  6  1  0
M  END

$$$$
No_2789-/export/home/yangzhenyu/potential_scad_32_flow//YTHDC2/2024-12-06-03-22-00/
     RDKit          3D

 16 16  0  0  0  0  0  0  0  0999 V2000
    1.1787   -8.0297    3.5154 C   0  0  0  0  0  0  0  0  0  0  0  0
    1.0491   -6.8434    2.9820 C   0  0  0  0  0  0  0  0  0  0  0  0
    0.0950   -8.8404    3.2292 C   0  0  0  0  0  0  0  0  0  0  0  0
   -0.9173   -8.4596    2.5152 C   0  0  0  0  0  0  0  0  0  0  0  0
   -1.0331   -7.2162    2.0653 C   0  0  0  0  0  0  0  0  0  0  0  0
   -0.0105   -6.3168    2.3081 C   0  0  0  0  0  0  0  0  0  0  0  0
    0.0485   -4.9783    1.8782 C   0  0  0  0  0  0  0  0  0  0  0  0
    0.9625   -4.1072    2.3252 O   0  0  0  0  0  0  0  0  0  0  0  0
   -0.9023   -4.3813    1.1355 O   0  0  0  0  0  0  0  0  0  0  0  0
    0.2401  -10.4937    3.7170 Cl  0  0  0  0  0  0  0  0  0  0  0  0
   -2.2799   -6.8002    1.5530 C   0  0  0  0  0  0  0  0  0  0  0  0
   -2.2798   -6.9027    0.0951 O   0  0  0  0  0  0  0  0  0  0  0  0
   -3.2781   -6.5098    2.2065 O   0  0  0  0  0  0  0  0  0  0  0  0
   -0.8098   -2.9454    0.7585 C   0  0  0  0  0  0  0  0  0  0  0  0
   -1.6910   -2.6330   -0.1896 C   0  0  0  0  0  0  0  0  0  0  0  0
   -1.5761   -1.6342   -0.8634 C   0  0  0  0  0  0  0  0  0  0  0  0
  6  7  1  0
  7  8  2  0
  7  9  1  0
  3 10  1  0
  5 11  1  0
 11 12  2  0
 11 13  1  0
  9 14  1  0
 14 15  1  0
 15 16  2  0
  1  2  2  0
  2  6  1  0
  5  6  2  0
  4  5  1  0
  3  4  2  0
  1  3  1  0
M  END

$$$$
No_2790-/export/home/yangzhenyu/potential_scad_32_flow//YTHDC2/2024-12-06-03-22-00/
     RDKit          3D

 18 19  0  0  1  0  0  0  0  0999 V2000
    1.1787   -8.0297    3.5154 C   0  0  0  0  0  0  0  0  0  0  0  0
    1.1048   -9.2215    3.2892 C   0  0  0  0  0  0  0  0  0  0  0  0
    1.2339   -9.7611    2.0189 C   0  0  0  0  0  0  0  0  0  0  0  0
    1.3583   -9.0036    0.9764 C   0  0  0  0  0  0  0  0  0  0  0  0
    1.5996   -7.6362    1.1311 C   0  0  0  0  0  0  0  0  0  0  0  0
    1.4830   -7.0928    2.3626 C   0  0  0  0  0  0  0  0  0  0  0  0
    1.4898   -5.7274    2.6199 C   0  0  0  0  0  0  0  0  0  0  0  0
    1.1882  -11.3736    1.8424 C   0  0  2  0  0  0  0  0  0  0  0  0
    1.7911  -12.1283    2.5447 C   0  0  0  0  0  0  0  0  0  0  0  0
    1.6235  -13.4929    2.1108 C   0  0  0  0  0  0  0  0  0  0  0  0
    0.7288  -13.4453    0.9256 C   0  0  0  0  0  0  0  0  0  0  0  0
    0.5977  -11.9630    0.8196 C   0  0  0  0  0  0  0  0  0  0  0  0
    2.0229  -14.7120    2.6277 C   0  0  0  0  0  0  0  0  0  0  0  0
    1.2546   -4.8665    1.6097 O   0  0  0  0  0  0  0  0  0  0  0  0
    1.7671   -5.1440    3.7948 O   0  0  0  0  0  0  0  0  0  0  0  0
    1.2837  -15.5564    3.2617 N   0  0  0  0  0  0  0  0  0  0  0  0
    1.4753  -16.8392    3.4652 C   0  0  0  0  0  0  0  0  0  0  0  0
    2.6803  -17.3827    3.1563 C   0  0  0  0  0  0  0  0  0  0  0  0
  6  7  1  0
  8  3  1  6
  8  9  1  0
  9 10  2  0
 10 11  1  0
  8 12  1  0
 11 12  1  0
 10 13  1  0
  7 14  2  0
  7 15  1  0
 13 16  1  0
 16 17  1  0
 17 18  2  0
  1  2  2  0
  2  3  1  0
  3  4  2  0
  4  5  1  0
  5  6  2  0
  1  6  1  0
M  END

$$$$
No_2791-/export/home/yangzhenyu/potential_scad_32_flow//YTHDC2/2024-12-06-03-22-00/
     RDKit          3D

 19 20  0  0  1  0  0  0  0  0999 V2000
    1.1787   -8.0297    3.5154 C   0  0  0  0  0  0  0  0  0  0  0  0
    1.1048   -9.2215    3.2892 C   0  0  0  0  0  0  0  0  0  0  0  0
    1.2339   -9.7611    2.0189 C   0  0  0  0  0  0  0  0  0  0  0  0
    1.3583   -9.0036    0.9764 C   0  0  0  0  0  0  0  0  0  0  0  0
    1.5996   -7.6362    1.1311 C   0  0  0  0  0  0  0  0  0  0  0  0
    1.4830   -7.0928    2.3626 C   0  0  0  0  0  0  0  0  0  0  0  0
    1.1008  -11.2372    1.8542 C   0  0  2  0  0  0  0  0  0  0  0  0
    1.9749  -12.0938    2.2342 C   0  0  0  0  0  0  0  0  0  0  0  0
    1.7533  -13.4231    1.8956 C   0  0  1  0  0  0  0  0  0  0  0  0
    0.8624  -13.8318    1.1071 C   0  0  0  0  0  0  0  0  0  0  0  0
   -0.0624  -12.9093    0.5581 C   0  0  1  0  0  0  0  0  0  0  0  0
    0.1157  -11.5285    0.9404 C   0  0  0  0  0  0  0  0  0  0  0  0
    1.5561   -5.6354    2.6426 Cl  0  0  0  0  0  0  0  0  0  0  0  0
   -0.8099  -10.6546    0.4317 O   0  0  0  0  0  0  0  0  0  0  0  0
    2.7479  -14.3804    2.4442 Cl  0  0  0  0  0  0  0  0  0  0  0  0
    1.5859   -9.4137   -0.3606 N   0  0  0  0  0  0  0  0  0  0  0  0
    2.7377   -9.3497   -1.1603 O   0  0  0  0  0  0  0  0  0  0  0  0
    0.8651  -10.1536    4.3899 O   0  0  0  0  0  0  0  0  0  0  0  0
   -1.2364  -13.3701   -0.5123 O   0  0  0  0  0  0  0  0  0  0  0  0
  7  3  1  6
  7  8  1  0
  9 10  1  0
  7 12  1  0
 11 12  1  0
  6 13  1  0
 12 14  2  0
  9 15  1  6
  4 16  1  0
 16 17  2  0
  2 18  1  0
 11 19  1  6
  8  9  1  0
 10 11  1  0
  1  2  2  0
  2  3  1  0
  3  4  2  0
  4  5  1  0
  5  6  2  0
  1  6  1  0
M  END

$$$$
No_2792-/export/home/yangzhenyu/potential_scad_32_flow//YTHDC2/2024-12-06-03-22-00/
     RDKit          3D

 18 19  0  0  1  0  0  0  0  0999 V2000
    1.1787   -8.0297    3.5154 C   0  0  0  0  0  0  0  0  0  0  0  0
    1.1048   -9.2215    3.2892 C   0  0  0  0  0  0  0  0  0  0  0  0
    1.2339   -9.7611    2.0189 C   0  0  1  0  0  0  0  0  0  0  0  0
    1.1954  -11.2312    1.8661 C   0  0  0  0  0  0  0  0  0  0  0  0
    1.5546  -12.1691    2.7931 C   0  0  0  0  0  0  0  0  0  0  0  0
    0.5849   -7.0929    2.5729 C   0  0  2  0  0  0  0  0  0  0  0  0
    0.5567   -7.6699    1.1955 C   0  0  0  0  0  0  0  0  0  0  0  0
    0.7903   -8.9699    0.9209 C   0  0  0  0  0  0  0  0  0  0  0  0
    1.5521  -13.4960    2.3485 C   0  0  0  0  0  0  0  0  0  0  0  0
    1.2403  -13.8919    1.1557 C   0  0  0  0  0  0  0  0  0  0  0  0
    1.0311  -12.9707    0.1488 C   0  0  0  0  0  0  0  0  0  0  0  0
    0.9678  -11.6394    0.4949 C   0  0  0  0  0  0  0  0  0  0  0  0
    0.6235   -5.6335    2.6368 C   0  0  0  0  0  0  0  0  0  0  0  0
    0.2278   -6.8546    0.2236 O   0  0  0  0  0  0  0  0  0  0  0  0
   -0.5856   -5.0099    2.5660 C   0  0  0  0  0  0  0  0  0  0  0  0
   -0.6056   -3.5570    2.4470 C   0  0  0  0  0  0  0  0  0  0  0  0
    0.6095   -2.9048    2.6608 C   0  0  0  0  0  0  0  0  0  0  0  0
    1.8163   -3.5701    2.9128 C   0  0  0  0  0  0  0  0  0  0  0  0
  1  2  1  0
  3  4  1  1
  6  7  1  0
  3  8  1  0
  7  8  1  0
  6 13  1  6
  7 14  2  0
 13 15  1  0
 15 16  2  3
 16 17  1  0
 17 18  2  0
  1  6  1  0
  2  3  1  0
  4  5  2  0
  5  9  1  0
  9 10  2  0
 10 11  1  0
 11 12  2  0
  4 12  1  0
M  END

$$$$
No_2793-/export/home/yangzhenyu/potential_scad_32_flow//YTHDC2/2024-12-06-03-22-00/
     RDKit          3D

 20 20  0  0  1  0  0  0  0  0999 V2000
    1.1787   -8.0297    3.5154 C   0  0  0  0  0  0  0  0  0  0  0  0
    1.1048   -9.2215    3.2892 C   0  0  0  0  0  0  0  0  0  0  0  0
    1.3627  -10.1721    4.3044 C   0  0  0  0  0  0  0  0  0  0  0  0
    2.3720  -10.8948    4.2468 C   0  0  0  0  0  0  0  0  0  0  0  0
    1.0579   -7.0441    2.4219 C   0  0  0  0  0  0  0  0  0  0  0  0
    0.8578   -7.4970    1.1686 C   0  0  0  0  0  0  0  0  0  0  0  0
    0.7382   -8.7683    0.8754 C   0  0  0  0  0  0  0  0  0  0  0  0
    0.8882   -9.7347    1.9238 C   0  0  0  0  0  0  0  0  0  0  0  0
    0.9437  -11.0299    1.7005 C   0  0  0  0  0  0  0  0  0  0  0  0
    1.9466  -11.5929    1.1835 O   0  0  0  0  0  0  0  0  0  0  0  0
   -0.0796  -11.8335    2.0221 N   0  0  0  0  0  0  0  0  0  0  0  0
   -0.1706  -13.2151    1.7330 C   0  0  1  0  0  0  0  0  0  0  0  0
    0.4463  -14.0998    2.4803 C   0  0  0  0  0  0  0  0  0  0  0  0
    0.3080  -15.4218    2.4384 O   0  0  0  0  0  0  0  0  0  0  0  0
    1.4501  -13.5837    3.2768 O   0  0  0  0  0  0  0  0  0  0  0  0
    1.2107   -5.5963    2.6682 Cl  0  0  0  0  0  0  0  0  0  0  0  0
    3.3437  -10.6804    5.4995 O   0  0  0  0  0  0  0  0  0  0  0  0
   -1.6278  -13.6217    1.6450 C   0  0  0  0  0  0  0  0  0  0  0  0
   -2.3124  -12.9706    1.0246 C   0  0  0  0  0  0  0  0  0  0  0  0
   -3.3640  -12.3614    1.5713 C   0  0  0  0  0  0  0  0  0  0  0  0
  2  3  1  0
  3  4  1  0
  8  9  1  0
  9 10  2  0
  9 11  1  0
 11 12  1  0
 12 13  1  0
 13 14  2  0
 13 15  1  0
  5 16  1  0
  4 17  1  0
 12 18  1  1
 18 19  1  0
 19 20  2  0
  1  2  2  0
  2  8  1  0
  7  8  2  0
  6  7  1  0
  5  6  2  0
  1  5  1  0
M  END

$$$$
No_2794-/export/home/yangzhenyu/potential_scad_32_flow//YTHDC2/2024-12-06-03-22-00/
     RDKit          3D

 18 19  0  0  1  0  0  0  0  0999 V2000
    1.1787   -8.0297    3.5154 C   0  0  0  0  0  0  0  0  0  0  0  0
    1.1048   -9.2215    3.2892 C   0  0  0  0  0  0  0  0  0  0  0  0
    1.3627  -10.1721    4.3044 C   0  0  0  0  0  0  0  0  0  0  0  0
    1.7354  -11.4730    3.9023 C   0  0  0  0  0  0  0  0  0  0  0  0
    1.8080  -11.8127    2.7216 C   0  0  0  0  0  0  0  0  0  0  0  0
    1.5854  -11.0021    1.7249 C   0  0  0  0  0  0  0  0  0  0  0  0
    1.3573   -9.7389    1.9287 C   0  0  0  0  0  0  0  0  0  0  0  0
    1.2865   -8.8078    0.9161 C   0  0  0  0  0  0  0  0  0  0  0  0
    1.6845   -9.1638   -0.2896 O   0  0  0  0  0  0  0  0  0  0  0  0
    0.6173   -7.6210    0.9782 N   0  0  0  0  0  0  0  0  0  0  0  0
    0.6678   -7.1338    2.2964 C   0  0  2  0  0  0  0  0  0  0  0  0
    0.4336   -5.7725    2.4079 C   0  0  0  0  0  0  0  0  0  0  0  0
   -0.8860   -5.3331    2.1801 O   0  0  0  0  0  0  0  0  0  0  0  0
    1.4319   -4.7981    2.3667 O   0  0  0  0  0  0  0  0  0  0  0  0
    2.0625  -13.2198    2.3600 O   0  0  0  0  0  0  0  0  0  0  0  0
    1.7497  -14.2603    3.0376 C   0  0  0  0  0  0  0  0  0  0  0  0
    1.1433  -15.2914    2.1796 C   0  0  0  0  0  0  0  0  0  0  0  0
    1.4715  -16.4740    2.5720 O   0  0  0  0  0  0  0  0  0  0  0  0
  1  2  1  0
  7  8  1  0
  8  9  2  0
  8 10  1  0
  1 11  1  0
 10 11  1  0
 11 12  1  6
 12 13  2  0
 12 14  1  0
  5 15  1  0
 15 16  1  0
 16 17  1  0
 17 18  1  0
  2  3  2  0
  3  4  1  0
  4  5  2  0
  5  6  1  0
  6  7  2  0
  2  7  1  0
M  END

$$$$
No_2795-/export/home/yangzhenyu/potential_scad_32_flow//YTHDC2/2024-12-06-03-22-00/
     RDKit          3D

 21 23  0  0  1  0  0  0  0  0999 V2000
    1.1787   -8.0297    3.5154 C   0  0  0  0  0  0  0  0  0  0  0  0
    1.1048   -9.2215    3.2892 C   0  0  0  0  0  0  0  0  0  0  0  0
    1.2339   -9.7611    2.0189 C   0  0  0  0  0  0  0  0  0  0  0  0
    1.3583   -9.0036    0.9764 C   0  0  0  0  0  0  0  0  0  0  0  0
    1.5996   -7.6362    1.1311 C   0  0  0  0  0  0  0  0  0  0  0  0
    1.4830   -7.0928    2.3626 C   0  0  0  0  0  0  0  0  0  0  0  0
    1.5395   -5.7300    2.6182 C   0  0  0  0  0  0  0  0  0  0  0  0
    1.1775  -11.2233    1.8407 C   0  0  0  0  0  0  0  0  0  0  0  0
    1.9057  -12.1147    2.3397 C   0  0  1  0  0  0  0  0  0  0  0  0
    1.8570  -12.2582    3.5930 C   0  0  0  0  0  0  0  0  0  0  0  0
    1.7771  -13.4969    1.6993 C   0  0  0  0  0  0  0  0  0  0  0  0
    1.3218   -4.8052    1.6673 C   0  0  0  0  0  0  0  0  0  0  0  0
    1.2931   -3.3800    1.9320 C   0  0  0  0  0  0  0  0  0  0  0  0
    1.0946  -13.0594    4.1098 C   0  0  0  0  0  0  0  0  0  0  0  0
    1.2691  -14.2011    2.9731 C   0  0  1  0  0  0  0  0  0  0  0  0
    0.3386  -15.2315    2.8590 C   0  0  0  0  0  0  0  0  0  0  0  0
   -0.7741  -15.1260    2.7516 C   0  0  0  0  0  0  0  0  0  0  0  0
   -1.6884  -16.2486    2.8343 C   0  0  0  0  0  0  0  0  0  0  0  0
   -1.2009  -17.5003    2.9505 C   0  0  0  0  0  0  0  0  0  0  0  0
    0.2096  -17.6810    3.1672 C   0  0  0  0  0  0  0  0  0  0  0  0
    1.0341  -16.5515    3.1193 C   0  0  0  0  0  0  0  0  0  0  0  0
  6  7  1  0
  3  8  1  0
  9  8  1  6
  9 10  1  0
  9 11  1  0
  7 12  2  3
 12 13  1  0
 10 14  1  0
 11 15  1  0
 14 15  1  0
 15 16  1  6
  1  2  2  0
  2  3  1  0
  3  4  2  0
  4  5  1  0
  5  6  2  0
  1  6  1  0
 16 17  2  0
 17 18  1  0
 18 19  2  0
 19 20  1  0
 20 21  2  0
 16 21  1  0
M  END

$$$$
No_2796-/export/home/yangzhenyu/potential_scad_32_flow//YTHDC2/2024-12-06-03-22-00/
     RDKit          3D

 17 17  0  0  0  0  0  0  0  0999 V2000
    1.1787   -8.0297    3.5154 C   0  0  0  0  0  0  0  0  0  0  0  0
    1.1048   -9.2215    3.2892 C   0  0  0  0  0  0  0  0  0  0  0  0
    1.3627  -10.1721    4.3044 C   0  0  0  0  0  0  0  0  0  0  0  0
    1.7354  -11.4730    3.9023 C   0  0  0  0  0  0  0  0  0  0  0  0
    1.8080  -11.8127    2.7216 C   0  0  0  0  0  0  0  0  0  0  0  0
    1.5854  -11.0021    1.7249 C   0  0  0  0  0  0  0  0  0  0  0  0
    1.3573   -9.7389    1.9287 C   0  0  0  0  0  0  0  0  0  0  0  0
    1.2865   -8.8078    0.9161 C   0  0  0  0  0  0  0  0  0  0  0  0
    1.6845   -9.1638   -0.2896 C   0  0  0  0  0  0  0  0  0  0  0  0
    2.0771  -13.2284    2.3629 C   0  0  0  0  0  0  0  0  0  0  0  0
    1.1553  -14.0102    1.6102 N   0  0  0  0  0  0  0  0  0  0  0  0
    1.5700  -15.0581    1.0240 C   0  0  0  0  0  0  0  0  0  0  0  0
    0.6090  -15.6100    0.2189 O   0  0  0  0  0  0  0  0  0  0  0  0
    2.4073  -16.1074    1.5180 O   0  0  0  0  0  0  0  0  0  0  0  0
    1.6769   -8.1041   -1.3450 O   0  0  0  0  0  0  0  0  0  0  0  0
    0.1168   -7.2029    3.3737 N   0  0  0  0  0  0  0  0  0  0  0  0
    0.1732   -5.9109    2.8391 C   0  0  0  0  0  0  0  0  0  0  0  0
  1  2  1  0
  7  8  1  0
  8  9  2  3
  5 10  1  0
 10 11  1  0
 11 12  1  0
 12 13  2  0
 12 14  1  0
  9 15  1  0
  1 16  1  0
 16 17  1  0
  2  3  2  0
  3  4  1  0
  4  5  2  0
  5  6  1  0
  6  7  2  0
  2  7  1  0
M  END

$$$$
No_2797-/export/home/yangzhenyu/potential_scad_32_flow//YTHDC2/2024-12-06-03-22-00/
     RDKit          3D

 18 19  0  0  0  0  0  0  0  0999 V2000
    1.1787   -8.0297    3.5154 C   0  0  0  0  0  0  0  0  0  0  0  0
    1.1048   -9.2215    3.2892 C   0  0  0  0  0  0  0  0  0  0  0  0
    1.3627  -10.1721    4.3044 C   0  0  0  0  0  0  0  0  0  0  0  0
    1.0682  -11.5187    4.0618 C   0  0  0  0  0  0  0  0  0  0  0  0
    0.6332  -11.9655    2.9682 C   0  0  0  0  0  0  0  0  0  0  0  0
    0.4776  -11.1308    1.9203 C   0  0  0  0  0  0  0  0  0  0  0  0
    0.7470   -9.8274    2.0368 C   0  0  0  0  0  0  0  0  0  0  0  0
    1.8805   -7.1616    3.5538 N   0  0  0  0  0  0  0  0  0  0  0  0
    0.3734  -13.4254    2.7840 C   0  0  0  0  0  0  0  0  0  0  0  0
    1.3568  -14.3373    3.1236 C   0  0  0  0  0  0  0  0  0  0  0  0
    1.1354  -15.7062    3.0089 C   0  0  0  0  0  0  0  0  0  0  0  0
   -0.0208  -16.1349    2.5641 C   0  0  0  0  0  0  0  0  0  0  0  0
   -0.9547  -15.2963    2.1331 C   0  0  0  0  0  0  0  0  0  0  0  0
   -0.7107  -13.9143    2.2662 C   0  0  0  0  0  0  0  0  0  0  0  0
   -0.2672   -7.5200    3.1720 N   0  0  0  0  0  0  0  0  0  0  0  0
    0.8457   -8.9630    0.9402 C   0  0  0  0  0  0  0  0  0  0  0  0
    0.9493   -9.1932   -0.0928 C   0  0  0  0  0  0  0  0  0  0  0  0
    2.8752   -7.3193    3.6299 H   0  0  0  0  0  0  0  0  0  0  0  0
  1  2  1  0
  1  8  2  0
  5  9  1  0
  1 15  1  0
  7 16  1  0
 16 17  2  0
  2  3  2  0
  3  4  1  0
  4  5  2  0
  5  6  1  0
  6  7  2  0
  2  7  1  0
  9 10  2  0
 10 11  1  0
 11 12  2  0
 12 13  1  0
 13 14  2  0
  9 14  1  0
  8 18  1  0
M  END

$$$$
No_2798-/export/home/yangzhenyu/potential_scad_32_flow//YTHDC2/2024-12-06-03-22-00/
     RDKit          3D

 19 20  0  0  1  0  0  0  0  0999 V2000
    1.1787   -8.0297    3.5154 C   0  0  0  0  0  0  0  0  0  0  0  0
    1.0491   -6.8434    2.9820 C   0  0  0  0  0  0  0  0  0  0  0  0
    0.9905   -9.0774    2.6527 C   0  0  0  0  0  0  0  0  0  0  0  0
    0.7897   -8.9519    1.3691 C   0  0  0  0  0  0  0  0  0  0  0  0
    0.7018   -7.7198    0.7892 C   0  0  0  0  0  0  0  0  0  0  0  0
    0.8918   -6.5957    1.6117 C   0  0  0  0  0  0  0  0  0  0  0  0
    1.0600  -10.5680    3.3321 C   0  0  0  0  0  0  0  0  0  0  0  0
    2.1422  -11.0089    3.6867 C   0  0  0  0  0  0  0  0  0  0  0  0
    0.8986   -5.2530    1.1685 O   0  0  0  0  0  0  0  0  0  0  0  0
   -0.0631  -11.2110    3.4552 C   0  0  0  0  0  0  0  0  0  0  0  0
   -1.1757  -10.4983    4.0228 C   0  0  2  0  0  0  0  0  0  0  0  0
    2.1345  -11.9542    4.7132 N   0  0  0  0  0  0  0  0  0  0  0  0
   -1.0114   -9.6844    5.1818 C   0  0  0  0  0  0  0  0  0  0  0  0
   -2.1077   -8.8735    5.5045 C   0  0  0  0  0  0  0  0  0  0  0  0
   -3.2633   -9.0426    4.9264 C   0  0  0  0  0  0  0  0  0  0  0  0
   -3.5019   -9.8720    3.9767 C   0  0  0  0  0  0  0  0  0  0  0  0
   -2.4817  -10.6760    3.5582 C   0  0  0  0  0  0  0  0  0  0  0  0
   -2.6915  -11.5115    2.5170 O   0  0  0  0  0  0  0  0  0  0  0  0
    1.2597  -12.2433    5.1269 H   0  0  0  0  0  0  0  0  0  0  0  0
  1  2  1  0
  3  4  1  0
  2  6  1  0
  5  6  1  0
  3  7  1  0
  7  8  1  0
  6  9  2  0
  7 10  1  0
 11 10  1  1
  8 12  2  0
 11 13  1  0
 14 15  1  0
 11 17  1  0
 16 17  1  0
 17 18  2  0
 13 14  1  0
 15 16  1  0
  1  3  1  0
  4  5  1  0
 12 19  1  0
M  END

$$$$
No_2799-/export/home/yangzhenyu/potential_scad_32_flow//YTHDC2/2024-12-06-03-22-00/
     RDKit          3D

 19 20  0  0  1  0  0  0  0  0999 V2000
    1.1787   -8.0297    3.5154 C   0  0  0  0  0  0  0  0  0  0  0  0
    1.0491   -6.8434    2.9820 C   0  0  0  0  0  0  0  0  0  0  0  0
    1.9985   -8.9840    2.8958 C   0  0  0  0  0  0  0  0  0  0  0  0
    1.9135  -10.3404    3.6266 C   0  0  0  0  0  0  0  0  0  0  0  0
    1.3291  -11.3908    3.0222 C   0  0  0  0  0  0  0  0  0  0  0  0
    1.2749  -12.5326    3.7562 C   0  0  0  0  0  0  0  0  0  0  0  0
    0.4248   -6.6481    1.7861 C   0  0  2  0  0  0  0  0  0  0  0  0
    0.4186   -7.4786    1.0077 C   0  0  0  0  0  0  0  0  0  0  0  0
    0.7923  -13.6634    3.1270 C   0  0  0  0  0  0  0  0  0  0  0  0
    0.4633  -13.6746    1.8523 C   0  0  0  0  0  0  0  0  0  0  0  0
    0.5910  -12.6127    1.0903 C   0  0  0  0  0  0  0  0  0  0  0  0
    1.1058  -11.4527    1.6029 C   0  0  0  0  0  0  0  0  0  0  0  0
    1.1541  -10.3506    0.7757 C   0  0  0  0  0  0  0  0  0  0  0  0
    0.7623   -9.0144    0.8282 C   0  0  0  0  0  0  0  0  0  0  0  0
    0.0241   -5.4629    1.4608 C   0  0  0  0  0  0  0  0  0  0  0  0
   -0.8878   -5.1188    0.5696 O   0  0  0  0  0  0  0  0  0  0  0  0
    0.9406   -4.2610    1.6276 C   0  0  0  0  0  0  0  0  0  0  0  0
    2.7322  -10.4222    4.7132 O   0  0  0  0  0  0  0  0  0  0  0  0
    0.6366   -3.2988    2.4745 C   0  0  0  0  0  0  0  0  0  0  0  0
  1  2  1  0
  1  3  1  0
  3  4  1  0
  4  5  1  0
  2  7  1  0
  7  8  1  0
 12 13  1  0
  8 14  1  0
 13 14  2  3
  7 15  1  6
 15 16  2  0
 15 17  1  0
  4 18  2  0
 17 19  1  0
  5  6  2  0
  6  9  1  0
  9 10  2  0
 10 11  1  0
 11 12  2  0
  5 12  1  0
M  END

$$$$
No_2800-/export/home/yangzhenyu/potential_scad_32_flow//YTHDC2/2024-12-06-03-22-00/
     RDKit          3D

 18 19  0  0  1  0  0  0  0  0999 V2000
    1.1787   -8.0297    3.5154 C   0  0  0  0  0  0  0  0  0  0  0  0
    1.0491   -6.8434    2.9820 C   0  0  0  0  0  0  0  0  0  0  0  0
    1.9985   -8.9840    2.8958 C   0  0  1  0  0  0  0  0  0  0  0  0
    1.9135  -10.3404    3.6266 N   0  0  0  0  0  0  0  0  0  0  0  0
    0.6179   -6.7382    1.6818 C   0  0  2  0  0  0  0  0  0  0  0  0
    1.1755   -7.4461    0.7986 N   0  0  0  0  0  0  0  0  0  0  0  0
    1.6003   -9.1268    1.3893 C   0  0  0  0  0  0  0  0  0  0  0  0
    2.0245   -9.9079    0.6107 O   0  0  0  0  0  0  0  0  0  0  0  0
    2.6324  -11.2126    3.4535 C   0  0  0  0  0  0  0  0  0  0  0  0
    2.0752  -12.3461    3.4449 C   0  0  0  0  0  0  0  0  0  0  0  0
    0.6526  -12.4624    3.5813 C   0  0  0  0  0  0  0  0  0  0  0  0
    0.0193  -12.6599    2.3170 C   0  0  0  0  0  0  0  0  0  0  0  0
    0.5349  -13.4949    1.4019 C   0  0  0  0  0  0  0  0  0  0  0  0
   -0.0044  -13.4213    0.1288 C   0  0  0  0  0  0  0  0  0  0  0  0
   -1.2705  -12.9670    0.1083 C   0  0  0  0  0  0  0  0  0  0  0  0
   -1.3457  -12.3640    1.6228 C   0  0  0  0  0  0  0  0  0  0  0  0
    0.5074   -5.4556    1.0126 C   0  0  0  0  0  0  0  0  0  0  0  0
   -0.7416   -5.1402    0.4968 C   0  0  0  0  0  0  0  0  0  0  0  0
  1  2  1  0
  1  3  1  0
  3  4  1  1
  2  5  1  0
  5  6  1  0
  3  7  1  0
  6  7  1  0
  7  8  2  0
  4  9  1  0
  9 10  1  0
 10 11  1  0
 11 12  1  0
 12 13  1  0
 13 14  2  0
 14 15  1  0
 12 16  1  0
 15 16  2  0
  5 17  1  6
 17 18  1  0
M  END

$$$$
No_2801-/export/home/yangzhenyu/potential_scad_32_flow//YTHDC2/2024-12-06-03-22-00/
     RDKit          3D

 18 19  0  0  0  0  0  0  0  0999 V2000
    1.1787   -8.0297    3.5154 C   0  0  0  0  0  0  0  0  0  0  0  0
    1.0491   -6.8434    2.9820 C   0  0  0  0  0  0  0  0  0  0  0  0
    1.9985   -8.9840    2.8958 C   0  0  0  0  0  0  0  0  0  0  0  0
    1.1815  -10.1889    2.5497 C   0  0  0  0  0  0  0  0  0  0  0  0
    0.9817  -11.1388    2.8134 C   0  0  0  0  0  0  0  0  0  0  0  0
    0.1125  -12.0891    2.4837 C   0  0  0  0  0  0  0  0  0  0  0  0
   -0.6446  -11.8250    1.4596 C   0  0  0  0  0  0  0  0  0  0  0  0
   -0.2941  -10.7598    0.6431 C   0  0  0  0  0  0  0  0  0  0  0  0
    0.5711   -9.8346    1.1239 C   0  0  0  0  0  0  0  0  0  0  0  0
    0.3257   -6.8342    1.7752 C   0  0  0  0  0  0  0  0  0  0  0  0
   -0.0217   -5.6805    1.1562 C   0  0  0  0  0  0  0  0  0  0  0  0
    0.4056   -4.4833    1.6886 C   0  0  0  0  0  0  0  0  0  0  0  0
    1.3105   -4.4840    2.7880 C   0  0  0  0  0  0  0  0  0  0  0  0
    1.6041   -5.6844    3.4590 C   0  0  0  0  0  0  0  0  0  0  0  0
    1.0672   -8.8800    0.2416 C   0  0  0  0  0  0  0  0  0  0  0  0
    2.3210   -8.4514    0.1003 C   0  0  0  0  0  0  0  0  0  0  0  0
    0.4854   -9.1090   -1.1026 O   0  0  0  0  0  0  0  0  0  0  0  0
   -0.2272  -13.4843    3.3943 C   0  0  0  0  0  0  0  0  0  0  0  0
  1  2  1  0
  1  3  1  0
  3  4  1  0
  9 15  1  0
 15 16  1  0
 15 17  2  0
  6 18  1  0
  2 10  2  0
 10 11  1  0
 11 12  2  0
 12 13  1  0
 13 14  2  0
  2 14  1  0
  4  5  2  0
  5  6  1  0
  6  7  2  0
  7  8  1  0
  8  9  2  0
  4  9  1  0
M  END

$$$$
No_2802-/export/home/yangzhenyu/potential_scad_32_flow//YTHDC2/2024-12-06-03-22-00/
     RDKit          3D

 17 18  0  0  0  0  0  0  0  0999 V2000
    1.1787   -8.0297    3.5154 C   0  0  0  0  0  0  0  0  0  0  0  0
    1.1048   -9.2215    3.2892 C   0  0  0  0  0  0  0  0  0  0  0  0
    1.2339   -9.7611    2.0189 C   0  0  0  0  0  0  0  0  0  0  0  0
    1.3583   -9.0036    0.9764 C   0  0  0  0  0  0  0  0  0  0  0  0
    1.5996   -7.6362    1.1311 C   0  0  0  0  0  0  0  0  0  0  0  0
    1.4830   -7.0928    2.3626 C   0  0  0  0  0  0  0  0  0  0  0  0
    1.1008  -11.2372    1.8542 C   0  0  0  0  0  0  0  0  0  0  0  0
    0.4812  -11.6084    0.6459 C   0  0  0  0  0  0  0  0  0  0  0  0
   -0.3691  -10.9312    0.0124 C   0  0  0  0  0  0  0  0  0  0  0  0
   -1.0102  -11.3797   -1.1447 N   0  0  0  0  0  0  0  0  0  0  0  0
    1.8467  -12.0302    2.5644 C   0  0  0  0  0  0  0  0  0  0  0  0
    1.7040  -13.4346    2.3103 C   0  0  0  0  0  0  0  0  0  0  0  0
    1.0412  -13.8696    1.2415 C   0  0  0  0  0  0  0  0  0  0  0  0
    0.4280  -13.0035    0.3853 C   0  0  0  0  0  0  0  0  0  0  0  0
   -1.8819  -10.6753   -1.7731 C   0  0  0  0  0  0  0  0  0  0  0  0
   -2.4147  -11.2355   -2.9388 N   0  0  0  0  0  0  0  0  0  0  0  0
   -2.1575   -9.2064   -1.5972 C   0  0  0  0  0  0  0  0  0  0  0  0
  3  7  1  0
  9 10  1  0
 10 15  2  3
 15 16  1  0
 15 17  1  0
  8  9  1  0
  1  2  2  0
  2  3  1  0
  3  4  2  0
  4  5  1  0
  5  6  2  0
  1  6  1  0
  7  8  2  0
  8 14  1  0
 13 14  2  0
 12 13  1  0
 11 12  2  0
  7 11  1  0
M  END

$$$$
No_2803-/export/home/yangzhenyu/potential_scad_32_flow//YTHDC2/2024-12-06-03-22-00/
     RDKit          3D

 17 17  0  0  0  0  0  0  0  0999 V2000
    1.1787   -8.0297    3.5154 C   0  0  0  0  0  0  0  0  0  0  0  0
    1.1048   -9.2215    3.2892 C   0  0  0  0  0  0  0  0  0  0  0  0
    1.3627  -10.1721    4.3044 C   0  0  0  0  0  0  0  0  0  0  0  0
    1.0682  -11.5187    4.0618 C   0  0  0  0  0  0  0  0  0  0  0  0
    0.6332  -11.9655    2.9682 C   0  0  0  0  0  0  0  0  0  0  0  0
    0.4776  -11.1308    1.9203 C   0  0  0  0  0  0  0  0  0  0  0  0
    0.7470   -9.8274    2.0368 C   0  0  0  0  0  0  0  0  0  0  0  0
    0.5535   -7.1314    2.6861 O   0  0  0  0  0  0  0  0  0  0  0  0
    0.3433  -13.3587    2.7316 C   0  0  0  0  0  0  0  0  0  0  0  0
    1.3058  -14.3266    3.1725 C   0  0  0  0  0  0  0  0  0  0  0  0
    1.4440  -15.5491    2.5284 C   0  0  0  0  0  0  0  0  0  0  0  0
    2.2811  -15.8179    1.8196 C   0  0  0  0  0  0  0  0  0  0  0  0
    3.4983  -15.0878    1.7724 O   0  0  0  0  0  0  0  0  0  0  0  0
    2.4817  -17.0042    1.4007 O   0  0  0  0  0  0  0  0  0  0  0  0
    0.7249   -9.0299    0.9401 C   0  0  0  0  0  0  0  0  0  0  0  0
   -0.4032   -8.8428    0.2699 C   0  0  0  0  0  0  0  0  0  0  0  0
   -0.3673   -8.2821   -1.0970 C   0  0  0  0  0  0  0  0  0  0  0  0
  1  2  1  0
  1  8  2  0
  5  9  1  0
  9 10  1  0
 10 11  1  0
 11 12  1  0
 12 13  1  0
 12 14  2  0
  7 15  1  0
 15 16  2  3
 16 17  1  0
  2  3  2  0
  3  4  1  0
  4  5  2  0
  5  6  1  0
  6  7  2  0
  2  7  1  0
M  END

$$$$
No_2804-/export/home/yangzhenyu/potential_scad_32_flow//YTHDC2/2024-12-06-03-22-00/
     RDKit          3D

 18 19  0  0  0  0  0  0  0  0999 V2000
    1.1787   -8.0297    3.5154 N   0  0  0  0  0  0  0  0  0  0  0  0
    1.0818   -9.0751    3.2053 C   0  0  0  0  0  0  0  0  0  0  0  0
    1.5216  -10.1164    3.9747 C   0  0  0  0  0  0  0  0  0  0  0  0
    1.7650  -11.2320    3.5712 C   0  0  0  0  0  0  0  0  0  0  0  0
    1.4277  -11.6899    2.3702 C   0  0  0  0  0  0  0  0  0  0  0  0
    1.0443  -10.7313    1.4783 C   0  0  0  0  0  0  0  0  0  0  0  0
    0.9294   -9.4471    1.8469 C   0  0  0  0  0  0  0  0  0  0  0  0
    0.5107   -8.4473    0.9766 N   0  0  0  0  0  0  0  0  0  0  0  0
    1.7488  -13.0309    1.9124 C   0  0  0  0  0  0  0  0  0  0  0  0
    2.1242  -13.9703    2.7790 C   0  0  0  0  0  0  0  0  0  0  0  0
    2.3349  -15.3229    2.1884 C   0  0  0  0  0  0  0  0  0  0  0  0
    1.0964  -16.0834    1.9864 O   0  0  0  0  0  0  0  0  0  0  0  0
    0.5455   -7.1782    1.4126 N   0  0  0  0  0  0  0  0  0  0  0  0
    0.8775   -6.8747    2.6852 C   0  0  0  0  0  0  0  0  0  0  0  0
    0.9562   -5.5106    3.1093 C   0  0  0  0  0  0  0  0  0  0  0  0
    0.7108   -4.4982    2.1377 C   0  0  0  0  0  0  0  0  0  0  0  0
   -0.5382   -4.0472    1.9555 C   0  0  0  0  0  0  0  0  0  0  0  0
   -1.4408   -4.6893    2.0845 C   0  0  0  0  0  0  0  0  0  0  0  0
  5  9  1  0
  9 10  1  0
 10 11  1  0
 11 12  1  0
 14 15  1  0
 15 16  1  0
 16 17  1  0
 17 18  2  0
  1  2  2  0
  7  8  2  0
  8 13  1  0
 13 14  2  0
  1 14  1  0
  2  3  1  0
  3  4  2  0
  4  5  1  0
  5  6  2  0
  6  7  1  0
  2  7  1  0
M  END

$$$$
No_2805-/export/home/yangzhenyu/potential_scad_32_flow//YTHDC2/2024-12-06-03-22-00/
     RDKit          3D

 18 20  0  0  0  0  0  0  0  0999 V2000
    1.1787   -8.0297    3.5154 C   0  0  0  0  0  0  0  0  0  0  0  0
    1.0491   -6.8434    2.9820 C   0  0  0  0  0  0  0  0  0  0  0  0
    0.0950   -8.8404    3.2292 C   0  0  0  0  0  0  0  0  0  0  0  0
   -0.9173   -8.4596    2.5152 C   0  0  0  0  0  0  0  0  0  0  0  0
   -1.0331   -7.2162    2.0653 C   0  0  0  0  0  0  0  0  0  0  0  0
   -0.0105   -6.3168    2.3081 C   0  0  0  0  0  0  0  0  0  0  0  0
    0.1150   -4.9910    1.8495 C   0  0  0  0  0  0  0  0  0  0  0  0
   -0.1376   -4.7952    0.5550 C   0  0  0  0  0  0  0  0  0  0  0  0
   -0.9836   -3.7108    0.4454 C   0  0  0  0  0  0  0  0  0  0  0  0
   -1.0222   -2.6675    1.3784 C   0  0  0  0  0  0  0  0  0  0  0  0
   -0.6087   -2.9661    2.5968 C   0  0  0  0  0  0  0  0  0  0  0  0
   -0.0766   -4.1432    2.9551 C   0  0  0  0  0  0  0  0  0  0  0  0
    0.0883  -10.2207    3.7517 C   0  0  0  0  0  0  0  0  0  0  0  0
   -1.0651  -10.8347    4.0898 C   0  0  0  0  0  0  0  0  0  0  0  0
    1.3552  -10.7896    4.1920 C   0  0  0  0  0  0  0  0  0  0  0  0
    1.7707  -11.8639    3.7866 C   0  0  0  0  0  0  0  0  0  0  0  0
    0.6195  -12.7956    3.6682 C   0  0  0  0  0  0  0  0  0  0  0  0
   -0.6539  -12.3365    3.6734 C   0  0  0  0  0  0  0  0  0  0  0  0
  6  7  1  0
  3 13  1  0
  1  2  2  0
  2  6  1  0
  5  6  2  0
  4  5  1  0
  3  4  2  0
  1  3  1  0
 13 14  2  0
 14 18  1  0
 17 18  2  0
 16 17  1  0
 15 16  2  0
 13 15  1  0
  7  8  2  0
  8  9  1  0
  9 10  2  0
 10 11  1  0
 11 12  2  0
  7 12  1  0
M  END

$$$$
No_2806-/export/home/yangzhenyu/potential_scad_32_flow//YTHDC2/2024-12-06-03-22-00/
     RDKit          3D

 18 19  0  0  1  0  0  0  0  0999 V2000
    1.1787   -8.0297    3.5154 C   0  0  0  0  0  0  0  0  0  0  0  0
    1.1048   -9.2215    3.2892 C   0  0  0  0  0  0  0  0  0  0  0  0
    1.3627  -10.1721    4.3044 C   0  0  0  0  0  0  0  0  0  0  0  0
    1.7354  -11.4730    3.9023 C   0  0  0  0  0  0  0  0  0  0  0  0
    1.8080  -11.8127    2.7216 C   0  0  0  0  0  0  0  0  0  0  0  0
    1.5854  -11.0021    1.7249 C   0  0  0  0  0  0  0  0  0  0  0  0
    1.3573   -9.7389    1.9287 C   0  0  0  0  0  0  0  0  0  0  0  0
    1.2865   -8.8078    0.9161 C   0  0  0  0  0  0  0  0  0  0  0  0
    0.9210   -7.5140    1.1674 O   0  0  0  0  0  0  0  0  0  0  0  0
    1.4288   -9.1781   -0.4279 C   0  0  0  0  0  0  0  0  0  0  0  0
    2.6473   -9.2507   -0.8883 O   0  0  0  0  0  0  0  0  0  0  0  0
    0.4813   -9.4287   -1.1556 O   0  0  0  0  0  0  0  0  0  0  0  0
    2.0798  -13.2265    2.3598 C   0  0  2  0  0  0  0  0  0  0  0  0
    2.3838  -13.5576    1.0636 C   0  0  0  0  0  0  0  0  0  0  0  0
    0.9889  -14.1336    2.7960 C   0  0  0  0  0  0  0  0  0  0  0  0
    1.0268  -15.4508    2.2597 C   0  0  2  0  0  0  0  0  0  0  0  0
    1.9195  -14.9069    1.0826 C   0  0  0  0  0  0  0  0  0  0  0  0
   -0.0144  -16.1109    2.2122 C   0  0  0  0  0  0  0  0  0  0  0  0
  1  2  1  0
  7  8  1  0
  8  9  2  0
  8 10  1  0
 10 11  1  0
 10 12  2  0
 13  5  1  6
 13 14  1  0
 13 15  1  0
 15 16  1  0
 14 17  1  0
 16 17  1  0
 16 18  1  6
  2  3  2  0
  3  4  1  0
  4  5  2  0
  5  6  1  0
  6  7  2  0
  2  7  1  0
M  END

$$$$
No_2807-/export/home/yangzhenyu/potential_scad_32_flow//YTHDC2/2024-12-06-03-22-00/
     RDKit          3D

 19 20  0  0  1  0  0  0  0  0999 V2000
    1.1787   -8.0297    3.5154 C   0  0  0  0  0  0  0  0  0  0  0  0
    1.1048   -9.2215    3.2892 C   0  0  0  0  0  0  0  0  0  0  0  0
    1.2339   -9.7611    2.0189 C   0  0  0  0  0  0  0  0  0  0  0  0
    1.3583   -9.0036    0.9764 C   0  0  0  0  0  0  0  0  0  0  0  0
    1.5996   -7.6362    1.1311 C   0  0  0  0  0  0  0  0  0  0  0  0
    1.4830   -7.0928    2.3626 C   0  0  0  0  0  0  0  0  0  0  0  0
    1.4898   -5.7274    2.6199 C   0  0  2  0  0  0  0  0  0  0  0  0
    1.1681  -11.2222    1.8390 C   0  0  0  0  0  0  0  0  0  0  0  0
    0.7145  -11.5870    0.5424 O   0  0  0  0  0  0  0  0  0  0  0  0
    1.2135  -12.0870    2.7125 N   0  0  0  0  0  0  0  0  0  0  0  0
    1.1898  -13.4331    2.6811 C   0  0  0  0  0  0  0  0  0  0  0  0
   -0.0679  -14.0016    3.0163 C   0  0  0  0  0  0  0  0  0  0  0  0
   -0.1892  -15.3859    3.0427 C   0  0  0  0  0  0  0  0  0  0  0  0
    0.9453  -16.1270    2.7946 C   0  0  0  0  0  0  0  0  0  0  0  0
    2.2045  -15.5078    2.6249 C   0  0  0  0  0  0  0  0  0  0  0  0
    2.2872  -14.1495    2.5463 C   0  0  0  0  0  0  0  0  0  0  0  0
    1.2390   -4.8522    1.6256 F   0  0  0  0  0  0  0  0  0  0  0  0
    2.7126   -5.0933    3.0801 I   0  0  0  0  0  0  0  0  0  0  0  0
    0.9936  -17.8067    2.9873 Cl  0  0  0  0  0  0  0  0  0  0  0  0
  6  7  1  0
  3  8  1  0
  8  9  2  0
  8 10  1  0
 10 11  1  0
  7 17  1  6
  7 18  1  0
 14 19  1  0
 11 12  2  0
 12 13  1  0
 13 14  2  0
 14 15  1  0
 15 16  2  0
 11 16  1  0
  1  2  2  0
  2  3  1  0
  3  4  2  0
  4  5  1  0
  5  6  2  0
  1  6  1  0
M  END

$$$$
No_2808-/export/home/yangzhenyu/potential_scad_32_flow//YTHDC2/2024-12-06-03-22-00/
     RDKit          3D

 18 19  0  0  0  0  0  0  0  0999 V2000
    1.1787   -8.0297    3.5154 C   0  0  0  0  0  0  0  0  0  0  0  0
    1.1048   -9.2215    3.2892 C   0  0  0  0  0  0  0  0  0  0  0  0
    1.3627  -10.1721    4.3044 C   0  0  0  0  0  0  0  0  0  0  0  0
    1.0682  -11.5187    4.0618 C   0  0  0  0  0  0  0  0  0  0  0  0
    0.6332  -11.9655    2.9682 C   0  0  0  0  0  0  0  0  0  0  0  0
    0.4776  -11.1308    1.9203 C   0  0  0  0  0  0  0  0  0  0  0  0
    0.7470   -9.8274    2.0368 C   0  0  0  0  0  0  0  0  0  0  0  0
    1.0387   -7.0301    2.5175 O   0  0  0  0  0  0  0  0  0  0  0  0
    0.4220  -13.4291    2.8032 C   0  0  0  0  0  0  0  0  0  0  0  0
    1.4050  -14.3276    3.1066 C   0  0  0  0  0  0  0  0  0  0  0  0
    1.1710  -15.6956    2.9946 C   0  0  0  0  0  0  0  0  0  0  0  0
    0.1273  -16.1289    2.5273 C   0  0  0  0  0  0  0  0  0  0  0  0
   -0.8561  -15.3126    2.0635 C   0  0  0  0  0  0  0  0  0  0  0  0
   -0.6485  -13.9514    2.1840 C   0  0  0  0  0  0  0  0  0  0  0  0
   -0.0743  -17.5636    2.3826 C   0  0  0  0  0  0  0  0  0  0  0  0
   -1.7202  -13.1218    1.7321 C   0  0  0  0  0  0  0  0  0  0  0  0
   -1.9639  -12.9116    0.3737 C   0  0  0  0  0  0  0  0  0  0  0  0
   -3.0119  -12.1645   -0.1228 C   0  0  0  0  0  0  0  0  0  0  0  0
  1  2  1  0
  1  8  2  0
  5  9  1  0
 12 15  1  0
 14 16  1  0
 16 17  2  3
 17 18  1  0
  2  3  2  0
  3  4  1  0
  4  5  2  0
  5  6  1  0
  6  7  2  0
  2  7  1  0
  9 10  2  0
 10 11  1  0
 11 12  2  0
 12 13  1  0
 13 14  2  0
  9 14  1  0
M  END

$$$$
No_2809-/export/home/yangzhenyu/potential_scad_32_flow//YTHDC2/2024-12-06-03-22-00/
     RDKit          3D

 18 19  0  0  1  0  0  0  0  0999 V2000
    1.1787   -8.0297    3.5154 C   0  0  0  0  0  0  0  0  0  0  0  0
    1.0491   -6.8434    2.9820 C   0  0  0  0  0  0  0  0  0  0  0  0
    0.9905   -9.0774    2.6527 C   0  0  0  0  0  0  0  0  0  0  0  0
    0.7897   -8.9519    1.3691 C   0  0  0  0  0  0  0  0  0  0  0  0
    0.7018   -7.7198    0.7892 C   0  0  0  0  0  0  0  0  0  0  0  0
    0.8918   -6.5957    1.6117 C   0  0  0  0  0  0  0  0  0  0  0  0
    1.0711  -10.4814    3.2282 C   0  0  2  0  0  0  0  0  0  0  0  0
   -0.1055  -11.1328    3.5223 C   0  0  0  0  0  0  0  0  0  0  0  0
   -0.7419  -11.5628    2.6150 C   0  0  0  0  0  0  0  0  0  0  0  0
   -0.8162  -12.5122    2.2510 C   0  0  0  0  0  0  0  0  0  0  0  0
   -1.7499  -13.0792    1.2311 C   0  0  0  0  0  0  0  0  0  0  0  0
   -2.7035  -12.2610    0.8674 C   0  0  0  0  0  0  0  0  0  0  0  0
   -2.8281  -11.0425    1.3109 C   0  0  0  0  0  0  0  0  0  0  0  0
   -3.9048  -10.1700    0.8852 C   0  0  0  0  0  0  0  0  0  0  0  0
   -1.9090  -10.6317    2.2936 C   0  0  0  0  0  0  0  0  0  0  0  0
    0.8959   -5.2801    1.1279 Cl  0  0  0  0  0  0  0  0  0  0  0  0
    2.3836  -10.8711    3.5477 C   0  0  0  0  0  0  0  0  0  0  0  0
   -4.0294   -9.4521    0.1165 O   0  0  0  0  0  0  0  0  0  0  0  0
  3  7  1  0
  7  8  1  0
 13 14  1  0
  6 16  1  0
  7 17  1  1
 14 18  2  0
  8  9  1  0
  1  2  2  0
  2  6  1  0
  5  6  2  0
  4  5  1  0
  3  4  2  0
  1  3  1  0
  9 10  2  0
 10 11  1  0
 11 12  2  0
 12 13  1  0
 13 15  2  0
  9 15  1  0
M  END

$$$$
No_2810-/export/home/yangzhenyu/potential_scad_32_flow//YTHDC2/2024-12-06-03-22-00/
     RDKit          3D

 19 20  0  0  0  0  0  0  0  0999 V2000
    1.1787   -8.0297    3.5154 C   0  0  0  0  0  0  0  0  0  0  0  0
    1.0491   -6.8434    2.9820 C   0  0  0  0  0  0  0  0  0  0  0  0
    0.0950   -8.8404    3.2292 C   0  0  0  0  0  0  0  0  0  0  0  0
   -0.9173   -8.4596    2.5152 C   0  0  0  0  0  0  0  0  0  0  0  0
   -1.0331   -7.2162    2.0653 C   0  0  0  0  0  0  0  0  0  0  0  0
   -0.0105   -6.3168    2.3081 C   0  0  0  0  0  0  0  0  0  0  0  0
    0.1935  -10.3737    3.7416 C   0  0  0  0  0  0  0  0  0  0  0  0
   -0.9968  -11.0614    3.6410 C   0  0  0  0  0  0  0  0  0  0  0  0
   -2.0651  -10.5736    2.9123 C   0  0  0  0  0  0  0  0  0  0  0  0
   -2.0392   -9.2902    2.3541 C   0  0  0  0  0  0  0  0  0  0  0  0
   -0.0571   -4.9397    1.9061 O   0  0  0  0  0  0  0  0  0  0  0  0
   -1.0632   -4.4651    1.2767 C   0  0  0  0  0  0  0  0  0  0  0  0
    1.2700  -10.7681    4.5816 C   0  0  0  0  0  0  0  0  0  0  0  0
    2.2769  -11.4207    3.7818 C   0  0  0  0  0  0  0  0  0  0  0  0
    2.1213  -11.5637    2.7337 C   0  0  0  0  0  0  0  0  0  0  0  0
    1.4794  -12.6615    2.1122 C   0  0  0  0  0  0  0  0  0  0  0  0
    1.5334  -13.8807    2.8673 C   0  0  0  0  0  0  0  0  0  0  0  0
    2.0080  -15.0312    2.2431 C   0  0  0  0  0  0  0  0  0  0  0  0
    1.4736  -15.7010    1.4620 C   0  0  0  0  0  0  0  0  0  0  0  0
  6 11  1  0
 11 12  1  0
  7 13  1  0
 13 14  1  0
 14 15  1  0
 15 16  1  0
 16 17  1  0
 17 18  1  0
 18 19  1  0
  4 10  2  0
  9 10  1  0
  8  9  2  0
  7  8  1  0
  3  7  2  0
  1  2  2  0
  2  6  1  0
  5  6  2  0
  4  5  1  0
  3  4  1  0
  1  3  1  0
M  END

$$$$
No_2811-/export/home/yangzhenyu/potential_scad_32_flow//YTHDC2/2024-12-06-03-22-00/
     RDKit          3D

 19 20  0  0  0  0  0  0  0  0999 V2000
    1.1787   -8.0297    3.5154 C   0  0  0  0  0  0  0  0  0  0  0  0
    1.1048   -9.2215    3.2892 C   0  0  0  0  0  0  0  0  0  0  0  0
    1.3627  -10.1721    4.3044 C   0  0  0  0  0  0  0  0  0  0  0  0
    1.0682  -11.5187    4.0618 C   0  0  0  0  0  0  0  0  0  0  0  0
    0.6332  -11.9655    2.9682 C   0  0  0  0  0  0  0  0  0  0  0  0
    0.4776  -11.1308    1.9203 C   0  0  0  0  0  0  0  0  0  0  0  0
    0.7470   -9.8274    2.0368 C   0  0  0  0  0  0  0  0  0  0  0  0
    1.0387   -7.0301    2.5175 C   0  0  0  0  0  0  0  0  0  0  0  0
    0.9130   -7.5288    1.2013 C   0  0  0  0  0  0  0  0  0  0  0  0
    0.7893   -8.7979    0.9542 C   0  0  0  0  0  0  0  0  0  0  0  0
    0.5241   -9.2578   -0.2817 C   0  0  0  0  0  0  0  0  0  0  0  0
    1.2450   -9.2169   -1.2769 O   0  0  0  0  0  0  0  0  0  0  0  0
   -0.8706   -9.3448   -0.6392 O   0  0  0  0  0  0  0  0  0  0  0  0
    0.4959  -13.6336    2.6990 C   0  0  0  0  0  0  0  0  0  0  0  0
    1.5372  -14.3786    3.1756 C   0  0  0  0  0  0  0  0  0  0  0  0
    1.6241  -15.5989    2.5360 C   0  0  0  0  0  0  0  0  0  0  0  0
    0.8190  -16.6507    3.0694 C   0  0  0  0  0  0  0  0  0  0  0  0
    1.0129  -17.8607    2.5813 C   0  0  0  0  0  0  0  0  0  0  0  0
    2.1071  -18.1724    1.7695 C   0  0  0  0  0  0  0  0  0  0  0  0
 10 11  1  0
 11 12  2  0
 11 13  1  0
  5 14  1  0
 14 15  1  0
 15 16  1  0
 16 17  1  0
 17 18  2  3
 18 19  1  0
  2  3  1  0
  3  4  2  0
  4  5  1  0
  5  6  2  0
  6  7  1  0
  1  2  2  0
  2  7  1  0
  7 10  2  0
  9 10  1  0
  8  9  2  0
  1  8  1  0
M  END

$$$$
No_2812-/export/home/yangzhenyu/potential_scad_32_flow//YTHDC2/2024-12-06-03-22-00/
     RDKit          3D

 16 17  0  0  1  0  0  0  0  0999 V2000
    1.1787   -8.0297    3.5154 C   0  0  0  0  0  0  0  0  0  0  0  0
    1.1048   -9.2215    3.2892 C   0  0  0  0  0  0  0  0  0  0  0  0
    1.2339   -9.7611    2.0189 C   0  0  0  0  0  0  0  0  0  0  0  0
    1.1954  -11.2312    1.8661 C   0  0  0  0  0  0  0  0  0  0  0  0
    1.2996  -11.5815    0.5387 C   0  0  0  0  0  0  0  0  0  0  0  0
    0.9270   -7.0442    2.4967 C   0  0  2  0  0  0  0  0  0  0  0  0
    0.9803   -7.6034    1.0978 C   0  0  0  0  0  0  0  0  0  0  0  0
    1.1096   -8.9244    0.8670 C   0  0  0  0  0  0  0  0  0  0  0  0
    1.2635  -10.7284   -0.4571 C   0  0  0  0  0  0  0  0  0  0  0  0
    1.1104   -9.4104   -0.3278 C   0  0  0  0  0  0  0  0  0  0  0  0
    1.0056   -5.6057    2.6708 C   0  0  0  0  0  0  0  0  0  0  0  0
    1.4574  -12.0211    2.8824 C   0  0  0  0  0  0  0  0  0  0  0  0
    1.5221  -13.4866    2.6399 C   0  0  0  0  0  0  0  0  0  0  0  0
    0.9342   -6.7829    0.2303 O   0  0  0  0  0  0  0  0  0  0  0  0
    1.7897  -14.0662    1.5425 C   0  0  0  0  0  0  0  0  0  0  0  0
    2.1119  -15.1940    1.4939 C   0  0  0  0  0  0  0  0  0  0  0  0
  1  2  1  0
  6  7  1  0
  7  8  1  0
  6 11  1  6
  4 12  1  0
 12 13  2  3
  7 14  2  0
 13 15  1  0
 15 16  2  0
  1  6  1  0
  2  3  1  0
  3  4  2  0
  4  5  1  0
  5  9  2  0
  9 10  1  0
  8 10  2  0
  3  8  1  0
M  END

$$$$
No_2813-/export/home/yangzhenyu/potential_scad_32_flow//YTHDC2/2024-12-06-03-22-00/
     RDKit          3D

 18 18  0  0  0  0  0  0  0  0999 V2000
    1.1787   -8.0297    3.5154 C   0  0  0  0  0  0  0  0  0  0  0  0
    1.0491   -6.8434    2.9820 C   0  0  0  0  0  0  0  0  0  0  0  0
    1.9985   -8.9840    2.8958 C   0  0  0  0  0  0  0  0  0  0  0  0
    1.9135  -10.3404    3.6266 C   0  0  0  0  0  0  0  0  0  0  0  0
    1.3291  -11.3908    3.0222 C   0  0  0  0  0  0  0  0  0  0  0  0
    1.2749  -12.5326    3.7562 C   0  0  0  0  0  0  0  0  0  0  0  0
    0.4248   -6.6481    1.7861 C   0  0  0  0  0  0  0  0  0  0  0  0
    0.4186   -7.4786    1.0077 O   0  0  0  0  0  0  0  0  0  0  0  0
    0.2029   -5.3297    1.3962 O   0  0  0  0  0  0  0  0  0  0  0  0
    1.0426  -13.6759    3.1388 C   0  0  0  0  0  0  0  0  0  0  0  0
    0.8027  -13.7820    1.8520 C   0  0  0  0  0  0  0  0  0  0  0  0
    0.8633  -12.6465    1.0447 C   0  0  0  0  0  0  0  0  0  0  0  0
    1.1557  -11.4580    1.6117 C   0  0  0  0  0  0  0  0  0  0  0  0
    1.3017  -10.3861    0.7811 F   0  0  0  0  0  0  0  0  0  0  0  0
    2.5518  -10.3525    4.7320 O   0  0  0  0  0  0  0  0  0  0  0  0
    0.8778  -15.1227    3.9764 Cl  0  0  0  0  0  0  0  0  0  0  0  0
    0.8383   -4.1511    1.8970 C   0  0  0  0  0  0  0  0  0  0  0  0
    1.7113   -3.4637    1.0378 C   0  0  0  0  0  0  0  0  0  0  0  0
  1  2  1  0
  1  3  1  0
  3  4  1  0
  4  5  1  0
  2  7  1  0
  7  8  2  0
  7  9  1  0
 13 14  1  0
  4 15  2  0
 10 16  1  0
  9 17  1  0
 17 18  1  0
  5  6  2  0
  6 10  1  0
 10 11  2  0
 11 12  1  0
 12 13  2  0
  5 13  1  0
M  END

$$$$
No_2814-/export/home/yangzhenyu/potential_scad_32_flow//YTHDC2/2024-12-06-03-22-00/
     RDKit          3D

 19 21  0  0  0  0  0  0  0  0999 V2000
    1.1787   -8.0297    3.5154 C   0  0  0  0  0  0  0  0  0  0  0  0
    1.0491   -6.8434    2.9820 C   0  0  0  0  0  0  0  0  0  0  0  0
    0.0950   -8.8404    3.2292 C   0  0  0  0  0  0  0  0  0  0  0  0
   -0.9173   -8.4596    2.5152 C   0  0  0  0  0  0  0  0  0  0  0  0
   -1.0331   -7.2162    2.0653 C   0  0  0  0  0  0  0  0  0  0  0  0
   -0.0105   -6.3168    2.3081 C   0  0  0  0  0  0  0  0  0  0  0  0
    0.1465  -10.2446    3.6981 N   0  0  0  0  0  0  0  0  0  0  0  0
    0.2885  -11.3162    3.0428 C   0  0  0  0  0  0  0  0  0  0  0  0
   -0.1064  -11.5030    1.8743 C   0  0  0  0  0  0  0  0  0  0  0  0
    0.3440  -12.7504    1.1767 C   0  0  0  0  0  0  0  0  0  0  0  0
    1.0884  -13.7117    1.7649 C   0  0  0  0  0  0  0  0  0  0  0  0
    1.5210  -13.4992    3.1095 C   0  0  0  0  0  0  0  0  0  0  0  0
    1.0626  -12.4247    3.8121 C   0  0  0  0  0  0  0  0  0  0  0  0
    0.0401   -4.9442    1.8571 C   0  0  0  0  0  0  0  0  0  0  0  0
   -0.4022   -4.6854    0.6820 C   0  0  0  0  0  0  0  0  0  0  0  0
   -1.1034   -3.5846    0.5605 C   0  0  0  0  0  0  0  0  0  0  0  0
   -0.7848   -2.4442    1.3633 C   0  0  0  0  0  0  0  0  0  0  0  0
   -0.0778   -2.6331    2.4294 C   0  0  0  0  0  0  0  0  0  0  0  0
    0.3351   -3.9363    2.7838 C   0  0  0  0  0  0  0  0  0  0  0  0
  3  7  1  0
  7  8  1  0
  6 14  1  0
 14 15  2  0
 15 16  1  0
 16 17  2  0
 17 18  1  0
 18 19  2  0
 14 19  1  0
  1  2  2  0
  2  6  1  0
  5  6  2  0
  4  5  1  0
  3  4  2  0
  1  3  1  0
  8  9  2  0
  9 10  1  0
 10 11  2  0
 11 12  1  0
 12 13  2  0
  8 13  1  0
M  END

$$$$
No_2815-/export/home/yangzhenyu/potential_scad_32_flow//YTHDC2/2024-12-06-03-22-00/
     RDKit          3D

 18 19  0  0  1  0  0  0  0  0999 V2000
    1.1787   -8.0297    3.5154 C   0  0  0  0  0  0  0  0  0  0  0  0
    1.1048   -9.2215    3.2892 C   0  0  0  0  0  0  0  0  0  0  0  0
    1.2339   -9.7611    2.0189 C   0  0  0  0  0  0  0  0  0  0  0  0
    1.3583   -9.0036    0.9764 C   0  0  0  0  0  0  0  0  0  0  0  0
    1.5996   -7.6362    1.1311 C   0  0  0  0  0  0  0  0  0  0  0  0
    1.4830   -7.0928    2.3626 C   0  0  0  0  0  0  0  0  0  0  0  0
    1.1008  -11.2372    1.8542 C   0  0  1  0  0  0  0  0  0  0  0  0
    0.4812  -11.6084    0.6459 C   0  0  0  0  0  0  0  0  0  0  0  0
    0.5134  -13.0269    0.4830 C   0  0  0  0  0  0  0  0  0  0  0  0
    1.2057  -13.8685    1.2734 C   0  0  0  0  0  0  0  0  0  0  0  0
    1.9819  -13.3990    2.3594 C   0  0  0  0  0  0  0  0  0  0  0  0
    1.8610  -12.0988    2.6716 C   0  0  0  0  0  0  0  0  0  0  0  0
    1.8154  -11.7347    3.8906 O   0  0  0  0  0  0  0  0  0  0  0  0
    1.5613   -5.4524    2.6953 O   0  0  0  0  0  0  0  0  0  0  0  0
    0.5929   -4.7968    2.8276 C   0  0  0  0  0  0  0  0  0  0  0  0
    0.4904   -3.7767    1.8651 C   0  0  0  0  0  0  0  0  0  0  0  0
   -0.5353   -3.2631    1.5907 C   0  0  0  0  0  0  0  0  0  0  0  0
   -0.4939   -2.1966    0.5899 C   0  0  0  0  0  0  0  0  0  0  0  0
  7  3  1  6
  7  8  1  0
  9 10  1  0
  7 12  1  0
 11 12  1  0
 12 13  2  0
  6 14  1  0
 14 15  1  0
 15 16  1  0
 16 17  1  0
 17 18  2  0
  8  9  1  0
 10 11  1  0
  1  2  2  0
  2  3  1  0
  3  4  2  0
  4  5  1  0
  5  6  2  0
  1  6  1  0
M  END

$$$$
No_2816-/export/home/yangzhenyu/potential_scad_32_flow//YTHDC2/2024-12-06-03-22-00/
     RDKit          3D

 16 17  0  0  1  0  0  0  0  0999 V2000
    1.1787   -8.0297    3.5154 C   0  0  0  0  0  0  0  0  0  0  0  0
    1.1048   -9.2215    3.2892 C   0  0  0  0  0  0  0  0  0  0  0  0
    1.2339   -9.7611    2.0189 C   0  0  0  0  0  0  0  0  0  0  0  0
    1.3583   -9.0036    0.9764 C   0  0  0  0  0  0  0  0  0  0  0  0
    1.5996   -7.6362    1.1311 C   0  0  0  0  0  0  0  0  0  0  0  0
    1.4830   -7.0928    2.3626 C   0  0  0  0  0  0  0  0  0  0  0  0
    1.1008  -11.2372    1.8542 C   0  0  1  0  0  0  0  0  0  0  0  0
    0.4812  -11.6084    0.6459 C   0  0  0  0  0  0  0  0  0  0  0  0
    0.5134  -13.0269    0.4830 C   0  0  0  0  0  0  0  0  0  0  0  0
    1.2057  -13.8685    1.2734 C   0  0  0  0  0  0  0  0  0  0  0  0
    1.9819  -13.3990    2.3594 C   0  0  0  0  0  0  0  0  0  0  0  0
    1.8610  -12.0988    2.6716 C   0  0  0  0  0  0  0  0  0  0  0  0
    2.4163  -11.5839    3.7861 O   0  0  0  0  0  0  0  0  0  0  0  0
    1.5574   -5.6480    2.6418 C   0  0  0  0  0  0  0  0  0  0  0  0
    0.6556   -4.8264    2.5860 N   0  0  0  0  0  0  0  0  0  0  0  0
    0.7341   -3.4593    2.9076 O   0  0  0  0  0  0  0  0  0  0  0  0
  7  3  1  6
  7  8  1  0
  9 10  1  0
  7 12  1  0
 11 12  1  0
 12 13  2  0
  6 14  1  0
 14 15  1  0
 15 16  2  0
  8  9  1  0
 10 11  1  0
  1  2  2  0
  2  3  1  0
  3  4  2  0
  4  5  1  0
  5  6  2  0
  1  6  1  0
M  END

$$$$
No_2817-/export/home/yangzhenyu/potential_scad_32_flow//YTHDC2/2024-12-06-03-22-00/
     RDKit          3D

 19 20  0  0  1  0  0  0  0  0999 V2000
    1.1787   -8.0297    3.5154 C   0  0  0  0  0  0  0  0  0  0  0  0
    1.1048   -9.2215    3.2892 C   0  0  0  0  0  0  0  0  0  0  0  0
    1.2339   -9.7611    2.0189 C   0  0  0  0  0  0  0  0  0  0  0  0
    1.3583   -9.0036    0.9764 C   0  0  0  0  0  0  0  0  0  0  0  0
    1.5996   -7.6362    1.1311 C   0  0  0  0  0  0  0  0  0  0  0  0
    1.4830   -7.0928    2.3626 C   0  0  0  0  0  0  0  0  0  0  0  0
    1.1171  -11.3311    1.8661 C   0  0  2  0  0  0  0  0  0  0  0  0
    0.5022  -11.6388    0.6531 C   0  0  0  0  0  0  0  0  0  0  0  0
   -0.4019  -11.0045    0.0890 N   0  0  0  0  0  0  0  0  0  0  0  0
    0.7155  -12.9137    0.2533 C   0  0  0  0  0  0  0  0  0  0  0  0
   -0.2454  -13.5455   -0.5051 C   0  0  0  0  0  0  0  0  0  0  0  0
   -1.1973  -12.8806   -1.0332 C   0  0  0  0  0  0  0  0  0  0  0  0
   -1.2948  -11.5803   -0.7523 C   0  0  0  0  0  0  0  0  0  0  0  0
    1.5469   -5.6505    2.6691 Cl  0  0  0  0  0  0  0  0  0  0  0  0
    1.0659  -11.9017    2.9939 C   0  0  0  0  0  0  0  0  0  0  0  0
    1.6048  -13.2542    3.0877 C   0  0  0  0  0  0  0  0  0  0  0  0
    0.8325  -14.3730    3.3866 C   0  0  0  0  0  0  0  0  0  0  0  0
    0.8625  -15.3697    2.4607 C   0  0  0  0  0  0  0  0  0  0  0  0
    2.2670  -15.8881    2.1460 C   0  0  0  0  0  0  0  0  0  0  0  0
  3  7  1  0
  7  8  1  0
  6 14  1  0
  7 15  1  1
 15 16  1  0
 16 17  1  0
 17 18  1  0
 18 19  1  0
  1  2  2  0
  2  3  1  0
  3  4  2  0
  4  5  1  0
  5  6  2  0
  1  6  1  0
  8  9  2  0
  9 13  1  0
 12 13  2  0
 11 12  1  0
 10 11  2  0
  8 10  1  0
M  END

$$$$
No_2818-/export/home/yangzhenyu/potential_scad_32_flow//YTHDC2/2024-12-06-03-22-00/
     RDKit          3D

 18 18  0  0  1  0  0  0  0  0999 V2000
    1.1787   -8.0297    3.5154 C   0  0  0  0  0  0  0  0  0  0  0  0
    1.1048   -9.2215    3.2892 C   0  0  0  0  0  0  0  0  0  0  0  0
    1.2339   -9.7611    2.0189 C   0  0  0  0  0  0  0  0  0  0  0  0
    1.3583   -9.0036    0.9764 C   0  0  0  0  0  0  0  0  0  0  0  0
    1.5996   -7.6362    1.1311 C   0  0  0  0  0  0  0  0  0  0  0  0
    1.4830   -7.0928    2.3626 C   0  0  0  0  0  0  0  0  0  0  0  0
    1.1008  -11.2372    1.8542 C   0  0  2  0  0  0  0  0  0  0  0  0
    1.9749  -12.0938    2.2342 C   0  0  0  0  0  0  0  0  0  0  0  0
    1.5180  -13.3509    2.5910 C   0  0  0  0  0  0  0  0  0  0  0  0
    2.0215  -14.5416    2.0368 O   0  0  0  0  0  0  0  0  0  0  0  0
    0.2736  -13.5055    3.0300 O   0  0  0  0  0  0  0  0  0  0  0  0
    1.5381   -5.6490    2.6598 C   0  0  0  0  0  0  0  0  0  0  0  0
    1.1803   -4.7986    1.6374 O   0  0  0  0  0  0  0  0  0  0  0  0
    1.7759   -5.1198    3.7784 O   0  0  0  0  0  0  0  0  0  0  0  0
    1.6514   -9.5238   -0.4775 Cl  0  0  0  0  0  0  0  0  0  0  0  0
    0.8775  -10.2002    4.3679 O   0  0  0  0  0  0  0  0  0  0  0  0
    0.5045  -11.5308    0.4749 O   0  0  0  0  0  0  0  0  0  0  0  0
   -0.8613  -11.6271    0.4095 C   0  0  0  0  0  0  0  0  0  0  0  0
  3  7  1  0
  7  8  1  6
  8  9  1  0
  9 10  2  0
  9 11  1  0
  6 12  1  0
 12 13  1  0
 12 14  2  0
  4 15  1  0
  2 16  1  0
  7 17  1  0
 17 18  1  0
  1  2  2  0
  2  3  1  0
  3  4  2  0
  4  5  1  0
  5  6  2  0
  1  6  1  0
M  END

$$$$
No_2819-/export/home/yangzhenyu/potential_scad_32_flow//YTHDC2/2024-12-06-03-22-00/
     RDKit          3D

 17 18  0  0  0  0  0  0  0  0999 V2000
    1.1787   -8.0297    3.5154 C   0  0  0  0  0  0  0  0  0  0  0  0
    1.0491   -6.8434    2.9820 C   0  0  0  0  0  0  0  0  0  0  0  0
    0.9905   -9.0774    2.6527 C   0  0  0  0  0  0  0  0  0  0  0  0
    0.7897   -8.9519    1.3691 C   0  0  0  0  0  0  0  0  0  0  0  0
    0.7018   -7.7198    0.7892 C   0  0  0  0  0  0  0  0  0  0  0  0
    0.8918   -6.5957    1.6117 C   0  0  0  0  0  0  0  0  0  0  0  0
    1.0998  -10.4710    3.2437 C   0  0  0  0  0  0  0  0  0  0  0  0
    0.0472  -11.2546    3.3963 C   0  0  0  0  0  0  0  0  0  0  0  0
   -0.3712  -11.7969    2.5371 C   0  0  0  0  0  0  0  0  0  0  0  0
   -1.6982  -12.5008    2.6364 C   0  0  0  0  0  0  0  0  0  0  0  0
    0.8946   -5.2894    1.1762 C   0  0  0  0  0  0  0  0  0  0  0  0
   -2.0253  -13.7275    2.2809 C   0  0  0  0  0  0  0  0  0  0  0  0
   -1.0804  -14.4350    1.5490 C   0  0  0  0  0  0  0  0  0  0  0  0
    0.2147  -13.9212    1.2621 C   0  0  0  0  0  0  0  0  0  0  0  0
    0.5758  -12.7465    1.8130 C   0  0  0  0  0  0  0  0  0  0  0  0
    2.4490  -10.8591    3.5801 C   0  0  0  0  0  0  0  0  0  0  0  0
   -1.4402  -15.5836    0.8835 C   0  0  0  0  0  0  0  0  0  0  0  0
  3  7  1  0
  7  8  1  0
  6 11  1  0
  7 16  1  0
 13 17  1  0
  8  9  1  0
  1  2  2  0
  2  6  1  0
  5  6  2  0
  4  5  1  0
  3  4  2  0
  1  3  1  0
  9 10  2  0
 10 12  1  0
 12 13  2  0
 13 14  1  0
 14 15  2  0
  9 15  1  0
M  END

$$$$
No_2820-/export/home/yangzhenyu/potential_scad_32_flow//YTHDC2/2024-12-06-03-22-00/
     RDKit          3D

 18 19  0  0  1  0  0  0  0  0999 V2000
    1.1787   -8.0297    3.5154 C   0  0  0  0  0  0  0  0  0  0  0  0
    1.0491   -6.8434    2.9820 C   0  0  0  0  0  0  0  0  0  0  0  0
    0.9905   -9.0774    2.6527 C   0  0  0  0  0  0  0  0  0  0  0  0
    0.7897   -8.9519    1.3691 C   0  0  0  0  0  0  0  0  0  0  0  0
    0.7018   -7.7198    0.7892 C   0  0  0  0  0  0  0  0  0  0  0  0
    0.8918   -6.5957    1.6117 C   0  0  0  0  0  0  0  0  0  0  0  0
    1.0711  -10.4814    3.2282 C   0  0  0  0  0  0  0  0  0  0  0  0
    1.1227  -11.5770    2.4616 C   0  0  0  0  0  0  0  0  0  0  0  0
    1.1500  -12.9052    3.0782 C   0  0  0  0  0  0  0  0  0  0  0  0
    0.6702  -13.9897    2.4998 C   0  0  0  0  0  0  0  0  0  0  0  0
    0.1753  -14.0336    1.3348 C   0  0  0  0  0  0  0  0  0  0  0  0
   -0.1166  -15.2988    0.6837 C   0  0  0  0  0  0  0  0  0  0  0  0
   -0.7014  -15.2329   -0.5584 N   0  0  0  0  0  0  0  0  0  0  0  0
   -0.7776  -14.0379   -1.0165 C   0  0  2  0  0  0  0  0  0  0  0  0
   -0.3028  -13.2178    0.2208 N   0  0  0  0  0  0  0  0  0  0  0  0
   -1.1740  -13.3137   -1.9849 C   0  0  0  0  0  0  0  0  0  0  0  0
    0.8481   -5.2822    1.1452 O   0  0  0  0  0  0  0  0  0  0  0  0
   -2.5012  -13.1899   -1.9677 C   0  0  0  0  0  0  0  0  0  0  0  0
  3  7  1  0
  7  8  2  3
  8  9  1  0
  9 10  2  3
 10 11  1  0
 11 12  1  0
 12 13  2  0
 13 14  1  0
 11 15  1  0
 14 15  1  0
 14 16  1  1
  6 17  1  0
 16 18  2  0
  1  2  2  0
  2  6  1  0
  5  6  2  0
  4  5  1  0
  3  4  2  0
  1  3  1  0
M  END

$$$$
No_2821-/export/home/yangzhenyu/potential_scad_32_flow//YTHDC2/2024-12-06-03-22-00/
     RDKit          3D

 17 18  0  0  0  0  0  0  0  0999 V2000
    1.1787   -8.0297    3.5154 C   0  0  0  0  0  0  0  0  0  0  0  0
    1.0491   -6.8434    2.9820 C   0  0  0  0  0  0  0  0  0  0  0  0
    0.0950   -8.8404    3.2292 C   0  0  0  0  0  0  0  0  0  0  0  0
   -0.9173   -8.4596    2.5152 C   0  0  0  0  0  0  0  0  0  0  0  0
   -1.0331   -7.2162    2.0653 C   0  0  0  0  0  0  0  0  0  0  0  0
    0.1897   -6.3124    2.3579 C   0  0  0  0  0  0  0  0  0  0  0  0
    0.1193  -10.2475    3.6957 C   0  0  0  0  0  0  0  0  0  0  0  0
   -1.0675  -10.8491    3.9321 C   0  0  0  0  0  0  0  0  0  0  0  0
   -2.1960  -10.4211    3.2933 C   0  0  0  0  0  0  0  0  0  0  0  0
   -2.1466   -9.1572    2.5998 C   0  0  0  0  0  0  0  0  0  0  0  0
    0.0780   -4.7439    1.7911 Cl  0  0  0  0  0  0  0  0  0  0  0  0
    1.4823  -10.8280    4.6060 C   0  0  0  0  0  0  0  0  0  0  0  0
    1.6559  -12.1234    3.9026 Cl  0  0  0  0  0  0  0  0  0  0  0  0
    2.3248  -10.1052    5.0952 O   0  0  0  0  0  0  0  0  0  0  0  0
   -3.3912  -11.0998    3.2123 O   0  0  0  0  0  0  0  0  0  0  0  0
   -3.3696  -12.3332    2.6545 C   0  0  0  0  0  0  0  0  0  0  0  0
   -3.3482   -8.7847    2.0378 C   0  0  0  0  0  0  0  0  0  0  0  0
  6 11  1  0
  7 12  1  0
 12 13  1  0
 12 14  2  0
  9 15  1  0
 15 16  1  0
 10 17  1  0
  4 10  2  0
  9 10  1  0
  8  9  2  0
  7  8  1  0
  3  7  2  0
  1  2  2  0
  2  6  1  0
  5  6  2  0
  4  5  1  0
  3  4  1  0
  1  3  1  0
M  END

$$$$
No_2822-/export/home/yangzhenyu/potential_scad_32_flow//YTHDC2/2024-12-06-03-22-00/
     RDKit          3D

 19 19  0  0  0  0  0  0  0  0999 V2000
    1.1787   -8.0297    3.5154 C   0  0  0  0  0  0  0  0  0  0  0  0
    1.0491   -6.8434    2.9820 C   0  0  0  0  0  0  0  0  0  0  0  0
    0.0950   -8.8404    3.2292 C   0  0  0  0  0  0  0  0  0  0  0  0
   -0.9173   -8.4596    2.5152 C   0  0  0  0  0  0  0  0  0  0  0  0
   -1.0331   -7.2162    2.0653 C   0  0  0  0  0  0  0  0  0  0  0  0
   -0.0105   -6.3168    2.3081 C   0  0  0  0  0  0  0  0  0  0  0  0
    0.1935  -10.3737    3.7416 C   0  0  0  0  0  0  0  0  0  0  0  0
   -0.9968  -11.0614    3.6410 O   0  0  0  0  0  0  0  0  0  0  0  0
    1.0685  -10.7657    4.6848 N   0  0  0  0  0  0  0  0  0  0  0  0
    0.0778   -4.9698    1.8035 C   0  0  0  0  0  0  0  0  0  0  0  0
   -0.0719   -4.8162    0.5484 O   0  0  0  0  0  0  0  0  0  0  0  0
    0.3489   -3.9324    2.6530 O   0  0  0  0  0  0  0  0  0  0  0  0
    1.2556  -12.0542    4.8451 C   0  0  0  0  0  0  0  0  0  0  0  0
    1.6515  -12.6196    3.4293 C   0  0  0  0  0  0  0  0  0  0  0  0
    1.5423  -14.0698    3.3522 C   0  0  0  0  0  0  0  0  0  0  0  0
    1.8339  -14.7154    2.2310 Cl  0  0  0  0  0  0  0  0  0  0  0  0
    0.7111  -14.7049    4.3156 O   0  0  0  0  0  0  0  0  0  0  0  0
    0.9455   -2.6913    2.2227 C   0  0  0  0  0  0  0  0  0  0  0  0
    2.3911   -2.8489    2.3506 C   0  0  0  0  0  0  0  0  0  0  0  0
  3  7  1  0
  7  8  2  0
  7  9  1  0
  6 10  1  0
 10 11  2  0
 10 12  1  0
  9 13  1  0
 13 14  1  0
 14 15  1  0
 15 16  1  0
 15 17  2  0
 12 18  1  0
 18 19  1  0
  1  2  2  0
  2  6  1  0
  5  6  2  0
  4  5  1  0
  3  4  2  0
  1  3  1  0
M  END

$$$$
No_2823-/export/home/yangzhenyu/potential_scad_32_flow//YTHDC2/2024-12-06-03-22-00/
     RDKit          3D

 18 18  0  0  0  0  0  0  0  0999 V2000
    1.1787   -8.0297    3.5154 C   0  0  0  0  0  0  0  0  0  0  0  0
    1.0491   -6.8434    2.9820 C   0  0  0  0  0  0  0  0  0  0  0  0
    0.9905   -9.0774    2.6527 C   0  0  0  0  0  0  0  0  0  0  0  0
    0.7897   -8.9519    1.3691 C   0  0  0  0  0  0  0  0  0  0  0  0
    0.7018   -7.7198    0.7892 C   0  0  0  0  0  0  0  0  0  0  0  0
    0.8918   -6.5957    1.6117 C   0  0  0  0  0  0  0  0  0  0  0  0
    1.0998  -10.4710    3.2437 C   0  0  0  0  0  0  0  0  0  0  0  0
    1.3102  -11.5554    2.5214 C   0  0  0  0  0  0  0  0  0  0  0  0
    1.4257  -12.8124    3.1919 C   0  0  0  0  0  0  0  0  0  0  0  0
    1.4301  -14.0627    2.4374 C   0  0  0  0  0  0  0  0  0  0  0  0
    0.8799   -5.2656    1.2046 C   0  0  0  0  0  0  0  0  0  0  0  0
    1.0419  -15.2242    3.0612 C   0  0  0  0  0  0  0  0  0  0  0  0
    0.4268  -15.4625    3.9864 O   0  0  0  0  0  0  0  0  0  0  0  0
    2.0285  -16.2721    2.7656 O   0  0  0  0  0  0  0  0  0  0  0  0
    0.1946   -4.2943    2.0011 O   0  0  0  0  0  0  0  0  0  0  0  0
    0.2721   -2.9534    1.5982 C   0  0  0  0  0  0  0  0  0  0  0  0
   -0.3253   -2.6997    0.4179 C   0  0  0  0  0  0  0  0  0  0  0  0
    0.3345   -1.9786   -0.5222 C   0  0  0  0  0  0  0  0  0  0  0  0
  3  7  1  0
  7  8  2  3
  8  9  1  0
  9 10  1  0
  6 11  1  0
 10 12  1  0
 12 13  2  0
 12 14  1  0
 11 15  1  0
 15 16  1  0
 16 17  1  0
 17 18  1  0
  1  2  2  0
  2  6  1  0
  5  6  2  0
  4  5  1  0
  3  4  2  0
  1  3  1  0
M  END

$$$$
No_2824-/export/home/yangzhenyu/potential_scad_32_flow//YTHDC2/2024-12-06-03-22-00/
     RDKit          3D

 20 22  0  0  0  0  0  0  0  0999 V2000
    1.1787   -8.0297    3.5154 N   0  0  0  0  0  0  0  0  0  0  0  0
    1.0818   -9.0751    3.2053 C   0  0  0  0  0  0  0  0  0  0  0  0
    0.7576   -9.3725    1.9159 C   0  0  0  0  0  0  0  0  0  0  0  0
    0.7445  -10.8746    1.6491 C   0  0  0  0  0  0  0  0  0  0  0  0
    0.9910  -11.7526    2.6067 C   0  0  0  0  0  0  0  0  0  0  0  0
    1.4405  -11.4331    3.8064 C   0  0  0  0  0  0  0  0  0  0  0  0
    1.4304  -10.0463    4.1669 C   0  0  0  0  0  0  0  0  0  0  0  0
    1.1048   -6.8241    2.6625 C   0  0  0  0  0  0  0  0  0  0  0  0
    0.9671   -7.2362    1.3168 N   0  0  0  0  0  0  0  0  0  0  0  0
    0.8819   -8.4374    0.9256 C   0  0  0  0  0  0  0  0  0  0  0  0
    0.6439   -8.6917   -0.4100 N   0  0  0  0  0  0  0  0  0  0  0  0
    0.9348  -13.3285    2.3421 C   0  0  0  0  0  0  0  0  0  0  0  0
   -0.0899  -13.7331    1.6515 C   0  0  0  0  0  0  0  0  0  0  0  0
    1.8047  -14.0980    3.0538 C   0  0  0  0  0  0  0  0  0  0  0  0
    1.6598  -15.4581    2.8420 C   0  0  0  0  0  0  0  0  0  0  0  0
    0.6266  -15.9351    2.1785 C   0  0  0  0  0  0  0  0  0  0  0  0
   -1.0591  -12.7823    1.0076 C   0  0  0  0  0  0  0  0  0  0  0  0
   -0.2429  -15.0757    1.5120 C   0  0  0  0  0  0  0  0  0  0  0  0
    1.2838   -5.4552    3.0152 C   0  0  0  0  0  0  0  0  0  0  0  0
   -0.9083  -12.6242   -0.3297 C   0  0  0  0  0  0  0  0  0  0  0  0
 10 11  1  0
  5 12  1  0
 13 17  1  0
  8 19  1  0
 17 20  1  0
 12 13  2  0
 13 18  1  0
 16 18  2  0
 15 16  1  0
 14 15  2  0
 12 14  1  0
  3  4  1  0
  4  5  2  0
  5  6  1  0
  6  7  2  0
  2  7  1  0
  1  2  2  0
  2  3  1  0
  3 10  2  0
  9 10  1  0
  8  9  2  0
  1  8  1  0
M  END

$$$$
No_2825-/export/home/yangzhenyu/potential_scad_32_flow//YTHDC2/2024-12-06-03-22-00/
     RDKit          3D

 19 20  0  0  0  0  0  0  0  0999 V2000
    1.1787   -8.0297    3.5154 O   0  0  0  0  0  0  0  0  0  0  0  0
    0.9969   -8.9689    3.0048 C   0  0  0  0  0  0  0  0  0  0  0  0
    1.3055  -10.1056    3.6616 C   0  0  0  0  0  0  0  0  0  0  0  0
    1.1249  -11.3503    3.0941 C   0  0  0  0  0  0  0  0  0  0  0  0
    0.6932  -11.4484    1.8586 C   0  0  0  0  0  0  0  0  0  0  0  0
    0.5498  -10.3736    1.0579 C   0  0  0  0  0  0  0  0  0  0  0  0
    0.9096   -9.0192    1.7289 C   0  0  0  0  0  0  0  0  0  0  0  0
    0.4828   -7.8463    1.0928 C   0  0  0  0  0  0  0  0  0  0  0  0
   -0.5701   -7.6740    0.5532 O   0  0  0  0  0  0  0  0  0  0  0  0
    1.3032   -6.8117    1.0572 O   0  0  0  0  0  0  0  0  0  0  0  0
    1.2142  -12.8332    3.9449 C   0  0  0  0  0  0  0  0  0  0  0  0
    1.1605  -13.9313    3.0261 C   0  0  0  0  0  0  0  0  0  0  0  0
    1.4625  -14.0440    1.8337 C   0  0  0  0  0  0  0  0  0  0  0  0
    0.8918  -13.2914    0.9055 C   0  0  0  0  0  0  0  0  0  0  0  0
    0.7913  -12.0973    0.7304 C   0  0  0  0  0  0  0  0  0  0  0  0
    1.4845  -15.6105    1.6299 Cl  0  0  0  0  0  0  0  0  0  0  0  0
    0.5106  -11.7768   -0.4849 O   0  0  0  0  0  0  0  0  0  0  0  0
    1.6613  -10.2292    5.1656 O   0  0  0  0  0  0  0  0  0  0  0  0
    1.5122  -15.0141    3.9665 O   0  0  0  0  0  0  0  0  0  0  0  0
  1  2  1  0
  7  8  1  0
  8  9  2  0
  8 10  1  0
  4 11  1  0
 11 12  2  0
 12 13  1  0
 13 14  2  0
  5 15  1  0
 14 15  1  0
 13 16  1  0
 15 17  2  0
  3 18  1  0
 12 19  1  0
  2  3  2  0
  3  4  1  0
  4  5  2  0
  5  6  1  0
  6  7  2  0
  2  7  1  0
M  END

$$$$
No_2826-/export/home/yangzhenyu/potential_scad_32_flow//YTHDC2/2024-12-06-03-22-00/
     RDKit          3D

 15 15  0  0  1  0  0  0  0  0999 V2000
    1.1787   -8.0297    3.5154 C   0  0  0  0  0  0  0  0  0  0  0  0
    1.1048   -9.2215    3.2892 C   0  0  2  0  0  0  0  0  0  0  0  0
    1.0240   -9.7790    2.0239 C   0  0  1  0  0  0  0  0  0  0  0  0
    1.1393   -9.0211    0.9686 C   0  0  1  0  0  0  0  0  0  0  0  0
    1.4051   -7.6500    1.1251 C   0  0  0  0  0  0  0  0  0  0  0  0
    1.4868   -7.1041    2.3534 C   0  0  1  0  0  0  0  0  0  0  0  0
    1.5562   -5.7208    2.5782 C   0  0  0  0  0  0  0  0  0  0  0  0
    0.8750  -11.2135    1.9117 Br  0  0  0  0  0  0  0  0  0  0  0  0
    1.3141   -4.7863    1.6416 O   0  0  0  0  0  0  0  0  0  0  0  0
    1.7938   -5.2052    3.8261 O   0  0  0  0  0  0  0  0  0  0  0  0
    1.0661   -9.5400   -0.5117 C   0  0  0  0  0  0  0  0  0  0  0  0
   -0.1200  -10.0634   -0.7433 O   0  0  0  0  0  0  0  0  0  0  0  0
    1.7282   -9.1295   -1.4208 O   0  0  0  0  0  0  0  0  0  0  0  0
    0.9983  -10.1088    4.4204 Cl  0  0  0  0  0  0  0  0  0  0  0  0
    1.6839   -6.8975    0.1119 O   0  0  0  0  0  0  0  0  0  0  0  0
  2  3  1  0
  4  5  1  0
  1  6  1  0
  5  6  1  0
  6  7  1  6
  3  8  1  1
  7  9  2  0
  7 10  1  0
  4 11  1  6
 11 12  2  0
 11 13  1  0
  2 14  1  1
  5 15  2  0
  3  4  1  0
  1  2  1  0
M  END

$$$$
No_2827-/export/home/yangzhenyu/potential_scad_32_flow//YTHDC2/2024-12-06-03-22-00/
     RDKit          3D

 18 19  0  0  0  0  0  0  0  0999 V2000
    1.1787   -8.0297    3.5154 C   0  0  0  0  0  0  0  0  0  0  0  0
    1.1048   -9.2215    3.2892 C   0  0  0  0  0  0  0  0  0  0  0  0
    1.0239   -9.7790    2.0239 C   0  0  0  0  0  0  0  0  0  0  0  0
    1.1393   -9.0211    0.9686 C   0  0  0  0  0  0  0  0  0  0  0  0
    1.4051   -7.6500    1.1251 C   0  0  0  0  0  0  0  0  0  0  0  0
    1.4868   -7.1041    2.3534 C   0  0  0  0  0  0  0  0  0  0  0  0
    0.9740  -10.2562    4.5561 C   0  0  0  0  0  0  0  0  0  0  0  0
    1.8500  -11.4730    4.2897 C   0  0  0  0  0  0  0  0  0  0  0  0
    1.2090  -12.5080    3.6445 N   0  0  0  0  0  0  0  0  0  0  0  0
   -0.1675  -12.5655    3.5961 C   0  0  0  0  0  0  0  0  0  0  0  0
    1.9504  -13.5561    3.1624 C   0  0  0  0  0  0  0  0  0  0  0  0
    1.3012  -14.7209    2.7174 C   0  0  0  0  0  0  0  0  0  0  0  0
    0.0084  -14.7799    2.6835 C   0  0  0  0  0  0  0  0  0  0  0  0
   -0.7662  -13.6577    3.0924 C   0  0  0  0  0  0  0  0  0  0  0  0
    2.1503  -15.8577    2.3464 C   0  0  0  0  0  0  0  0  0  0  0  0
    1.6442  -17.1643    2.3421 Br  0  0  0  0  0  0  0  0  0  0  0  0
    3.5241  -15.5803    2.0484 O   0  0  0  0  0  0  0  0  0  0  0  0
    1.1240   -9.5958   -0.5480 Cl  0  0  0  0  0  0  0  0  0  0  0  0
  2  7  1  0
  7  8  1  0
  8  9  1  0
  9 10  1  0
  9 11  1  0
 12 13  1  0
 10 14  1  0
 13 14  1  0
 12 15  1  0
 15 16  1  0
 15 17  2  0
  4 18  1  0
 11 12  1  0
  1  2  2  0
  2  3  1  0
  3  4  2  0
  4  5  1  0
  5  6  2  0
  1  6  1  0
M  END

$$$$
No_2828-/export/home/yangzhenyu/potential_scad_32_flow//YTHDC2/2024-12-06-03-22-00/
     RDKit          3D

 18 19  0  0  1  0  0  0  0  0999 V2000
    1.1787   -8.0297    3.5154 C   0  0  0  0  0  0  0  0  0  0  0  0
    1.1048   -9.2215    3.2892 C   0  0  0  0  0  0  0  0  0  0  0  0
    1.2339   -9.7611    2.0189 C   0  0  0  0  0  0  0  0  0  0  0  0
    1.3583   -9.0036    0.9764 C   0  0  0  0  0  0  0  0  0  0  0  0
    1.7077   -9.6100   -0.3010 C   0  0  0  0  0  0  0  0  0  0  0  0
    1.3637   -7.1087    2.3226 C   0  0  0  0  0  0  0  0  0  0  0  0
    1.4257   -7.6645    1.0231 C   0  0  0  0  0  0  0  0  0  0  0  0
    1.9364   -8.8976   -1.3212 O   0  0  0  0  0  0  0  0  0  0  0  0
    1.2853  -10.8201   -0.4625 O   0  0  0  0  0  0  0  0  0  0  0  0
    1.1242  -10.1671    4.3962 Cl  0  0  0  0  0  0  0  0  0  0  0  0
    1.3274   -5.3634    2.5896 Br  0  0  0  0  0  0  0  0  0  0  0  0
    1.2225  -11.1441    1.8982 N   0  0  0  0  0  0  0  0  0  0  0  0
    1.0552  -11.6378    0.4397 C   0  0  1  0  0  0  0  0  0  0  0  0
    0.1723  -12.6691    0.4834 C   0  0  0  0  0  0  0  0  0  0  0  0
   -1.0009  -12.4431   -0.1367 C   0  0  0  0  0  0  0  0  0  0  0  0
   -1.7330  -11.4302    0.1376 C   0  0  0  0  0  0  0  0  0  0  0  0
   -2.9276  -11.0631   -0.4054 C   0  0  0  0  0  0  0  0  0  0  0  0
   -3.4478  -11.9524   -1.2182 C   0  0  0  0  0  0  0  0  0  0  0  0
  4  5  1  0
  5  8  2  0
  5  9  1  0
  2 10  1  0
  6 11  1  0
  3 12  1  0
  9 13  1  0
 12 13  1  0
 13 14  1  1
 14 15  1  0
 15 16  2  3
 16 17  1  0
 17 18  2  0
  1  2  2  0
  2  3  1  0
  3  4  2  0
  4  7  1  0
  6  7  2  0
  1  6  1  0
M  END

$$$$
No_2829-/export/home/yangzhenyu/potential_scad_32_flow//YTHDC2/2024-12-06-03-22-00/
     RDKit          3D

 20 22  0  0  1  0  0  0  0  0999 V2000
    1.1787   -8.0297    3.5154 C   0  0  0  0  0  0  0  0  0  0  0  0
    1.1048   -9.2215    3.2892 C   0  0  0  0  0  0  0  0  0  0  0  0
    1.0239   -9.7790    2.0239 C   0  0  0  0  0  0  0  0  0  0  0  0
    1.1393   -9.0211    0.9686 C   0  0  0  0  0  0  0  0  0  0  0  0
    1.4051   -7.6500    1.1251 C   0  0  0  0  0  0  0  0  0  0  0  0
    1.4868   -7.1041    2.3534 C   0  0  0  0  0  0  0  0  0  0  0  0
    1.5885   -5.7190    2.5687 C   0  0  0  0  0  0  0  0  0  0  0  0
    0.8710  -11.2137    1.9144 C   0  0  2  0  0  0  0  0  0  0  0  0
    1.8887  -12.0352    2.0512 C   0  0  0  0  0  0  0  0  0  0  0  0
    1.7070  -13.3672    1.7487 C   0  0  0  0  0  0  0  0  0  0  0  0
    0.3264  -13.5590    1.3764 C   0  0  0  0  0  0  0  0  0  0  0  0
   -0.1488  -12.1363    1.4247 C   0  0  0  0  0  0  0  0  0  0  0  0
   -0.3924  -14.4854    1.0363 C   0  0  0  0  0  0  0  0  0  0  0  0
   -0.1071  -15.6965    1.5143 C   0  0  0  0  0  0  0  0  0  0  0  0
   -0.8091  -16.9089    1.2293 C   0  0  0  0  0  0  0  0  0  0  0  0
   -1.7894  -16.7278    0.2504 C   0  0  0  0  0  0  0  0  0  0  0  0
   -2.0256  -15.5460   -0.3576 C   0  0  0  0  0  0  0  0  0  0  0  0
   -1.2825  -14.3986    0.0110 C   0  0  0  0  0  0  0  0  0  0  0  0
   -3.0566  -15.4680   -1.3259 C   0  0  0  0  0  0  0  0  0  0  0  0
   -3.6037  -14.3589   -1.7626 C   0  0  0  0  0  0  0  0  0  0  0  0
  6  7  1  0
  8  3  1  6
  8  9  1  0
  9 10  2  0
 10 11  1  0
  8 12  1  0
 11 12  1  0
 11 13  1  0
 17 19  1  0
 19 20  2  0
  1  2  2  0
  2  3  1  0
  3  4  2  0
  4  5  1  0
  5  6  2  0
  1  6  1  0
 13 14  2  0
 14 15  1  0
 15 16  2  0
 16 17  1  0
 17 18  2  0
 13 18  1  0
M  END

$$$$
No_2830-/export/home/yangzhenyu/potential_scad_32_flow//YTHDC2/2024-12-06-03-22-00/
     RDKit          3D

 19 21  0  0  0  0  0  0  0  0999 V2000
    1.1787   -8.0297    3.5154 C   0  0  0  0  0  0  0  0  0  0  0  0
    1.1048   -9.2215    3.2892 C   0  0  0  0  0  0  0  0  0  0  0  0
    1.3627  -10.1721    4.3044 C   0  0  0  0  0  0  0  0  0  0  0  0
    1.0682  -11.5187    4.0618 C   0  0  0  0  0  0  0  0  0  0  0  0
    0.6332  -11.9655    2.9682 C   0  0  0  0  0  0  0  0  0  0  0  0
    0.4776  -11.1308    1.9203 C   0  0  0  0  0  0  0  0  0  0  0  0
    0.7470   -9.8274    2.0368 C   0  0  0  0  0  0  0  0  0  0  0  0
    0.5536   -7.1314    2.6861 C   0  0  0  0  0  0  0  0  0  0  0  0
    0.2951   -7.6000    1.3275 C   0  0  0  0  0  0  0  0  0  0  0  0
    0.2693   -8.8631    1.0973 C   0  0  0  0  0  0  0  0  0  0  0  0
   -0.0513   -6.7125    0.4242 C   0  0  0  0  0  0  0  0  0  0  0  0
   -0.6670   -7.1291   -0.6460 C   0  0  0  0  0  0  0  0  0  0  0  0
   -0.7229   -8.4181   -1.0132 C   0  0  0  0  0  0  0  0  0  0  0  0
   -0.2590   -9.2848   -0.1532 C   0  0  0  0  0  0  0  0  0  0  0  0
   -1.0997   -8.8353   -2.2697 C   0  0  0  0  0  0  0  0  0  0  0  0
   -1.2654  -10.2064   -2.4923 O   0  0  0  0  0  0  0  0  0  0  0  0
   -1.1811   -8.1337   -3.4197 O   0  0  0  0  0  0  0  0  0  0  0  0
    0.5526  -13.4000    2.7204 C   0  0  0  0  0  0  0  0  0  0  0  0
   -0.6776  -13.8574    2.3178 C   0  0  0  0  0  0  0  0  0  0  0  0
 13 15  1  0
 15 16  2  0
 15 17  1  0
  5 18  1  0
 18 19  1  0
  2  3  1  0
  3  4  2  0
  4  5  1  0
  5  6  2  0
  6  7  1  0
 10 14  1  0
 13 14  2  0
 12 13  1  0
 11 12  2  0
  9 11  1  0
  1  2  2  0
  2  7  1  0
  7 10  2  0
  9 10  1  0
  8  9  2  0
  1  8  1  0
M  END

$$$$
No_2831-/export/home/yangzhenyu/potential_scad_32_flow//YTHDC2/2024-12-06-03-22-00/
     RDKit          3D

 18 19  0  0  1  0  0  0  0  0999 V2000
    1.1787   -8.0297    3.5154 N   0  0  0  0  0  0  0  0  0  0  0  0
    1.0818   -9.0751    3.2053 C   0  0  0  0  0  0  0  0  0  0  0  0
    1.5216  -10.1164    3.9747 C   0  0  0  0  0  0  0  0  0  0  0  0
    1.4420  -11.4363    3.6461 C   0  0  0  0  0  0  0  0  0  0  0  0
    0.5969  -11.7648    2.6785 C   0  0  0  0  0  0  0  0  0  0  0  0
    0.0096  -10.8332    1.9506 C   0  0  0  0  0  0  0  0  0  0  0  0
    0.3359   -9.5186    2.1388 C   0  0  0  0  0  0  0  0  0  0  0  0
    0.8819   -6.9011    2.6487 C   0  0  2  0  0  0  0  0  0  0  0  0
    0.4076   -7.2265    1.4607 N   0  0  0  0  0  0  0  0  0  0  0  0
    0.0633   -8.4448    1.1740 C   0  0  0  0  0  0  0  0  0  0  0  0
   -0.4997   -8.6880    0.0350 O   0  0  0  0  0  0  0  0  0  0  0  0
    1.2867   -5.5457    3.0370 C   0  0  0  0  0  0  0  0  0  0  0  0
    0.3445  -13.1890    2.4006 C   0  0  0  0  0  0  0  0  0  0  0  0
    1.2446  -14.1141    2.7952 C   0  0  0  0  0  0  0  0  0  0  0  0
    1.3884  -15.3855    2.2100 C   0  0  0  0  0  0  0  0  0  0  0  0
    2.1199  -16.4026    2.6495 C   0  0  0  0  0  0  0  0  0  0  0  0
    3.5426  -16.2871    2.5749 O   0  0  0  0  0  0  0  0  0  0  0  0
    1.7884  -17.4944    3.2425 N   0  0  0  0  0  0  0  0  0  0  0  0
  1  2  1  0
  8  9  1  0
  7 10  1  0
  9 10  1  0
 10 11  2  0
  8 12  1  6
  5 13  1  0
 13 14  1  0
 14 15  1  0
 15 16  1  0
 16 17  2  0
 16 18  1  0
  1  8  1  0
  2  3  2  0
  3  4  1  0
  4  5  2  0
  5  6  1  0
  6  7  2  0
  2  7  1  0
M  END

$$$$
No_2832-/export/home/yangzhenyu/potential_scad_32_flow//YTHDC2/2024-12-06-03-22-00/
     RDKit          3D

 18 19  0  0  0  0  0  0  0  0999 V2000
    1.1787   -8.0297    3.5154 C   0  0  0  0  0  0  0  0  0  0  0  0
    1.0491   -6.8434    2.9820 C   0  0  0  0  0  0  0  0  0  0  0  0
    0.0950   -8.8404    3.2292 N   0  0  0  0  0  0  0  0  0  0  0  0
    0.2390   -6.4413    2.0402 C   0  0  0  0  0  0  0  0  0  0  0  0
   -0.6241   -7.2510    1.6210 C   0  0  0  0  0  0  0  0  0  0  0  0
   -0.6236   -8.5147    2.0670 C   0  0  0  0  0  0  0  0  0  0  0  0
    0.4650   -5.0264    1.3497 F   0  0  0  0  0  0  0  0  0  0  0  0
   -1.6358   -9.4319    1.7562 C   0  0  0  0  0  0  0  0  0  0  0  0
   -2.8458   -9.3969    2.2883 C   0  0  0  0  0  0  0  0  0  0  0  0
   -3.4963  -10.4064    2.3098 C   0  0  0  0  0  0  0  0  0  0  0  0
   -3.2890  -11.5365    1.5015 C   0  0  0  0  0  0  0  0  0  0  0  0
   -2.0572  -11.5918    0.8712 C   0  0  0  0  0  0  0  0  0  0  0  0
   -1.1910  -10.5544    0.9788 C   0  0  0  0  0  0  0  0  0  0  0  0
    0.1067  -10.6007    0.4421 C   0  0  0  0  0  0  0  0  0  0  0  0
    0.9870  -11.6751    0.9162 C   0  0  0  0  0  0  0  0  0  0  0  0
    2.0409  -11.2641    1.7846 C   0  0  0  0  0  0  0  0  0  0  0  0
    2.1813  -12.0552    2.9440 C   0  0  0  0  0  0  0  0  0  0  0  0
    1.4855  -13.2208    3.0026 Cl  0  0  0  0  0  0  0  0  0  0  0  0
  4  7  1  0
  6  8  1  0
 13 14  1  0
 14 15  1  0
 15 16  1  0
 16 17  2  3
 17 18  1  0
  1  2  2  0
  2  4  1  0
  4  5  2  0
  5  6  1  0
  3  6  2  0
  1  3  1  0
  8  9  2  0
  9 10  1  0
 10 11  2  0
 11 12  1  0
 12 13  2  0
  8 13  1  0
M  END

$$$$
No_2833-/export/home/yangzhenyu/potential_scad_32_flow//YTHDC2/2024-12-06-03-22-00/
     RDKit          3D

 18 19  0  0  1  0  0  0  0  0999 V2000
    1.1787   -8.0297    3.5154 C   0  0  0  0  0  0  0  0  0  0  0  0
    1.1048   -9.2215    3.2892 C   0  0  0  0  0  0  0  0  0  0  0  0
    1.2339   -9.7611    2.0189 C   0  0  0  0  0  0  0  0  0  0  0  0
    1.3583   -9.0036    0.9764 C   0  0  0  0  0  0  0  0  0  0  0  0
    1.5996   -7.6362    1.1311 C   0  0  0  0  0  0  0  0  0  0  0  0
    1.4830   -7.0928    2.3626 C   0  0  0  0  0  0  0  0  0  0  0  0
    1.1008  -11.2372    1.8542 C   0  0  2  0  0  0  0  0  0  0  0  0
    1.9749  -12.0938    2.2342 C   0  0  0  0  0  0  0  0  0  0  0  0
    1.7533  -13.4231    1.8956 C   0  0  0  0  0  0  0  0  0  0  0  0
    0.5760  -13.4522    1.0640 C   0  0  0  0  0  0  0  0  0  0  0  0
   -0.1078  -12.3462    0.6573 C   0  0  0  0  0  0  0  0  0  0  0  0
    0.1772  -11.2434    0.9575 C   0  0  0  0  0  0  0  0  0  0  0  0
    1.5562   -5.4454    2.7458 Cl  0  0  0  0  0  0  0  0  0  0  0  0
   -0.6488  -10.2830    0.4930 O   0  0  0  0  0  0  0  0  0  0  0  0
    2.5002  -14.4854    2.2994 C   0  0  0  0  0  0  0  0  0  0  0  0
    1.9544  -15.7897    2.2513 O   0  0  0  0  0  0  0  0  0  0  0  0
    1.0350  -16.1179    2.9931 C   0  0  0  0  0  0  0  0  0  0  0  0
    0.7843  -17.0239    3.3881 C   0  0  0  0  0  0  0  0  0  0  0  0
  7  3  1  6
  7  8  1  0
  9 10  1  0
  7 12  1  0
 11 12  1  0
  6 13  1  0
 12 14  2  0
  9 15  1  0
 15 16  1  0
 16 17  1  0
 17 18  2  0
  8  9  1  0
 10 11  1  0
  1  2  2  0
  2  3  1  0
  3  4  2  0
  4  5  1  0
  5  6  2  0
  1  6  1  0
M  END

$$$$
No_2834-/export/home/yangzhenyu/potential_scad_32_flow//YTHDC2/2024-12-06-03-22-00/
     RDKit          3D

 13 13  0  0  0  0  0  0  0  0999 V2000
    1.1787   -8.0297    3.5154 C   0  0  0  0  0  0  0  0  0  0  0  0
    1.1048   -9.2215    3.2892 C   0  0  0  0  0  0  0  0  0  0  0  0
    1.3627  -10.1721    4.3044 C   0  0  0  0  0  0  0  0  0  0  0  0
    1.7354  -11.4730    3.9023 C   0  0  0  0  0  0  0  0  0  0  0  0
    1.8080  -11.8127    2.7216 C   0  0  0  0  0  0  0  0  0  0  0  0
    1.5854  -11.0021    1.7249 C   0  0  0  0  0  0  0  0  0  0  0  0
    1.3573   -9.7389    1.9287 C   0  0  0  0  0  0  0  0  0  0  0  0
    1.2865   -8.8078    0.9161 C   0  0  0  0  0  0  0  0  0  0  0  0
    1.6845   -9.1638   -0.2896 C   0  0  0  0  0  0  0  0  0  0  0  0
    2.0771  -13.2284    2.3629 C   0  0  0  0  0  0  0  0  0  0  0  0
    2.4409  -13.5750    1.0743 C   0  0  0  0  0  0  0  0  0  0  0  0
    1.6608  -14.2803    3.2005 N   0  0  0  0  0  0  0  0  0  0  0  0
    1.6451  -15.4568    2.7688 C   0  0  0  0  0  0  0  0  0  0  0  0
  1  2  1  0
  7  8  1  0
  8  9  2  0
  5 10  1  0
 10 11  2  0
 10 12  1  0
 12 13  2  0
  2  3  2  0
  3  4  1  0
  4  5  2  0
  5  6  1  0
  6  7  2  0
  2  7  1  0
M  END

$$$$
No_2835-/export/home/yangzhenyu/potential_scad_32_flow//YTHDC2/2024-12-06-03-22-00/
     RDKit          3D

 19 19  0  0  1  0  0  0  0  0999 V2000
    1.1787   -8.0297    3.5154 C   0  0  0  0  0  0  0  0  0  0  0  0
    1.1048   -9.2215    3.2892 C   0  0  0  0  0  0  0  0  0  0  0  0
    1.2339   -9.7611    2.0189 C   0  0  0  0  0  0  0  0  0  0  0  0
    1.1954  -11.2312    1.8661 C   0  0  1  0  0  0  0  0  0  0  0  0
    1.5546  -12.1691    2.7931 C   0  0  0  0  0  0  0  0  0  0  0  0
    0.5849   -7.0929    2.5729 C   0  0  0  0  0  0  0  0  0  0  0  0
    0.5651   -5.6716    2.6680 C   0  0  0  0  0  0  0  0  0  0  0  0
    1.0545   -4.7862    1.9421 C   0  0  0  0  0  0  0  0  0  0  0  0
    0.6791  -13.0332    3.1446 C   0  0  0  0  0  0  0  0  0  0  0  0
   -0.5454  -12.9028    2.7262 C   0  0  0  0  0  0  0  0  0  0  0  0
   -0.7416  -12.1694    1.6223 C   0  0  0  0  0  0  0  0  0  0  0  0
    0.0641  -11.2488    1.1284 C   0  0  2  0  0  0  0  0  0  0  0  0
    1.6667   -5.1268    0.8750 O   0  0  0  0  0  0  0  0  0  0  0  0
    0.8318   -3.4554    2.1652 N   0  0  0  0  0  0  0  0  0  0  0  0
    0.2690   -3.0349    3.3633 C   0  0  0  0  0  0  0  0  0  0  0  0
   -0.1108  -10.6991   -0.0429 C   0  0  0  0  0  0  0  0  0  0  0  0
    0.6300   -9.8031   -0.6370 O   0  0  0  0  0  0  0  0  0  0  0  0
   -1.2685  -10.9011   -0.8504 O   0  0  0  0  0  0  0  0  0  0  0  0
    1.2096  -13.9972    4.0253 O   0  0  0  0  0  0  0  0  0  0  0  0
  1  2  1  0
  2  3  2  3
  3  4  1  0
  4  5  1  1
  1  6  2  3
  6  7  1  0
  7  8  1  0
  5  9  1  0
  9 10  1  0
  4 12  1  0
 11 12  1  0
  8 13  2  0
  8 14  1  0
 14 15  1  0
 12 16  1  6
 16 17  2  0
 16 18  1  0
  9 19  2  0
 10 11  1  0
M  END

$$$$
No_2836-/export/home/yangzhenyu/potential_scad_32_flow//YTHDC2/2024-12-06-03-22-00/
     RDKit          3D

 18 18  0  0  0  0  0  0  0  0999 V2000
    1.1787   -8.0297    3.5154 O   0  0  0  0  0  0  0  0  0  0  0  0
    0.9969   -8.9689    3.0048 C   0  0  0  0  0  0  0  0  0  0  0  0
    1.3055  -10.1056    3.6616 C   0  0  0  0  0  0  0  0  0  0  0  0
    1.5709  -11.1115    3.2016 C   0  0  0  0  0  0  0  0  0  0  0  0
    1.6332  -11.2629    1.7349 C   0  0  0  0  0  0  0  0  0  0  0  0
    1.4616  -10.1742    0.9691 C   0  0  0  0  0  0  0  0  0  0  0  0
    1.1252   -9.0006    1.6051 C   0  0  0  0  0  0  0  0  0  0  0  0
    0.8275   -7.7749    1.0285 C   0  0  0  0  0  0  0  0  0  0  0  0
    1.3414   -6.7053    1.3717 O   0  0  0  0  0  0  0  0  0  0  0  0
    0.3292   -7.8411   -0.2608 O   0  0  0  0  0  0  0  0  0  0  0  0
    1.8833  -12.4227    3.8176 C   0  0  0  0  0  0  0  0  0  0  0  0
    1.1192  -13.6265    3.4362 C   0  0  0  0  0  0  0  0  0  0  0  0
    1.6585  -14.7950    3.1639 O   0  0  0  0  0  0  0  0  0  0  0  0
   -0.1297  -13.5497    3.1127 O   0  0  0  0  0  0  0  0  0  0  0  0
    0.8705  -15.9058    2.7747 C   0  0  0  0  0  0  0  0  0  0  0  0
    0.7656  -16.2918    1.5347 C   0  0  0  0  0  0  0  0  0  0  0  0
    0.7755  -17.4221    1.1470 C   0  0  0  0  0  0  0  0  0  0  0  0
    0.4550  -18.4992    2.1460 C   0  0  0  0  0  0  0  0  0  0  0  0
  1  2  1  0
  7  8  1  0
  8  9  1  0
  8 10  2  0
  4 11  1  0
 11 12  1  0
 12 13  1  0
 12 14  2  0
 13 15  1  0
 15 16  1  0
 16 17  2  3
 17 18  1  0
  2  3  2  0
  3  4  1  0
  4  5  2  0
  5  6  1  0
  6  7  2  0
  2  7  1  0
M  END

$$$$
No_2837-/export/home/yangzhenyu/potential_scad_32_flow//YTHDC2/2024-12-06-03-22-00/
     RDKit          3D

 18 19  0  0  1  0  0  0  0  0999 V2000
    1.1787   -8.0297    3.5154 C   0  0  0  0  0  0  0  0  0  0  0  0
    1.1048   -9.2215    3.2892 C   0  0  0  0  0  0  0  0  0  0  0  0
    1.3627  -10.1721    4.3044 C   0  0  0  0  0  0  0  0  0  0  0  0
    2.3720  -10.8948    4.2468 C   0  0  0  0  0  0  0  0  0  0  0  0
    0.8234   -7.0464    2.5717 C   0  0  0  0  0  0  0  0  0  0  0  0
    0.4328   -7.4736    1.3042 C   0  0  0  0  0  0  0  0  0  0  0  0
    0.3532   -8.7488    0.9919 C   0  0  0  0  0  0  0  0  0  0  0  0
    0.7039   -9.7094    1.9672 C   0  0  0  0  0  0  0  0  0  0  0  0
    0.4096  -10.9489    1.8134 C   0  0  2  0  0  0  0  0  0  0  0  0
    1.3059  -11.8168    1.2107 C   0  0  0  0  0  0  0  0  0  0  0  0
    1.2520  -13.1668    0.9464 C   0  0  0  0  0  0  0  0  0  0  0  0
    0.0748  -13.7473    1.1336 C   0  0  0  0  0  0  0  0  0  0  0  0
   -0.9504  -13.0497    1.8342 C   0  0  0  0  0  0  0  0  0  0  0  0
   -0.8149  -11.7266    1.9882 C   0  0  0  0  0  0  0  0  0  0  0  0
   -1.8260  -10.9696    2.5218 O   0  0  0  0  0  0  0  0  0  0  0  0
    0.9927   -5.5822    2.7883 C   0  0  0  0  0  0  0  0  0  0  0  0
    3.3353  -10.7678    4.6121 N   0  0  0  0  0  0  0  0  0  0  0  0
    3.5765   -9.9283    5.1192 H   0  0  0  0  0  0  0  0  0  0  0  0
  2  3  1  0
  3  4  1  0
  9  8  1  6
  9 10  1  0
 11 12  1  0
  9 14  1  0
 13 14  1  0
 14 15  2  0
  5 16  1  0
  4 17  2  0
 10 11  1  0
 12 13  1  0
  1  2  2  0
  2  8  1  0
  7  8  2  0
  6  7  1  0
  5  6  2  0
  1  5  1  0
 17 18  1  0
M  END

$$$$
No_2838-/export/home/yangzhenyu/potential_scad_32_flow//YTHDC2/2024-12-06-03-22-00/
     RDKit          3D

 18 19  0  0  0  0  0  0  0  0999 V2000
    1.1787   -8.0297    3.5154 C   0  0  0  0  0  0  0  0  0  0  0  0
    1.1048   -9.2215    3.2892 C   0  0  0  0  0  0  0  0  0  0  0  0
    1.2339   -9.7611    2.0189 C   0  0  0  0  0  0  0  0  0  0  0  0
    1.3583   -9.0036    0.9764 C   0  0  0  0  0  0  0  0  0  0  0  0
    1.5996   -7.6362    1.1311 C   0  0  0  0  0  0  0  0  0  0  0  0
    1.4830   -7.0928    2.3626 C   0  0  0  0  0  0  0  0  0  0  0  0
    1.1008  -11.2372    1.8542 C   0  0  0  0  0  0  0  0  0  0  0  0
    0.4812  -11.6084    0.6459 C   0  0  0  0  0  0  0  0  0  0  0  0
   -0.6166  -12.2864    0.7859 C   0  0  0  0  0  0  0  0  0  0  0  0
   -0.7300  -13.0625    1.9848 C   0  0  0  0  0  0  0  0  0  0  0  0
    0.1540  -12.9133    3.0511 C   0  0  0  0  0  0  0  0  0  0  0  0
    1.1516  -11.9685    2.9361 C   0  0  0  0  0  0  0  0  0  0  0  0
    1.5663   -5.6461    2.6613 Cl  0  0  0  0  0  0  0  0  0  0  0  0
    2.0815  -11.7417    3.9304 C   0  0  0  0  0  0  0  0  0  0  0  0
   -1.5640  -14.2834    2.0644 C   0  0  0  0  0  0  0  0  0  0  0  0
   -1.2297  -15.5414    2.0642 C   0  0  0  0  0  0  0  0  0  0  0  0
   -0.0332  -15.9480    1.7177 C   0  0  0  0  0  0  0  0  0  0  0  0
    0.3723  -15.9407    0.5468 C   0  0  0  0  0  0  0  0  0  0  0  0
  3  7  1  0
  6 13  1  0
 12 14  1  0
 10 15  1  0
 15 16  1  0
 16 17  1  0
 17 18  1  0
  1  2  2  0
  2  3  1  0
  3  4  2  0
  4  5  1  0
  5  6  2  0
  1  6  1  0
  7  8  2  0
  8  9  1  0
  9 10  2  0
 10 11  1  0
 11 12  2  0
  7 12  1  0
M  END

$$$$
No_2839-/export/home/yangzhenyu/potential_scad_32_flow//YTHDC2/2024-12-06-03-22-00/
     RDKit          3D

 18 19  0  0  0  0  0  0  0  0999 V2000
    1.1787   -8.0297    3.5154 C   0  0  0  0  0  0  0  0  0  0  0  0
    1.0491   -6.8434    2.9820 C   0  0  0  0  0  0  0  0  0  0  0  0
    0.0950   -8.8404    3.2292 C   0  0  0  0  0  0  0  0  0  0  0  0
   -0.9173   -8.4596    2.5152 C   0  0  0  0  0  0  0  0  0  0  0  0
   -1.0331   -7.2162    2.0653 C   0  0  0  0  0  0  0  0  0  0  0  0
   -0.0105   -6.3168    2.3081 C   0  0  0  0  0  0  0  0  0  0  0  0
    0.1150   -4.9910    1.8495 C   0  0  0  0  0  0  0  0  0  0  0  0
   -0.5774   -4.1593    2.0596 N   0  0  0  0  0  0  0  0  0  0  0  0
    0.1680  -10.2877    3.7012 C   0  0  0  0  0  0  0  0  0  0  0  0
   -1.0762  -10.9526    3.8329 C   0  0  0  0  0  0  0  0  0  0  0  0
    1.4067  -10.9465    4.0445 C   0  0  0  0  0  0  0  0  0  0  0  0
    1.4813  -12.2966    4.1298 N   0  0  0  0  0  0  0  0  0  0  0  0
   -0.8992  -12.3939    3.9605 C   0  0  0  0  0  0  0  0  0  0  0  0
    0.4039  -12.9724    4.0509 C   0  0  0  0  0  0  0  0  0  0  0  0
   -0.3543   -2.9116    2.5544 C   0  0  0  0  0  0  0  0  0  0  0  0
   -0.0161   -2.0218    1.8742 C   0  0  0  0  0  0  0  0  0  0  0  0
    0.9462   -2.0720    1.1804 C   0  0  0  0  0  0  0  0  0  0  0  0
    1.2443   -3.4978    0.5929 C   0  0  0  0  0  0  0  0  0  0  0  0
  6  7  1  0
  7  8  1  0
  3  9  1  0
  8 15  1  0
 15 16  1  0
 16 17  2  3
 17 18  1  0
  9 10  2  0
 10 13  1  0
 13 14  2  0
 12 14  1  0
 11 12  2  0
  9 11  1  0
  1  2  2  0
  2  6  1  0
  5  6  2  0
  4  5  1  0
  3  4  2  0
  1  3  1  0
M  END

$$$$
No_2840-/export/home/yangzhenyu/potential_scad_32_flow//YTHDC2/2024-12-06-03-22-00/
     RDKit          3D

 18 18  0  0  0  0  0  0  0  0999 V2000
    1.1787   -8.0297    3.5154 C   0  0  0  0  0  0  0  0  0  0  0  0
    1.1048   -9.2215    3.2892 C   0  0  0  0  0  0  0  0  0  0  0  0
    1.2339   -9.7611    2.0189 C   0  0  0  0  0  0  0  0  0  0  0  0
    1.3583   -9.0036    0.9764 C   0  0  0  0  0  0  0  0  0  0  0  0
    1.5996   -7.6362    1.1311 C   0  0  0  0  0  0  0  0  0  0  0  0
    1.4830   -7.0928    2.3626 C   0  0  0  0  0  0  0  0  0  0  0  0
    1.1171  -11.3311    1.8661 C   0  0  0  0  0  0  0  0  0  0  0  0
    0.5022  -11.6388    0.6531 O   0  0  0  0  0  0  0  0  0  0  0  0
    1.7772  -12.0491    2.6098 N   0  0  0  0  0  0  0  0  0  0  0  0
    1.3383  -13.3981    2.7459 C   0  0  0  0  0  0  0  0  0  0  0  0
    2.0402  -14.5075    2.2436 C   0  0  0  0  0  0  0  0  0  0  0  0
    1.5649   -5.6668    2.6631 C   0  0  0  0  0  0  0  0  0  0  0  0
    1.7742  -15.7811    2.5604 O   0  0  0  0  0  0  0  0  0  0  0  0
    0.6821  -15.8824    3.2580 C   0  0  0  0  0  0  0  0  0  0  0  0
    0.7385   -4.8320    2.6277 O   0  0  0  0  0  0  0  0  0  0  0  0
   -0.3761   -5.0307    1.9969 C   0  0  0  0  0  0  0  0  0  0  0  0
   -1.5198   -5.3131    2.8354 C   0  0  0  0  0  0  0  0  0  0  0  0
   -2.3881   -4.3763    3.1688 O   0  0  0  0  0  0  0  0  0  0  0  0
  3  7  1  0
  7  8  2  0
  7  9  1  0
  9 10  1  0
 10 11  1  0
  6 12  1  0
 11 13  1  0
 13 14  1  0
 12 15  1  0
 15 16  1  0
 16 17  1  0
 17 18  1  0
  1  2  2  0
  2  3  1  0
  3  4  2  0
  4  5  1  0
  5  6  2  0
  1  6  1  0
M  END

$$$$
No_2841-/export/home/yangzhenyu/potential_scad_32_flow//YTHDC2/2024-12-06-03-22-00/
     RDKit          3D

 18 19  0  0  1  0  0  0  0  0999 V2000
    1.1787   -8.0297    3.5154 C   0  0  0  0  0  0  0  0  0  0  0  0
    1.0491   -6.8434    2.9820 C   0  0  0  0  0  0  0  0  0  0  0  0
    0.9905   -9.0774    2.6527 C   0  0  0  0  0  0  0  0  0  0  0  0
    1.1655  -10.4663    3.1286 C   0  0  0  0  0  0  0  0  0  0  0  0
    1.2197  -11.4898    2.5831 C   0  0  0  0  0  0  0  0  0  0  0  0
    1.0589  -11.4458    1.1293 C   0  0  0  0  0  0  0  0  0  0  0  0
    1.0997  -12.7066    0.4829 C   0  0  0  0  0  0  0  0  0  0  0  0
    0.8152   -6.2863    1.8486 C   0  0  0  0  0  0  0  0  0  0  0  0
    0.6771   -7.4048    0.8873 C   0  0  0  0  0  0  0  0  0  0  0  0
    0.7459   -8.7561    1.2584 C   0  0  0  0  0  0  0  0  0  0  0  0
    1.4962  -12.7177    3.1487 C   0  0  0  0  0  0  0  0  0  0  0  0
    1.2291  -13.9337    2.5606 C   0  0  2  0  0  0  0  0  0  0  0  0
    1.4567  -15.2153    3.3292 O   0  0  0  0  0  0  0  0  0  0  0  0
    1.3334  -13.9810    1.2086 C   0  0  0  0  0  0  0  0  0  0  0  0
    0.7937   -5.0555    1.3122 O   0  0  0  0  0  0  0  0  0  0  0  0
    1.0822  -16.3969    2.8829 C   0  0  0  0  0  0  0  0  0  0  0  0
    1.3772   -4.0317    2.0278 C   0  0  0  0  0  0  0  0  0  0  0  0
   -0.2049  -16.7112    3.0443 C   0  0  0  0  0  0  0  0  0  0  0  0
  3  4  1  0
  4  5  2  3
  5  6  1  0
  6  7  1  0
  5 11  1  0
 11 12  1  0
 12 13  1  1
  7 14  1  0
 12 14  1  0
  8 15  1  0
 13 16  1  0
 15 17  1  0
 16 18  1  0
  1  2  2  0
  2  8  1  0
  8  9  2  0
  9 10  1  0
  3 10  2  0
  1  3  1  0
M  END

$$$$
No_2842-/export/home/yangzhenyu/potential_scad_32_flow//YTHDC2/2024-12-06-03-22-00/
     RDKit          3D

 18 19  0  0  0  0  0  0  0  0999 V2000
    1.1787   -8.0297    3.5154 C   0  0  0  0  0  0  0  0  0  0  0  0
    1.0491   -6.8434    2.9820 C   0  0  0  0  0  0  0  0  0  0  0  0
    0.0950   -8.8404    3.2292 C   0  0  0  0  0  0  0  0  0  0  0  0
   -0.9173   -8.4596    2.5152 C   0  0  0  0  0  0  0  0  0  0  0  0
   -1.0331   -7.2162    2.0653 C   0  0  0  0  0  0  0  0  0  0  0  0
   -0.0105   -6.3168    2.3081 C   0  0  0  0  0  0  0  0  0  0  0  0
    0.0485   -4.9783    1.8782 C   0  0  0  0  0  0  0  0  0  0  0  0
    0.9625   -4.1072    2.3252 C   0  0  0  0  0  0  0  0  0  0  0  0
    0.1722  -10.4518    3.7515 Cl  0  0  0  0  0  0  0  0  0  0  0  0
    1.2301   -2.7784    1.8622 C   0  0  0  0  0  0  0  0  0  0  0  0
    0.3919   -2.4449    0.8080 C   0  0  0  0  0  0  0  0  0  0  0  0
   -0.5311   -3.2066    0.2334 C   0  0  0  0  0  0  0  0  0  0  0  0
   -0.7370   -4.5089    0.7393 C   0  0  0  0  0  0  0  0  0  0  0  0
   -1.3527   -2.7950   -0.8463 Cl  0  0  0  0  0  0  0  0  0  0  0  0
    0.6318   -1.1112    0.1983 Cl  0  0  0  0  0  0  0  0  0  0  0  0
   -2.0653   -9.2899    2.3814 O   0  0  0  0  0  0  0  0  0  0  0  0
   -3.1247   -9.1584    3.1849 C   0  0  0  0  0  0  0  0  0  0  0  0
   -3.2917  -10.1091    4.0608 C   0  0  0  0  0  0  0  0  0  0  0  0
  6  7  1  0
  3  9  1  0
 12 14  1  0
 11 15  1  0
  4 16  1  0
 16 17  1  0
 17 18  1  0
  1  2  2  0
  2  6  1  0
  5  6  2  0
  4  5  1  0
  3  4  2  0
  1  3  1  0
  7  8  2  0
  8 10  1  0
 10 11  2  0
 11 12  1  0
 12 13  2  0
  7 13  1  0
M  END

$$$$
No_2843-/export/home/yangzhenyu/potential_scad_32_flow//YTHDC2/2024-12-06-03-22-00/
     RDKit          3D

 20 22  0  0  0  0  0  0  0  0999 V2000
    1.1787   -8.0297    3.5154 C   0  0  0  0  0  0  0  0  0  0  0  0
    1.0491   -6.8434    2.9820 C   0  0  0  0  0  0  0  0  0  0  0  0
    0.9905   -9.0774    2.6527 C   0  0  0  0  0  0  0  0  0  0  0  0
    1.1655  -10.4663    3.1286 C   0  0  0  0  0  0  0  0  0  0  0  0
    1.2197  -11.4898    2.5831 C   0  0  0  0  0  0  0  0  0  0  0  0
    1.0589  -11.4458    1.1293 C   0  0  0  0  0  0  0  0  0  0  0  0
    0.9638  -10.3069    0.4651 C   0  0  0  0  0  0  0  0  0  0  0  0
    0.9191   -9.0789    1.1942 C   0  0  0  0  0  0  0  0  0  0  0  0
    0.9198   -7.8339    0.6158 C   0  0  0  0  0  0  0  0  0  0  0  0
    1.0184   -6.6904    1.4953 C   0  0  0  0  0  0  0  0  0  0  0  0
    1.3445  -12.8198    3.0746 C   0  0  0  0  0  0  0  0  0  0  0  0
    1.4199  -13.9116    2.1454 N   0  0  0  0  0  0  0  0  0  0  0  0
    1.7953  -15.1425    2.6943 C   0  0  0  0  0  0  0  0  0  0  0  0
    0.8543  -15.7599    3.4833 C   0  0  0  0  0  0  0  0  0  0  0  0
    1.1674  -17.0693    3.8911 C   0  0  0  0  0  0  0  0  0  0  0  0
    2.3853  -17.7065    3.4833 C   0  0  0  0  0  0  0  0  0  0  0  0
    3.2185  -17.0488    2.5249 C   0  0  0  0  0  0  0  0  0  0  0  0
    2.9173  -15.7542    2.0711 C   0  0  0  0  0  0  0  0  0  0  0  0
    1.3421   -5.5934    3.6539 C   0  0  0  0  0  0  0  0  0  0  0  0
    1.5809   -4.6068    3.4681 O   0  0  0  0  0  0  0  0  0  0  0  0
  5 11  1  0
 11 12  1  0
 12 13  1  0
  2 19  1  0
 19 20  2  0
 13 14  2  0
 14 15  1  0
 15 16  2  0
 16 17  1  0
 17 18  2  0
 13 18  1  0
  1  2  2  0
  2 10  1  0
  9 10  2  0
  8  9  1  0
  1  3  1  0
  3  4  2  0
  4  5  1  0
  5  6  2  0
  6  7  1  0
  7  8  2  0
  3  8  1  0
M  END

$$$$
No_2844-/export/home/yangzhenyu/potential_scad_32_flow//YTHDC2/2024-12-06-03-22-00/
     RDKit          3D

 19 19  0  0  1  0  0  0  0  0999 V2000
    1.1787   -8.0297    3.5154 O   0  0  0  0  0  0  0  0  0  0  0  0
    0.9969   -8.9689    3.0048 C   0  0  1  0  0  0  0  0  0  0  0  0
    1.3055  -10.1056    3.6616 C   0  0  0  0  0  0  0  0  0  0  0  0
    2.1315  -10.4529    4.2438 C   0  0  0  0  0  0  0  0  0  0  0  0
   -0.0205   -8.7946    1.9507 C   0  0  1  0  0  0  0  0  0  0  0  0
   -0.5225   -7.8529    1.9614 C   0  0  0  0  0  0  0  0  0  0  0  0
   -0.9544   -7.1495    1.3827 C   0  0  0  0  0  0  0  0  0  0  0  0
   -0.7151   -6.6647    0.5036 C   0  0  0  0  0  0  0  0  0  0  0  0
    0.2413   -9.5954    0.8828 C   0  0  0  0  0  0  0  0  0  0  0  0
    0.7630   -9.3867   -0.0777 C   0  0  0  0  0  0  0  0  0  0  0  0
    1.0844   -8.3363   -0.5588 C   0  0  0  0  0  0  0  0  0  0  0  0
    0.5352   -7.0206   -0.2812 C   0  0  0  0  0  0  0  0  0  0  0  0
    0.5997  -11.4557    2.9726 C   0  0  0  0  0  0  0  0  0  0  0  0
    1.2645  -12.6834    3.2795 C   0  0  0  0  0  0  0  0  0  0  0  0
    0.5405  -13.9040    2.8007 C   0  0  0  0  0  0  0  0  0  0  0  0
    1.1141  -15.1335    3.2042 C   0  0  0  0  0  0  0  0  0  0  0  0
    0.4883  -16.2744    3.1465 C   0  0  0  0  0  0  0  0  0  0  0  0
   -0.7326  -16.2776    2.7704 C   0  0  0  0  0  0  0  0  0  0  0  0
   -1.4069  -15.1163    2.5418 C   0  0  0  0  0  0  0  0  0  0  0  0
  2  1  1  1
  2  3  1  0
  3  4  2  0
  2  5  1  0
  5  6  1  0
  6  7  2  3
  7  8  1  0
  5  9  1  6
  9 10  1  0
 10 11  2  3
  8 12  2  3
 11 12  1  0
  3 13  1  0
 13 14  2  3
 14 15  1  0
 15 16  1  0
 16 17  2  3
 17 18  1  0
 18 19  2  0
M  END

$$$$
No_2845-/export/home/yangzhenyu/potential_scad_32_flow//YTHDC2/2024-12-06-03-22-00/
     RDKit          3D

 18 18  0  0  1  0  0  0  0  0999 V2000
    1.1787   -8.0297    3.5154 C   0  0  0  0  0  0  0  0  0  0  0  0
    1.1048   -9.2215    3.2892 C   0  0  0  0  0  0  0  0  0  0  0  0
    1.2339   -9.7611    2.0189 C   0  0  0  0  0  0  0  0  0  0  0  0
    1.3583   -9.0036    0.9764 C   0  0  0  0  0  0  0  0  0  0  0  0
    1.5996   -7.6362    1.1311 C   0  0  0  0  0  0  0  0  0  0  0  0
    1.4830   -7.0928    2.3626 C   0  0  0  0  0  0  0  0  0  0  0  0
    1.1008  -11.2372    1.8542 C   0  0  0  0  0  0  0  0  0  0  0  0
    0.5178  -11.9759    2.3445 C   0  0  0  0  0  0  0  0  0  0  0  0
    0.4575  -13.3705    2.1281 C   0  0  0  0  0  0  0  0  0  0  0  0
    1.1632  -14.1013    2.0451 C   0  0  0  0  0  0  0  0  0  0  0  0
    2.4646  -13.5566    1.4445 C   0  0  0  0  0  0  0  0  0  0  0  0
    1.2467  -15.5603    2.2927 C   0  0  1  0  0  0  0  0  0  0  0  0
    2.3867  -16.3046    2.2488 N   0  0  0  0  0  0  0  0  0  0  0  0
    0.2473  -16.1056    2.9031 C   0  0  0  0  0  0  0  0  0  0  0  0
    0.0497  -17.4419    2.8451 O   0  0  0  0  0  0  0  0  0  0  0  0
   -0.5916  -15.4945    3.7692 O   0  0  0  0  0  0  0  0  0  0  0  0
    1.5542   -5.6569    2.6302 Cl  0  0  0  0  0  0  0  0  0  0  0  0
    1.5422   -9.5144   -0.5317 S   0  0  0  0  0  0  0  0  0  0  0  0
  3  7  1  0
  7  8  2  3
  8  9  1  0
  9 10  2  3
 10 11  1  0
 10 12  1  0
 12 13  1  1
 12 14  1  0
 14 15  2  0
 14 16  1  0
  6 17  1  0
  4 18  1  0
  1  2  2  0
  2  3  1  0
  3  4  2  0
  4  5  1  0
  5  6  2  0
  1  6  1  0
M  END

$$$$
No_2846-/export/home/yangzhenyu/potential_scad_32_flow//YTHDC2/2024-12-06-03-22-00/
     RDKit          3D

 18 18  0  0  1  0  0  0  0  0999 V2000
    1.1787   -8.0297    3.5154 C   0  0  0  0  0  0  0  0  0  0  0  0
    1.0491   -6.8434    2.9820 C   0  0  0  0  0  0  0  0  0  0  0  0
    0.9905   -9.0774    2.6527 C   0  0  0  0  0  0  0  0  0  0  0  0
    0.7897   -8.9519    1.3691 C   0  0  0  0  0  0  0  0  0  0  0  0
    0.7018   -7.7198    0.7892 C   0  0  0  0  0  0  0  0  0  0  0  0
    0.8918   -6.5957    1.6117 C   0  0  0  0  0  0  0  0  0  0  0  0
    1.0998  -10.4710    3.2437 C   0  0  2  0  0  0  0  0  0  0  0  0
    2.1917  -10.8879    3.7399 C   0  0  0  0  0  0  0  0  0  0  0  0
    0.8624   -5.2493    1.2482 C   0  0  0  0  0  0  0  0  0  0  0  0
    0.4931  -11.5180    2.4119 C   0  0  0  0  0  0  0  0  0  0  0  0
    1.1937  -12.4551    1.9649 C   0  0  1  0  0  0  0  0  0  0  0  0
    1.8563  -12.3023    0.8582 C   0  0  0  0  0  0  0  0  0  0  0  0
    1.5149  -13.6939    2.7187 C   0  0  0  0  0  0  0  0  0  0  0  0
    0.6825  -14.2086    3.5511 C   0  0  0  0  0  0  0  0  0  0  0  0
    0.8853  -15.7500    3.4587 O   0  0  0  0  0  0  0  0  0  0  0  0
   -0.2208   -4.7644    0.7372 C   0  0  0  0  0  0  0  0  0  0  0  0
   -0.3380   -3.4047    0.3893 C   0  0  0  0  0  0  0  0  0  0  0  0
   -0.8897   -2.9687   -0.6951 C   0  0  0  0  0  0  0  0  0  0  0  0
  3  7  1  0
  7  8  1  6
  6  9  1  0
  7 10  1  0
 10 11  1  0
 11 12  1  1
 11 13  1  0
 13 14  1  0
 14 15  1  0
  9 16  2  3
 16 17  1  0
 17 18  2  0
  1  2  2  0
  2  6  1  0
  5  6  2  0
  4  5  1  0
  3  4  2  0
  1  3  1  0
M  END

$$$$
No_2847-/export/home/yangzhenyu/potential_scad_32_flow//YTHDC2/2024-12-06-03-22-00/
     RDKit          3D

 18 18  0  0  0  0  0  0  0  0999 V2000
    1.1787   -8.0297    3.5154 N   0  0  0  0  0  0  0  0  0  0  0  0
    0.8669   -7.0905    2.8589 C   0  0  0  0  0  0  0  0  0  0  0  0
    1.0447   -7.3244    1.4123 C   0  0  0  0  0  0  0  0  0  0  0  0
    1.3746   -8.4389    1.0864 C   0  0  0  0  0  0  0  0  0  0  0  0
    1.6686   -9.1952    2.5608 C   0  0  0  0  0  0  0  0  0  0  0  0
    2.0183  -10.4317    2.7666 C   0  0  0  0  0  0  0  0  0  0  0  0
    2.0725  -10.9647    3.9731 C   0  0  0  0  0  0  0  0  0  0  0  0
    1.6740   -9.0790   -0.0402 C   0  0  0  0  0  0  0  0  0  0  0  0
    1.9277   -8.5417   -1.0753 O   0  0  0  0  0  0  0  0  0  0  0  0
    1.6054  -10.4305   -0.1509 O   0  0  0  0  0  0  0  0  0  0  0  0
    2.3649  -12.3112    4.1098 C   0  0  0  0  0  0  0  0  0  0  0  0
    1.1594  -13.2329    3.8355 N   0  0  0  0  0  0  0  0  0  0  0  0
    1.4136  -14.4583    3.3602 C   0  0  0  0  0  0  0  0  0  0  0  0
    0.1946  -15.2382    3.1355 N   0  0  0  0  0  0  0  0  0  0  0  0
    2.4632  -14.8068    2.7883 O   0  0  0  0  0  0  0  0  0  0  0  0
    0.4157  -16.5127    2.5204 C   0  0  0  0  0  0  0  0  0  0  0  0
    0.2692  -16.5932    1.2936 C   0  0  0  0  0  0  0  0  0  0  0  0
   -0.2015  -15.6300    0.5946 C   0  0  0  0  0  0  0  0  0  0  0  0
  1  2  1  0
  2  3  2  0
  3  4  1  0
  1  5  1  0
  4  5  2  0
  5  6  1  0
  6  7  2  3
  4  8  1  0
  8  9  2  0
  8 10  1  0
  7 11  1  0
 11 12  1  0
 12 13  1  0
 13 14  1  0
 13 15  2  0
 14 16  1  0
 16 17  1  0
 17 18  1  0
M  END

$$$$
No_2848-/export/home/yangzhenyu/potential_scad_32_flow//YTHDC2/2024-12-06-03-22-00/
     RDKit          3D

 19 19  0  0  0  0  0  0  0  0999 V2000
    1.1787   -8.0297    3.5154 C   0  0  0  0  0  0  0  0  0  0  0  0
    1.1048   -9.2215    3.2892 C   0  0  0  0  0  0  0  0  0  0  0  0
    1.2339   -9.7611    2.0189 C   0  0  0  0  0  0  0  0  0  0  0  0
    1.3583   -9.0036    0.9764 C   0  0  0  0  0  0  0  0  0  0  0  0
    1.5996   -7.6362    1.1311 C   0  0  0  0  0  0  0  0  0  0  0  0
    1.4830   -7.0928    2.3626 C   0  0  0  0  0  0  0  0  0  0  0  0
    1.5395   -5.7300    2.6182 C   0  0  0  0  0  0  0  0  0  0  0  0
    1.1775  -11.2233    1.8407 C   0  0  0  0  0  0  0  0  0  0  0  0
    0.7252  -11.5870    0.5412 O   0  0  0  0  0  0  0  0  0  0  0  0
    1.6093  -12.0515    2.6159 O   0  0  0  0  0  0  0  0  0  0  0  0
    1.6600   -5.1735    3.8823 O   0  0  0  0  0  0  0  0  0  0  0  0
    1.6987   -4.8452    1.6142 O   0  0  0  0  0  0  0  0  0  0  0  0
    1.5525   -9.4060   -0.3554 C   0  0  0  0  0  0  0  0  0  0  0  0
    1.6156   -8.6345   -1.3272 O   0  0  0  0  0  0  0  0  0  0  0  0
    2.0676  -10.3837   -0.6904 O   0  0  0  0  0  0  0  0  0  0  0  0
    0.7892  -10.1997    4.5633 O   0  0  0  0  0  0  0  0  0  0  0  0
    0.6207  -13.0344    0.5651 C   0  0  0  0  0  0  0  0  0  0  0  0
   -0.6176  -13.5373    0.2196 C   0  0  0  0  0  0  0  0  0  0  0  0
   -1.4336  -12.6727   -0.3414 C   0  0  0  0  0  0  0  0  0  0  0  0
  6  7  1  0
  3  8  1  0
  8  9  1  0
  8 10  2  0
  7 11  1  0
  7 12  2  0
  4 13  1  0
 13 14  2  0
 13 15  1  0
  2 16  1  0
  9 17  1  0
 17 18  1  0
 18 19  1  0
  1  2  2  0
  2  3  1  0
  3  4  2  0
  4  5  1  0
  5  6  2  0
  1  6  1  0
M  END

$$$$
No_2849-/export/home/yangzhenyu/potential_scad_32_flow//YTHDC2/2024-12-06-03-22-00/
     RDKit          3D

 17 18  0  0  1  0  0  0  0  0999 V2000
    1.1787   -8.0297    3.5154 C   0  0  0  0  0  0  0  0  0  0  0  0
    1.0491   -6.8434    2.9820 C   0  0  1  0  0  0  0  0  0  0  0  0
    1.9985   -8.9840    2.8958 C   0  0  0  0  0  0  0  0  0  0  0  0
    1.1815  -10.1889    2.5497 C   0  0  0  0  0  0  0  0  0  0  0  0
    0.9817  -11.1388    2.8134 C   0  0  0  0  0  0  0  0  0  0  0  0
    0.1125  -12.0891    2.4837 C   0  0  0  0  0  0  0  0  0  0  0  0
   -0.6446  -11.8250    1.4596 C   0  0  0  0  0  0  0  0  0  0  0  0
   -0.2941  -10.7598    0.6431 C   0  0  0  0  0  0  0  0  0  0  0  0
    0.5711   -9.8346    1.1239 C   0  0  0  0  0  0  0  0  0  0  0  0
    1.7128   -5.7488    3.1464 O   0  0  0  0  0  0  0  0  0  0  0  0
    0.7146   -8.5746    0.5887 C   0  0  0  0  0  0  0  0  0  0  0  0
    0.3631   -7.2268    1.3175 C   0  0  0  0  0  0  0  0  0  0  0  0
   -0.1673   -6.2584    0.8750 O   0  0  0  0  0  0  0  0  0  0  0  0
   -0.0220  -13.4152    3.1071 C   0  0  0  0  0  0  0  0  0  0  0  0
    1.1558  -14.1874    3.4080 C   0  0  0  0  0  0  0  0  0  0  0  0
    1.4578  -15.3421    2.4936 C   0  0  0  0  0  0  0  0  0  0  0  0
    0.7815  -16.4794    2.6953 P   0  0  0  0  0  0  0  0  0  0  0  0
  1  2  1  0
  1  3  1  0
  3  4  1  0
  2 10  1  6
  9 11  1  0
  2 12  1  0
 11 12  1  0
 12 13  2  0
  6 14  1  0
 14 15  1  0
 15 16  1  0
 16 17  1  0
  4  5  2  0
  5  6  1  0
  6  7  2  0
  7  8  1  0
  8  9  2  0
  4  9  1  0
M  END

$$$$
No_2850-/export/home/yangzhenyu/potential_scad_32_flow//YTHDC2/2024-12-06-03-22-00/
     RDKit          3D

 18 19  0  0  0  0  0  0  0  0999 V2000
    1.1787   -8.0297    3.5154 C   0  0  0  0  0  0  0  0  0  0  0  0
    1.1048   -9.2215    3.2892 C   0  0  0  0  0  0  0  0  0  0  0  0
    1.3627  -10.1721    4.3044 C   0  0  0  0  0  0  0  0  0  0  0  0
    1.0682  -11.5187    4.0618 C   0  0  0  0  0  0  0  0  0  0  0  0
    0.6332  -11.9655    2.9682 C   0  0  0  0  0  0  0  0  0  0  0  0
    0.4776  -11.1308    1.9203 C   0  0  0  0  0  0  0  0  0  0  0  0
    0.7470   -9.8274    2.0368 C   0  0  0  0  0  0  0  0  0  0  0  0
    1.0387   -7.0301    2.5175 N   0  0  0  0  0  0  0  0  0  0  0  0
    1.3639   -7.4200    1.2802 C   0  0  0  0  0  0  0  0  0  0  0  0
    1.0214   -8.7094    0.9389 C   0  0  0  0  0  0  0  0  0  0  0  0
    0.8898   -9.1364   -0.2815 C   0  0  0  0  0  0  0  0  0  0  0  0
   -0.4940   -9.3658   -0.6716 O   0  0  0  0  0  0  0  0  0  0  0  0
    1.5147   -8.7282   -1.2660 O   0  0  0  0  0  0  0  0  0  0  0  0
    0.4834  -13.3692    2.6819 C   0  0  0  0  0  0  0  0  0  0  0  0
   -0.6955  -13.9210    2.3654 O   0  0  0  0  0  0  0  0  0  0  0  0
    1.5365  -14.2374    2.8760 O   0  0  0  0  0  0  0  0  0  0  0  0
    1.5387   -5.5491    2.6675 C   0  0  0  0  0  0  0  0  0  0  0  0
    1.1709   -4.6108    1.7426 O   0  0  0  0  0  0  0  0  0  0  0  0
  1  2  1  0
  1  8  1  0
  8  9  1  0
  7 10  1  0
  9 10  1  0
 10 11  1  0
 11 12  1  0
 11 13  2  0
  5 14  1  0
 14 15  2  0
 14 16  1  0
  8 17  1  0
 17 18  1  0
  2  3  2  0
  3  4  1  0
  4  5  2  0
  5  6  1  0
  6  7  2  0
  2  7  1  0
M  END

$$$$
No_2851-/export/home/yangzhenyu/potential_scad_32_flow//YTHDC2/2024-12-06-03-22-00/
     RDKit          3D

 17 17  0  0  0  0  0  0  0  0999 V2000
    1.1787   -8.0297    3.5154 C   0  0  0  0  0  0  0  0  0  0  0  0
    1.1048   -9.2215    3.2892 C   0  0  0  0  0  0  0  0  0  0  0  0
    1.2339   -9.7611    2.0189 C   0  0  0  0  0  0  0  0  0  0  0  0
    1.3583   -9.0036    0.9764 C   0  0  0  0  0  0  0  0  0  0  0  0
    1.5996   -7.6362    1.1311 C   0  0  0  0  0  0  0  0  0  0  0  0
    1.4830   -7.0928    2.3626 C   0  0  0  0  0  0  0  0  0  0  0  0
    1.4898   -5.7274    2.6199 C   0  0  0  0  0  0  0  0  0  0  0  0
    1.1681  -11.2222    1.8390 C   0  0  0  0  0  0  0  0  0  0  0  0
    0.5014  -11.9760    2.2068 C   0  0  0  0  0  0  0  0  0  0  0  0
    0.4167  -13.3685    2.0527 C   0  0  0  0  0  0  0  0  0  0  0  0
    1.5984  -14.1574    2.4634 C   0  0  0  0  0  0  0  0  0  0  0  0
    1.8090  -15.4261    2.0927 C   0  0  0  0  0  0  0  0  0  0  0  0
    0.9603  -16.3545    2.3375 C   0  0  0  0  0  0  0  0  0  0  0  0
    1.3058  -17.7974    2.1140 C   0  0  0  0  0  0  0  0  0  0  0  0
    1.2510   -4.8473    1.6240 N   0  0  0  0  0  0  0  0  0  0  0  0
    1.7435   -5.1510    3.7961 O   0  0  0  0  0  0  0  0  0  0  0  0
    1.2122  -18.5419    3.1887 C   0  0  0  0  0  0  0  0  0  0  0  0
  6  7  1  0
  3  8  1  0
  8  9  2  3
  9 10  1  0
 10 11  1  0
 11 12  1  0
 12 13  1  0
 13 14  1  0
  7 15  1  0
  7 16  2  0
 14 17  1  0
  1  2  2  0
  2  3  1  0
  3  4  2  0
  4  5  1  0
  5  6  2  0
  1  6  1  0
M  END

$$$$
No_2852-/export/home/yangzhenyu/potential_scad_32_flow//YTHDC2/2024-12-06-03-22-00/
     RDKit          3D

 20 21  0  0  1  0  0  0  0  0999 V2000
    1.1787   -8.0297    3.5154 O   0  0  0  0  0  0  0  0  0  0  0  0
    0.6747   -7.4019    2.7838 C   0  0  0  0  0  0  0  0  0  0  0  0
    0.5570   -6.0797    2.8560 C   0  0  0  0  0  0  0  0  0  0  0  0
   -0.2158   -5.3007    2.0284 C   0  0  0  0  0  0  0  0  0  0  0  0
   -0.8260   -5.9169    1.0290 C   0  0  0  0  0  0  0  0  0  0  0  0
   -0.6925   -7.2407    0.8216 C   0  0  0  0  0  0  0  0  0  0  0  0
    0.1645   -8.0156    1.6621 C   0  0  0  0  0  0  0  0  0  0  0  0
    0.4049   -9.3434    1.4877 C   0  0  0  0  0  0  0  0  0  0  0  0
    0.0670  -10.2565    2.0992 C   0  0  2  0  0  0  0  0  0  0  0  0
   -0.6567   -9.9622    3.3814 C   0  0  0  0  0  0  0  0  0  0  0  0
   -0.4230  -10.8812    4.4453 C   0  0  0  0  0  0  0  0  0  0  0  0
    0.6014  -11.9003    4.1029 C   0  0  0  0  0  0  0  0  0  0  0  0
    1.3046  -12.0880    3.0344 C   0  0  0  0  0  0  0  0  0  0  0  0
    1.0783  -11.1928    2.0051 C   0  0  1  0  0  0  0  0  0  0  0  0
    1.7105  -11.5519    0.8772 C   0  0  0  0  0  0  0  0  0  0  0  0
    2.0754  -13.0476    3.0619 O   0  0  0  0  0  0  0  0  0  0  0  0
   -0.4225   -3.9372    2.3121 Cl  0  0  0  0  0  0  0  0  0  0  0  0
    2.3318  -10.8098    0.2565 O   0  0  0  0  0  0  0  0  0  0  0  0
    2.0826  -12.9611    0.6969 O   0  0  0  0  0  0  0  0  0  0  0  0
   -1.6071   -5.2149    0.1410 O   0  0  0  0  0  0  0  0  0  0  0  0
  1  2  1  0
  7  8  1  0
  9 10  1  0
 10 11  1  0
 12 13  1  0
  9 14  1  0
 13 14  1  0
 14 15  1  6
 13 16  2  0
  4 17  1  0
 15 18  2  0
 15 19  1  0
  5 20  1  0
  9  8  1  1
 11 12  1  0
  2  3  2  0
  3  4  1  0
  4  5  2  0
  5  6  1  0
  6  7  2  0
  2  7  1  0
M  END

$$$$
No_2853-/export/home/yangzhenyu/potential_scad_32_flow//YTHDC2/2024-12-06-03-22-00/
     RDKit          3D

 19 19  0  0  1  0  0  0  0  0999 V2000
    1.1787   -8.0297    3.5154 C   0  0  0  0  0  0  0  0  0  0  0  0
    1.1048   -9.2215    3.2892 C   0  0  0  0  0  0  0  0  0  0  0  0
    1.2339   -9.7611    2.0189 C   0  0  0  0  0  0  0  0  0  0  0  0
    1.3583   -9.0036    0.9764 C   0  0  0  0  0  0  0  0  0  0  0  0
    1.5996   -7.6362    1.1311 C   0  0  0  0  0  0  0  0  0  0  0  0
    1.4830   -7.0928    2.3626 C   0  0  0  0  0  0  0  0  0  0  0  0
    1.2249  -11.3952    1.9460 C   0  0  0  0  0  0  0  0  0  0  0  0
    1.8037  -12.0490    2.8716 N   0  0  0  0  0  0  0  0  0  0  0  0
    1.2522  -13.2809    3.1517 C   0  0  0  0  0  0  0  0  0  0  0  0
    1.9701  -14.4682    2.5797 C   0  0  2  0  0  0  0  0  0  0  0  0
    1.5094   -5.6497    2.6083 Cl  0  0  0  0  0  0  0  0  0  0  0  0
    2.8929  -14.2860    1.7099 Br  0  0  0  0  0  0  0  0  0  0  0  0
    1.4915  -15.7432    2.9715 C   0  0  0  0  0  0  0  0  0  0  0  0
    0.8040  -11.7849    0.8183 O   0  0  0  0  0  0  0  0  0  0  0  0
    0.3528  -15.8672    3.8028 C   0  0  0  0  0  0  0  0  0  0  0  0
    2.0859  -16.8172    2.5501 C   0  0  0  0  0  0  0  0  0  0  0  0
    1.6763  -18.1650    2.9244 O   0  0  0  0  0  0  0  0  0  0  0  0
    1.6512   -9.5082   -0.3160 C   0  0  0  0  0  0  0  0  0  0  0  0
    2.6539   -9.8233   -0.7942 O   0  0  0  0  0  0  0  0  0  0  0  0
  3  7  1  0
  7  8  1  0
  8  9  1  0
  9 10  1  0
  6 11  1  0
 10 12  1  6
 10 13  1  0
  7 14  2  0
 13 15  1  0
 13 16  1  0
 16 17  2  0
  4 18  1  0
 18 19  2  0
  1  2  2  0
  2  3  1  0
  3  4  2  0
  4  5  1  0
  5  6  2  0
  1  6  1  0
M  END

$$$$
No_2854-/export/home/yangzhenyu/potential_scad_32_flow//YTHDC2/2024-12-06-03-22-00/
     RDKit          3D

 18 19  0  0  1  0  0  0  0  0999 V2000
    1.1787   -8.0297    3.5154 C   0  0  0  0  0  0  0  0  0  0  0  0
    1.0491   -6.8434    2.9820 C   0  0  0  0  0  0  0  0  0  0  0  0
    1.0690   -9.1150    2.7206 C   0  0  0  0  0  0  0  0  0  0  0  0
    0.9689   -6.6391    1.6260 C   0  0  0  0  0  0  0  0  0  0  0  0
    0.9670   -9.0334    1.3824 C   0  0  0  0  0  0  0  0  0  0  0  0
    0.8189   -7.7113    0.8022 C   0  0  0  0  0  0  0  0  0  0  0  0
    1.2122  -10.5176    3.2445 C   0  0  2  0  0  0  0  0  0  0  0  0
    2.2296  -10.8040    3.9249 C   0  0  0  0  0  0  0  0  0  0  0  0
    0.8694   -5.3473    1.0805 O   0  0  0  0  0  0  0  0  0  0  0  0
    0.4437  -11.4858    2.8171 C   0  0  0  0  0  0  0  0  0  0  0  0
    0.9101  -12.7528    2.5931 C   0  0  0  0  0  0  0  0  0  0  0  0
    0.0128  -13.8459    2.3700 C   0  0  0  0  0  0  0  0  0  0  0  0
    0.4115  -15.1244    2.9386 C   0  0  0  0  0  0  0  0  0  0  0  0
   -0.3563  -16.1516    2.7082 C   0  0  0  0  0  0  0  0  0  0  0  0
    0.0755  -17.4105    3.4338 C   0  0  0  0  0  0  0  0  0  0  0  0
    1.3673  -17.4305    4.0982 C   0  0  0  0  0  0  0  0  0  0  0  0
    2.2310  -16.3051    4.0270 C   0  0  0  0  0  0  0  0  0  0  0  0
    1.8413  -15.1678    3.3036 C   0  0  0  0  0  0  0  0  0  0  0  0
  1  3  1  0
  2  4  1  0
  4  6  1  0
  5  6  1  0
  3  7  1  0
  7  8  1  6
  4  9  2  0
  7 10  1  0
 10 11  2  3
 11 12  1  0
 12 13  1  0
  1  2  1  0
  3  5  1  0
 13 14  2  0
 14 15  1  0
 15 16  2  0
 16 17  1  0
 17 18  2  0
 13 18  1  0
M  END

$$$$
No_2855-/export/home/yangzhenyu/potential_scad_32_flow//YTHDC2/2024-12-06-03-22-00/
     RDKit          3D

 20 21  0  0  1  0  0  0  0  0999 V2000
    1.1787   -8.0297    3.5154 C   0  0  0  0  0  0  0  0  0  0  0  0
    1.0491   -6.8434    2.9820 C   0  0  0  0  0  0  0  0  0  0  0  0
    1.9985   -8.9840    2.8958 C   0  0  0  0  0  0  0  0  0  0  0  0
    1.9135  -10.3404    3.6266 C   0  0  0  0  0  0  0  0  0  0  0  0
    2.6443  -11.4423    3.1607 C   0  0  0  0  0  0  0  0  0  0  0  0
    1.6717   -5.7626    3.3950 C   0  0  0  0  0  0  0  0  0  0  0  0
    1.5940  -12.4008    2.6154 C   0  0  0  0  0  0  0  0  0  0  0  0
    1.8029  -13.7427    2.8898 C   0  0  0  0  0  0  0  0  0  0  0  0
    0.6745  -14.6023    2.5243 C   0  0  0  0  0  0  0  0  0  0  0  0
   -0.3661  -13.7398    1.9359 C   0  0  0  0  0  0  0  0  0  0  0  0
   -1.5124  -14.0856    1.5768 C   0  0  0  0  0  0  0  0  0  0  0  0
    0.4434  -12.1355    1.9217 C   0  0  0  0  0  0  0  0  0  0  0  0
   -2.4437  -13.1518    1.3835 O   0  0  0  0  0  0  0  0  0  0  0  0
   -1.6776  -15.3078    1.2416 O   0  0  0  0  0  0  0  0  0  0  0  0
    1.3469   -4.4866    2.7980 C   0  0  0  0  0  0  0  0  0  0  0  0
    0.4978   -4.3860    1.8102 C   0  0  2  0  0  0  0  0  0  0  0  0
   -0.0779   -5.5036    1.2826 C   0  0  0  0  0  0  0  0  0  0  0  0
    0.1543   -6.7681    1.8294 C   0  0  0  0  0  0  0  0  0  0  0  0
   -0.5233   -7.7691    1.4111 O   0  0  0  0  0  0  0  0  0  0  0  0
    0.2247   -2.9474    1.0355 O   0  0  0  0  0  0  0  0  0  0  0  0
  1  2  1  0
  1  3  1  0
  3  4  2  3
  4  5  1  0
  2  6  1  0
  5  7  1  0
  7  8  1  0
  8  9  2  0
  9 10  1  0
 10 11  1  0
  7 12  1  0
 10 12  1  0
 11 13  2  0
 11 14  1  0
 15 16  1  0
  2 18  1  0
 17 18  1  0
 18 19  2  0
 16 20  1  6
  6 15  1  0
 16 17  1  0
M  END

$$$$
No_2856-/export/home/yangzhenyu/potential_scad_32_flow//YTHDC2/2024-12-06-03-22-00/
     RDKit          3D

 20 21  0  0  0  0  0  0  0  0999 V2000
    1.1787   -8.0297    3.5154 C   0  0  0  0  0  0  0  0  0  0  0  0
    1.0491   -6.8434    2.9820 C   0  0  0  0  0  0  0  0  0  0  0  0
    0.9905   -9.0774    2.6527 C   0  0  0  0  0  0  0  0  0  0  0  0
    0.7897   -8.9519    1.3691 C   0  0  0  0  0  0  0  0  0  0  0  0
    0.7018   -7.7198    0.7892 C   0  0  0  0  0  0  0  0  0  0  0  0
    0.8918   -6.5957    1.6117 C   0  0  0  0  0  0  0  0  0  0  0  0
    1.0998  -10.4710    3.2437 O   0  0  0  0  0  0  0  0  0  0  0  0
    1.3767  -11.5631    2.7384 C   0  0  0  0  0  0  0  0  0  0  0  0
    0.8993   -5.2675    1.2204 C   0  0  0  0  0  0  0  0  0  0  0  0
    1.2565  -12.6995    3.4489 C   0  0  0  0  0  0  0  0  0  0  0  0
    1.5922  -13.9845    2.8211 C   0  0  0  0  0  0  0  0  0  0  0  0
    2.0412  -14.0173    1.5857 C   0  0  0  0  0  0  0  0  0  0  0  0
    2.2055  -12.7566    0.8356 C   0  0  0  0  0  0  0  0  0  0  0  0
    1.8033  -11.5994    1.3960 C   0  0  0  0  0  0  0  0  0  0  0  0
   -0.1808   -4.7589    0.7218 N   0  0  0  0  0  0  0  0  0  0  0  0
    1.8018   -4.2844    1.6573 O   0  0  0  0  0  0  0  0  0  0  0  0
    1.3426  -15.1133    3.5842 O   0  0  0  0  0  0  0  0  0  0  0  0
    1.6494  -16.3737    2.9856 C   0  0  0  0  0  0  0  0  0  0  0  0
    1.3671   -3.1355    1.2391 C   0  0  0  0  0  0  0  0  0  0  0  0
   -0.9605   -5.3575    0.4897 H   0  0  0  0  0  0  0  0  0  0  0  0
  3  7  1  0
  7  8  1  0
  6  9  1  0
  9 15  2  0
  9 16  1  0
 11 17  1  0
 17 18  1  0
 16 19  1  0
  8 10  2  0
 10 11  1  0
 11 12  2  0
 12 13  1  0
 13 14  2  0
  8 14  1  0
  1  2  2  0
  2  6  1  0
  5  6  2  0
  4  5  1  0
  3  4  2  0
  1  3  1  0
 15 20  1  0
M  END

$$$$
No_2857-/export/home/yangzhenyu/potential_scad_32_flow//YTHDC2/2024-12-06-03-22-00/
     RDKit          3D

 19 19  0  0  1  0  0  0  0  0999 V2000
    1.1787   -8.0297    3.5154 C   0  0  0  0  0  0  0  0  0  0  0  0
    1.1048   -9.2215    3.2892 C   0  0  0  0  0  0  0  0  0  0  0  0
    1.2339   -9.7611    2.0189 C   0  0  0  0  0  0  0  0  0  0  0  0
    1.3583   -9.0036    0.9764 C   0  0  0  0  0  0  0  0  0  0  0  0
    1.5996   -7.6362    1.1311 C   0  0  0  0  0  0  0  0  0  0  0  0
    1.4830   -7.0928    2.3626 C   0  0  0  0  0  0  0  0  0  0  0  0
    1.1008  -11.2372    1.8542 C   0  0  1  0  0  0  0  0  0  0  0  0
    0.4812  -11.6084    0.6459 C   0  0  0  0  0  0  0  0  0  0  0  0
    0.5134  -13.0269    0.4830 O   0  0  0  0  0  0  0  0  0  0  0  0
   -0.3265  -10.9546   -0.0091 N   0  0  0  0  0  0  0  0  0  0  0  0
    1.6020   -5.4875    2.7507 O   0  0  0  0  0  0  0  0  0  0  0  0
    1.8993  -11.9839    2.6323 C   0  0  0  0  0  0  0  0  0  0  0  0
    1.2714  -13.3071    2.9729 C   0  0  0  0  0  0  0  0  0  0  0  0
    1.3633  -14.3268    2.3927 O   0  0  0  0  0  0  0  0  0  0  0  0
    1.5888  -15.4891    3.1831 C   0  0  0  0  0  0  0  0  0  0  0  0
    0.5397  -15.9154    3.8306 C   0  0  0  0  0  0  0  0  0  0  0  0
   -0.6494  -15.9401    3.1313 C   0  0  0  0  0  0  0  0  0  0  0  0
   -0.8303  -16.4194    2.0031 C   0  0  0  0  0  0  0  0  0  0  0  0
   -0.4753  -17.7386    1.9348 C   0  0  0  0  0  0  0  0  0  0  0  0
  3  7  1  0
  7  8  1  0
  8  9  2  0
  8 10  1  0
  6 11  1  0
  7 12  1  6
 12 13  1  0
 13 14  1  0
 14 15  1  0
 15 16  1  0
 16 17  1  0
 17 18  1  0
 18 19  1  0
  1  2  2  0
  2  3  1  0
  3  4  2  0
  4  5  1  0
  5  6  2  0
  1  6  1  0
M  END

$$$$
No_2858-/export/home/yangzhenyu/potential_scad_32_flow//YTHDC2/2024-12-06-03-22-00/
     RDKit          3D

 18 19  0  0  0  0  0  0  0  0999 V2000
    1.1787   -8.0297    3.5154 C   0  0  0  0  0  0  0  0  0  0  0  0
    1.1048   -9.2215    3.2892 C   0  0  0  0  0  0  0  0  0  0  0  0
    1.3627  -10.1721    4.3044 C   0  0  0  0  0  0  0  0  0  0  0  0
    1.7354  -11.4730    3.9023 C   0  0  0  0  0  0  0  0  0  0  0  0
    1.8080  -11.8127    2.7216 C   0  0  0  0  0  0  0  0  0  0  0  0
    1.5854  -11.0021    1.7249 C   0  0  0  0  0  0  0  0  0  0  0  0
    1.3573   -9.7389    1.9287 C   0  0  0  0  0  0  0  0  0  0  0  0
    1.1102   -8.8712    0.9017 C   0  0  0  0  0  0  0  0  0  0  0  0
    0.5299   -7.6926    1.0325 C   0  0  0  0  0  0  0  0  0  0  0  0
    0.7526   -7.0802    2.3301 C   0  0  0  0  0  0  0  0  0  0  0  0
    2.0528  -13.2563    2.4302 C   0  0  0  0  0  0  0  0  0  0  0  0
    1.1153  -14.0523    1.8967 C   0  0  0  0  0  0  0  0  0  0  0  0
    0.6296  -14.8085    2.6366 C   0  0  0  0  0  0  0  0  0  0  0  0
   -0.6211  -15.1450    2.6475 C   0  0  0  0  0  0  0  0  0  0  0  0
   -1.1004  -16.3081    3.5458 C   0  0  0  0  0  0  0  0  0  0  0  0
    0.2068  -16.8433    4.1338 Br  0  0  0  0  0  0  0  0  0  0  0  0
    0.5624   -5.7076    2.5426 C   0  0  0  0  0  0  0  0  0  0  0  0
    1.0199   -4.8358    1.6412 C   0  0  0  0  0  0  0  0  0  0  0  0
  5 11  1  0
 11 12  1  0
 12 13  1  0
 13 14  1  0
 14 15  2  3
 15 16  1  0
 10 17  1  0
 17 18  1  0
  1  2  2  0
  7  8  2  0
  8  9  1  0
  9 10  2  0
  1 10  1  0
  2  3  1  0
  3  4  2  0
  4  5  1  0
  5  6  2  0
  6  7  1  0
  2  7  1  0
M  END

$$$$
No_2859-/export/home/yangzhenyu/potential_scad_32_flow//YTHDC2/2024-12-06-03-22-00/
     RDKit          3D

 17 17  0  0  0  0  0  0  0  0999 V2000
    1.1787   -8.0297    3.5154 N   0  0  0  0  0  0  0  0  0  0  0  0
    0.8669   -7.0905    2.8589 C   0  0  0  0  0  0  0  0  0  0  0  0
    0.8842   -5.8387    3.2677 N   0  0  0  0  0  0  0  0  0  0  0  0
    1.1510   -7.3366    1.4030 C   0  0  0  0  0  0  0  0  0  0  0  0
    1.3012   -9.3170    2.9920 C   0  0  0  0  0  0  0  0  0  0  0  0
    1.4519   -9.4826    1.5539 C   0  0  0  0  0  0  0  0  0  0  0  0
    1.4336   -8.4800    0.7999 C   0  0  0  0  0  0  0  0  0  0  0  0
    1.6147   -8.5155   -0.5333 C   0  0  0  0  0  0  0  0  0  0  0  0
    0.7111   -8.8666   -1.3058 O   0  0  0  0  0  0  0  0  0  0  0  0
    2.9192   -8.5898   -1.0678 O   0  0  0  0  0  0  0  0  0  0  0  0
    1.5142  -10.5128    3.8454 C   0  0  0  0  0  0  0  0  0  0  0  0
    0.4871  -11.4280    3.9105 C   0  0  0  0  0  0  0  0  0  0  0  0
    0.8713  -12.7632    3.6736 C   0  0  0  0  0  0  0  0  0  0  0  0
    1.0052  -13.2271    2.3054 C   0  0  0  0  0  0  0  0  0  0  0  0
    2.1439  -13.9623    2.0490 C   0  0  0  0  0  0  0  0  0  0  0  0
    2.1009  -15.2923    2.4229 C   0  0  0  0  0  0  0  0  0  0  0  0
    1.4052  -16.2454    1.8802 C   0  0  0  0  0  0  0  0  0  0  0  0
  2  3  1  0
  7  8  1  0
  8  9  2  0
  8 10  1  0
  5 11  1  0
 11 12  1  0
 12 13  1  0
 13 14  1  0
 14 15  1  0
 15 16  1  0
 16 17  1  0
  1  2  2  0
  2  4  1  0
  4  7  2  0
  6  7  1  0
  5  6  2  0
  1  5  1  0
M  END

$$$$
No_2860-/export/home/yangzhenyu/potential_scad_32_flow//YTHDC2/2024-12-06-03-22-00/
     RDKit          3D

 20 22  0  0  1  0  0  0  0  0999 V2000
    1.1787   -8.0297    3.5154 C   0  0  0  0  0  0  0  0  0  0  0  0
    1.1048   -9.2215    3.2892 C   0  0  0  0  0  0  0  0  0  0  0  0
    1.2339   -9.7611    2.0189 C   0  0  0  0  0  0  0  0  0  0  0  0
    1.3583   -9.0036    0.9764 C   0  0  0  0  0  0  0  0  0  0  0  0
    1.5996   -7.6362    1.1311 C   0  0  0  0  0  0  0  0  0  0  0  0
    1.4830   -7.0928    2.3626 C   0  0  0  0  0  0  0  0  0  0  0  0
    1.1171  -11.3311    1.8661 C   0  0  2  0  0  0  0  0  0  0  0  0
    1.9975  -12.1095    2.2478 C   0  0  0  0  0  0  0  0  0  0  0  0
    1.7697  -13.4418    1.9079 C   0  0  0  0  0  0  0  0  0  0  0  0
    0.5967  -13.4804    1.0730 C   0  0  0  0  0  0  0  0  0  0  0  0
    0.2939  -12.0199    1.0637 C   0  0  1  0  0  0  0  0  0  0  0  0
    1.5306   -5.6429    2.6183 Cl  0  0  0  0  0  0  0  0  0  0  0  0
    2.4272  -14.6660    2.1152 Cl  0  0  0  0  0  0  0  0  0  0  0  0
   -0.8228  -11.4777    0.3094 C   0  0  0  0  0  0  0  0  0  0  0  0
   -1.9428  -11.2151    0.9577 C   0  0  0  0  0  0  0  0  0  0  0  0
   -3.0690  -10.6197    0.2024 C   0  0  0  0  0  0  0  0  0  0  0  0
   -3.2178  -10.7292   -1.0032 C   0  0  0  0  0  0  0  0  0  0  0  0
   -2.0236  -11.0807   -1.8344 C   0  0  0  0  0  0  0  0  0  0  0  0
   -0.8849  -11.4715   -1.1340 C   0  0  0  0  0  0  0  0  0  0  0  0
   -1.9522  -10.9672   -3.2074 O   0  0  0  0  0  0  0  0  0  0  0  0
  7  3  1  6
  7  8  1  0
  8  9  2  0
  9 10  1  0
  7 11  1  0
 10 11  1  0
  6 12  1  0
  9 13  1  0
 11 14  1  1
 18 20  1  0
  1  2  2  0
  2  3  1  0
  3  4  2  0
  4  5  1  0
  5  6  2  0
  1  6  1  0
 14 15  2  0
 15 16  1  0
 16 17  2  0
 17 18  1  0
 18 19  2  0
 14 19  1  0
M  END

$$$$
No_2861-/export/home/yangzhenyu/potential_scad_32_flow//YTHDC2/2024-12-06-03-22-00/
     RDKit          3D

 18 19  0  0  0  0  0  0  0  0999 V2000
    1.1787   -8.0297    3.5154 C   0  0  0  0  0  0  0  0  0  0  0  0
    1.1048   -9.2215    3.2892 C   0  0  0  0  0  0  0  0  0  0  0  0
    1.4683  -10.2314    4.1915 C   0  0  0  0  0  0  0  0  0  0  0  0
    0.8445   -6.9865    2.5175 C   0  0  0  0  0  0  0  0  0  0  0  0
    0.3587   -7.3973    1.3953 C   0  0  0  0  0  0  0  0  0  0  0  0
    0.1901   -8.6971    1.0711 C   0  0  0  0  0  0  0  0  0  0  0  0
    0.5759   -9.6647    1.9442 C   0  0  0  0  0  0  0  0  0  0  0  0
    1.7895  -11.5595    3.5580 C   0  0  0  0  0  0  0  0  0  0  0  0
    1.4257  -11.9106    2.4350 C   0  0  0  0  0  0  0  0  0  0  0  0
    1.0063  -10.9151    1.5143 C   0  0  0  0  0  0  0  0  0  0  0  0
    1.7367  -13.1985    1.9302 C   0  0  0  0  0  0  0  0  0  0  0  0
   -0.1924   -9.0055   -0.1464 C   0  0  0  0  0  0  0  0  0  0  0  0
    0.5351   -9.0617   -1.2171 O   0  0  0  0  0  0  0  0  0  0  0  0
   -1.4091   -9.7981   -0.1361 O   0  0  0  0  0  0  0  0  0  0  0  0
    2.0528  -14.1945    2.7777 C   0  0  0  0  0  0  0  0  0  0  0  0
    2.3419  -15.5206    2.1734 C   0  0  0  0  0  0  0  0  0  0  0  0
    1.2748  -16.4530    1.9902 C   0  0  0  0  0  0  0  0  0  0  0  0
    1.4441  -17.5124    1.3361 C   0  0  0  0  0  0  0  0  0  0  0  0
  9 11  1  0
  6 12  1  0
 12 13  1  0
 12 14  2  0
 11 15  1  0
 15 16  1  0
 16 17  1  0
 17 18  1  0
  1  2  2  0
  6  7  2  0
  5  6  1  0
  4  5  2  0
  1  4  1  0
  2  3  1  0
  3  8  2  0
  8  9  1  0
  9 10  2  0
  7 10  1  0
  2  7  1  0
M  END

$$$$
No_2862-/export/home/yangzhenyu/potential_scad_32_flow//YTHDC2/2024-12-06-03-22-00/
     RDKit          3D

 18 19  0  0  0  0  0  0  0  0999 V2000
    1.1787   -8.0297    3.5154 C   0  0  0  0  0  0  0  0  0  0  0  0
    1.1048   -9.2215    3.2892 C   0  0  0  0  0  0  0  0  0  0  0  0
    1.2339   -9.7611    2.0189 C   0  0  0  0  0  0  0  0  0  0  0  0
    1.3583   -9.0036    0.9764 C   0  0  0  0  0  0  0  0  0  0  0  0
    1.5996   -7.6362    1.1311 C   0  0  0  0  0  0  0  0  0  0  0  0
    1.4830   -7.0928    2.3626 C   0  0  0  0  0  0  0  0  0  0  0  0
    1.1008  -11.2372    1.8542 C   0  0  0  0  0  0  0  0  0  0  0  0
    1.9749  -12.0938    2.2342 C   0  0  0  0  0  0  0  0  0  0  0  0
    1.5180  -13.3509    2.5910 C   0  0  0  0  0  0  0  0  0  0  0  0
    0.4120  -13.9272    2.2191 C   0  0  0  0  0  0  0  0  0  0  0  0
   -0.5860  -13.0563    1.8308 C   0  0  0  0  0  0  0  0  0  0  0  0
   -0.2264  -11.7453    1.4928 C   0  0  0  0  0  0  0  0  0  0  0  0
    1.6028   -5.4505    2.6854 Cl  0  0  0  0  0  0  0  0  0  0  0  0
    0.0975  -15.2159    2.5385 C   0  0  0  0  0  0  0  0  0  0  0  0
    0.0638  -16.1053    2.0680 C   0  0  0  0  0  0  0  0  0  0  0  0
   -0.2409  -17.4843    2.5281 C   0  0  0  0  0  0  0  0  0  0  0  0
   -0.1960  -17.5459    3.9383 C   0  0  0  0  0  0  0  0  0  0  0  0
    0.0088  -16.4788    4.7471 C   0  0  0  0  0  0  0  0  0  0  0  0
  3  7  1  0
  6 13  1  0
 10 14  1  0
 14 15  2  3
 15 16  1  0
 16 17  2  3
 17 18  1  0
  1  2  2  0
  2  3  1  0
  3  4  2  0
  4  5  1  0
  5  6  2  0
  1  6  1  0
  7  8  2  0
  8  9  1  0
  9 10  2  0
 10 11  1  0
 11 12  2  0
  7 12  1  0
M  END

$$$$
No_2863-/export/home/yangzhenyu/potential_scad_32_flow//YTHDC2/2024-12-06-03-22-00/
     RDKit          3D

 18 19  0  0  0  0  0  0  0  0999 V2000
    1.1787   -8.0297    3.5154 C   0  0  0  0  0  0  0  0  0  0  0  0
    1.0491   -6.8434    2.9820 C   0  0  0  0  0  0  0  0  0  0  0  0
    0.0950   -8.8404    3.2292 C   0  0  0  0  0  0  0  0  0  0  0  0
   -0.9173   -8.4596    2.5152 C   0  0  0  0  0  0  0  0  0  0  0  0
   -1.0331   -7.2162    2.0653 C   0  0  0  0  0  0  0  0  0  0  0  0
   -0.0105   -6.3168    2.3081 C   0  0  0  0  0  0  0  0  0  0  0  0
    0.1465  -10.2446    3.6981 C   0  0  0  0  0  0  0  0  0  0  0  0
    0.1907  -11.3369    2.8651 C   0  0  0  0  0  0  0  0  0  0  0  0
   -0.2018  -11.4456    1.8156 C   0  0  0  0  0  0  0  0  0  0  0  0
   -0.1002  -12.4840    0.9716 C   0  0  0  0  0  0  0  0  0  0  0  0
   -0.8859  -12.7006   -0.0947 C   0  0  0  0  0  0  0  0  0  0  0  0
   -1.4396  -11.5462   -0.7737 C   0  0  0  0  0  0  0  0  0  0  0  0
   -1.4540  -10.3425   -0.0719 C   0  0  0  0  0  0  0  0  0  0  0  0
   -0.8118  -10.2294    1.1419 C   0  0  0  0  0  0  0  0  0  0  0  0
   -2.0503   -9.2614   -0.7006 C   0  0  0  0  0  0  0  0  0  0  0  0
   -1.3722   -8.4511   -1.5699 C   0  0  0  0  0  0  0  0  0  0  0  0
   -0.1031   -8.4993   -1.7404 C   0  0  0  0  0  0  0  0  0  0  0  0
   -2.1468   -7.8561   -2.6257 O   0  0  0  0  0  0  0  0  0  0  0  0
  3  7  1  0
  7  8  1  0
 13 15  1  0
 15 16  1  0
 16 17  1  0
 16 18  2  0
  8  9  1  0
  1  2  2  0
  2  6  1  0
  5  6  2  0
  4  5  1  0
  3  4  2  0
  1  3  1  0
  9 10  2  0
 10 11  1  0
 11 12  2  0
 12 13  1  0
 13 14  2  0
  9 14  1  0
M  END

$$$$
No_2864-/export/home/yangzhenyu/potential_scad_32_flow//YTHDC2/2024-12-06-03-22-00/
     RDKit          3D

 19 20  0  0  1  0  0  0  0  0999 V2000
    1.1787   -8.0297    3.5154 N   0  0  0  0  0  0  0  0  0  0  0  0
    0.8669   -7.0905    2.8589 C   0  0  0  0  0  0  0  0  0  0  0  0
    1.0447   -7.3244    1.4123 C   0  0  0  0  0  0  0  0  0  0  0  0
    1.3746   -8.4389    1.0864 C   0  0  1  0  0  0  0  0  0  0  0  0
    1.8185   -8.7923   -0.3129 Cl  0  0  0  0  0  0  0  0  0  0  0  0
    1.7280   -9.1127    2.3325 C   0  0  2  0  0  0  0  0  0  0  0  0
    2.0695  -10.3622    2.5676 C   0  0  2  0  0  0  0  0  0  0  0  0
    2.0542  -10.8132    3.9790 C   0  0  0  0  0  0  0  0  0  0  0  0
    2.8562  -11.0468    2.1500 C   0  0  0  0  0  0  0  0  0  0  0  0
    1.3251  -11.9451    4.2842 C   0  0  0  0  0  0  0  0  0  0  0  0
    0.5083  -12.3513    3.1581 C   0  0  0  0  0  0  0  0  0  0  0  0
    0.6514  -13.7258    2.9189 C   0  0  2  0  0  0  0  0  0  0  0  0
    1.4895  -14.4638    3.2843 C   0  0  0  0  0  0  0  0  0  0  0  0
    1.6060  -15.8463    2.9151 C   0  0  0  0  0  0  0  0  0  0  0  0
    0.7509  -16.3299    2.1040 C   0  0  0  0  0  0  0  0  0  0  0  0
   -0.2235  -15.6131    1.6012 C   0  0  0  0  0  0  0  0  0  0  0  0
   -0.2754  -14.2965    1.9339 C   0  0  0  0  0  0  0  0  0  0  0  0
    0.7752  -17.6969    1.7542 Cl  0  0  0  0  0  0  0  0  0  0  0  0
   -1.2019  -13.3829    1.3745 O   0  0  0  0  0  0  0  0  0  0  0  0
  1  2  1  0
  2  3  2  0
  3  4  1  0
  4  5  1  6
  6  1  1  1
  4  6  1  0
  6  7  1  0
  7  8  1  0
  7  9  1  1
  8 10  1  0
 10 11  1  0
 12 11  1  6
 12 13  1  0
 14 15  1  0
 12 17  1  0
 16 17  1  0
 15 18  1  0
 17 19  2  0
 13 14  1  0
 15 16  1  0
M  END

$$$$
No_2865-/export/home/yangzhenyu/potential_scad_32_flow//YTHDC2/2024-12-06-03-22-00/
     RDKit          3D

 19 21  0  0  0  0  0  0  0  0999 V2000
    1.1787   -8.0297    3.5154 C   0  0  0  0  0  0  0  0  0  0  0  0
    1.0491   -6.8434    2.9820 C   0  0  0  0  0  0  0  0  0  0  0  0
    0.0950   -8.8404    3.2292 C   0  0  0  0  0  0  0  0  0  0  0  0
   -0.9173   -8.4596    2.5152 C   0  0  0  0  0  0  0  0  0  0  0  0
   -1.0331   -7.2162    2.0653 C   0  0  0  0  0  0  0  0  0  0  0  0
   -2.2155   -6.7621    1.5011 C   0  0  0  0  0  0  0  0  0  0  0  0
    0.0919   -6.3006    2.2576 C   0  0  0  0  0  0  0  0  0  0  0  0
   -2.7649   -5.5381    1.7176 C   0  0  0  0  0  0  0  0  0  0  0  0
   -1.7279   -4.4529    2.2401 C   0  0  0  0  0  0  0  0  0  0  0  0
   -0.3773   -4.8741    2.5604 C   0  0  0  0  0  0  0  0  0  0  0  0
    0.2786  -10.5122    3.6727 C   0  0  0  0  0  0  0  0  0  0  0  0
   -0.7321  -11.2922    3.3899 C   0  0  0  0  0  0  0  0  0  0  0  0
    1.5564  -10.8731    4.2749 C   0  0  0  0  0  0  0  0  0  0  0  0
    2.6713  -10.1313    4.5968 C   0  0  0  0  0  0  0  0  0  0  0  0
    3.5167  -11.1966    5.2917 O   0  0  0  0  0  0  0  0  0  0  0  0
    0.6136   -3.8941    2.8010 O   0  0  0  0  0  0  0  0  0  0  0  0
   -0.4023  -12.6283    3.1384 C   0  0  0  0  0  0  0  0  0  0  0  0
    0.9238  -12.9818    3.1014 C   0  0  0  0  0  0  0  0  0  0  0  0
    1.9182  -12.1516    3.6105 C   0  0  0  0  0  0  0  0  0  0  0  0
  3 11  1  0
 13 14  1  0
 14 15  1  0
 10 16  1  0
  1  2  2  0
  2  7  1  0
  4  5  1  0
  3  4  2  0
  1  3  1  0
  5  6  2  0
  6  8  1  0
  8  9  2  0
  9 10  1  0
  7 10  2  0
  5  7  1  0
 11 12  2  0
 12 17  1  0
 17 18  2  0
 18 19  1  0
 13 19  2  0
 11 13  1  0
M  END

$$$$
No_2866-/export/home/yangzhenyu/potential_scad_32_flow//YTHDC2/2024-12-06-03-22-00/
     RDKit          3D

 18 19  0  0  0  0  0  0  0  0999 V2000
    1.1787   -8.0297    3.5154 C   0  0  0  0  0  0  0  0  0  0  0  0
    1.0491   -6.8434    2.9820 C   0  0  0  0  0  0  0  0  0  0  0  0
    0.9905   -9.0774    2.6527 C   0  0  0  0  0  0  0  0  0  0  0  0
    1.1655  -10.4663    3.1286 C   0  0  0  0  0  0  0  0  0  0  0  0
    1.7409  -10.6480    4.4599 C   0  0  0  0  0  0  0  0  0  0  0  0
    0.4783   -6.4688    1.7590 C   0  0  0  0  0  0  0  0  0  0  0  0
    0.2119   -7.5787    0.9640 C   0  0  0  0  0  0  0  0  0  0  0  0
    0.4248   -8.8744    1.3136 C   0  0  0  0  0  0  0  0  0  0  0  0
    1.0420  -11.5352    2.2989 C   0  0  0  0  0  0  0  0  0  0  0  0
    1.2787  -12.6370    2.6643 C   0  0  0  0  0  0  0  0  0  0  0  0
    1.7895  -13.0086    4.0098 C   0  0  0  0  0  0  0  0  0  0  0  0
    1.8836  -11.9783    4.8188 C   0  0  0  0  0  0  0  0  0  0  0  0
    0.2943   -5.2081    1.2375 Cl  0  0  0  0  0  0  0  0  0  0  0  0
    1.0612  -13.8847    1.8554 C   0  0  0  0  0  0  0  0  0  0  0  0
    2.0456  -14.8392    1.7679 C   0  0  0  0  0  0  0  0  0  0  0  0
    1.9162  -16.0427    1.4092 C   0  0  0  0  0  0  0  0  0  0  0  0
    0.7356  -16.4589    1.0450 C   0  0  0  0  0  0  0  0  0  0  0  0
   -0.3664  -15.7261    1.1924 C   0  0  0  0  0  0  0  0  0  0  0  0
  3  4  1  0
  6 13  1  0
 10 14  1  0
 14 15  1  0
 15 16  2  3
 16 17  1  0
 17 18  2  0
  4  5  2  0
  5 12  1  0
 11 12  2  0
 10 11  1  0
  9 10  2  0
  4  9  1  0
  1  2  2  0
  2  6  1  0
  6  7  2  0
  7  8  1  0
  3  8  2  0
  1  3  1  0
M  END

$$$$
No_2867-/export/home/yangzhenyu/potential_scad_32_flow//YTHDC2/2024-12-06-03-22-00/
     RDKit          3D

 19 21  0  0  0  0  0  0  0  0999 V2000
    1.1787   -8.0297    3.5154 N   0  0  0  0  0  0  0  0  0  0  0  0
    1.0818   -9.0751    3.2053 C   0  0  0  0  0  0  0  0  0  0  0  0
    1.5216  -10.1164    3.9747 C   0  0  0  0  0  0  0  0  0  0  0  0
    1.4420  -11.4363    3.6461 C   0  0  0  0  0  0  0  0  0  0  0  0
    0.5969  -11.7648    2.6785 C   0  0  0  0  0  0  0  0  0  0  0  0
    0.3540  -13.1626    2.3846 C   0  0  0  0  0  0  0  0  0  0  0  0
    1.2624  -14.1350    2.9922 C   0  0  0  0  0  0  0  0  0  0  0  0
    0.6292   -9.5017    2.0025 C   0  0  0  0  0  0  0  0  0  0  0  0
    0.2415   -8.4353    1.1629 C   0  0  0  0  0  0  0  0  0  0  0  0
    0.2064   -7.1264    1.4412 C   0  0  0  0  0  0  0  0  0  0  0  0
    0.8668   -6.8474    2.7365 C   0  0  0  0  0  0  0  0  0  0  0  0
    0.3428  -10.9189    1.6473 C   0  0  0  0  0  0  0  0  0  0  0  0
    1.1635   -5.5598    3.0852 C   0  0  0  0  0  0  0  0  0  0  0  0
    1.4078  -15.4334    2.3684 C   0  0  0  0  0  0  0  0  0  0  0  0
    0.6651  -16.3885    2.8533 C   0  0  0  0  0  0  0  0  0  0  0  0
    0.9938  -17.4011    2.5286 C   0  0  0  0  0  0  0  0  0  0  0  0
    2.1620  -17.8434    1.7594 C   0  0  0  0  0  0  0  0  0  0  0  0
    2.9133  -16.8071    1.3209 C   0  0  0  0  0  0  0  0  0  0  0  0
    2.7087  -15.5358    1.7778 C   0  0  0  0  0  0  0  0  0  0  0  0
  5  6  1  0
  6  7  1  0
 11 13  1  0
  7 14  1  0
 14 15  2  0
 15 16  1  0
 16 17  2  0
 17 18  1  0
 18 19  2  0
 14 19  1  0
  2  3  1  0
  3  4  2  0
  4  5  1  0
  5 12  2  0
  8 12  1  0
  1  2  2  0
  2  8  1  0
  8  9  2  0
  9 10  1  0
 10 11  2  0
  1 11  1  0
M  END

$$$$
No_2868-/export/home/yangzhenyu/potential_scad_32_flow//YTHDC2/2024-12-06-03-22-00/
     RDKit          3D

 18 19  0  0  0  0  0  0  0  0999 V2000
    1.1787   -8.0297    3.5154 C   0  0  0  0  0  0  0  0  0  0  0  0
    1.0491   -6.8434    2.9820 C   0  0  0  0  0  0  0  0  0  0  0  0
    0.9905   -9.0774    2.6527 C   0  0  0  0  0  0  0  0  0  0  0  0
    0.7897   -8.9519    1.3691 C   0  0  0  0  0  0  0  0  0  0  0  0
    0.7018   -7.7198    0.7892 C   0  0  0  0  0  0  0  0  0  0  0  0
    0.8918   -6.5957    1.6117 C   0  0  0  0  0  0  0  0  0  0  0  0
    1.0998  -10.4710    3.2437 C   0  0  0  0  0  0  0  0  0  0  0  0
    0.0472  -11.2546    3.3963 C   0  0  0  0  0  0  0  0  0  0  0  0
    0.1622  -12.5732    3.4140 N   0  0  0  0  0  0  0  0  0  0  0  0
    1.4168  -13.0379    3.4220 C   0  0  0  0  0  0  0  0  0  0  0  0
    2.5152  -12.3612    3.2590 C   0  0  0  0  0  0  0  0  0  0  0  0
    2.3959  -11.0609    3.1709 C   0  0  0  0  0  0  0  0  0  0  0  0
    0.8753   -5.2756    1.1720 O   0  0  0  0  0  0  0  0  0  0  0  0
    1.3037  -14.5320    3.5227 C   0  0  0  0  0  0  0  0  0  0  0  0
    0.3401  -15.3116    3.6645 C   0  0  0  0  0  0  0  0  0  0  0  0
    0.4618  -16.6825    3.7162 C   0  0  0  0  0  0  0  0  0  0  0  0
   -0.4490  -17.4968    4.0332 C   0  0  0  0  0  0  0  0  0  0  0  0
   -1.7680  -16.9615    4.1717 C   0  0  0  0  0  0  0  0  0  0  0  0
  1  2  1  0
  3  4  1  0
  2  6  1  0
  5  6  1  0
  3  7  1  0
  6 13  2  0
 10 14  1  0
 14 15  2  3
 15 16  1  0
 16 17  2  3
 17 18  1  0
  1  3  1  0
  4  5  1  0
  7  8  2  0
  8  9  1  0
  9 10  2  0
 10 11  1  0
 11 12  2  0
  7 12  1  0
M  END

$$$$
No_2869-/export/home/yangzhenyu/potential_scad_32_flow//YTHDC2/2024-12-06-03-22-00/
     RDKit          3D

 19 19  0  0  1  0  0  0  0  0999 V2000
    1.1787   -8.0297    3.5154 C   0  0  0  0  0  0  0  0  0  0  0  0
    1.0491   -6.8434    2.9820 C   0  0  0  0  0  0  0  0  0  0  0  0
    0.0950   -8.8404    3.2292 C   0  0  0  0  0  0  0  0  0  0  0  0
   -0.9173   -8.4596    2.5152 C   0  0  0  0  0  0  0  0  0  0  0  0
   -1.0331   -7.2162    2.0653 C   0  0  0  0  0  0  0  0  0  0  0  0
   -0.0105   -6.3168    2.3081 C   0  0  0  0  0  0  0  0  0  0  0  0
    0.1465  -10.2446    3.6981 C   0  0  0  0  0  0  0  0  0  0  0  0
   -1.0336  -10.8619    3.9439 O   0  0  0  0  0  0  0  0  0  0  0  0
    1.1753  -10.7254    4.5024 N   0  0  0  0  0  0  0  0  0  0  0  0
    1.8980  -11.7732    4.0485 C   0  0  0  0  0  0  0  0  0  0  0  0
    0.0162   -4.8180    1.7173 O   0  0  0  0  0  0  0  0  0  0  0  0
    1.1861  -12.7777    3.2913 C   0  0  0  0  0  0  0  0  0  0  0  0
    1.9675  -13.6668    2.4485 C   0  0  2  0  0  0  0  0  0  0  0  0
    2.1929  -13.5993    1.4440 C   0  0  0  0  0  0  0  0  0  0  0  0
    1.9044  -12.3149    0.7629 N   0  0  0  0  0  0  0  0  0  0  0  0
    2.0542  -15.0674    3.0827 N   0  0  0  0  0  0  0  0  0  0  0  0
    2.6682  -16.0221    2.2844 C   0  0  0  0  0  0  0  0  0  0  0  0
   -0.3449   -3.8413    2.2906 C   0  0  0  0  0  0  0  0  0  0  0  0
    1.5956  -11.3228    1.6032 C   0  0  0  0  0  0  0  0  0  0  0  0
  3  7  1  0
  7  8  2  0
  7  9  1  0
  9 10  1  0
  6 11  1  0
 10 12  1  0
 13 12  1  6
 13 14  1  0
 14 15  2  3
 13 16  1  0
 16 17  1  0
 11 18  1  0
 15 19  1  0
  1  2  2  0
  2  6  1  0
  5  6  2  0
  4  5  1  0
  3  4  2  0
  1  3  1  0
M  END

$$$$
No_2870-/export/home/yangzhenyu/potential_scad_32_flow//YTHDC2/2024-12-06-03-22-00/
     RDKit          3D

 17 17  0  0  0  0  0  0  0  0999 V2000
    1.1787   -8.0297    3.5154 C   0  0  0  0  0  0  0  0  0  0  0  0
    1.0491   -6.8434    2.9820 C   0  0  0  0  0  0  0  0  0  0  0  0
    0.0950   -8.8404    3.2292 C   0  0  0  0  0  0  0  0  0  0  0  0
   -0.9173   -8.4596    2.5152 C   0  0  0  0  0  0  0  0  0  0  0  0
   -1.0331   -7.2162    2.0653 C   0  0  0  0  0  0  0  0  0  0  0  0
   -0.0105   -6.3168    2.3081 C   0  0  0  0  0  0  0  0  0  0  0  0
    0.1150   -4.9910    1.8495 C   0  0  0  0  0  0  0  0  0  0  0  0
   -0.5774   -4.1593    2.0596 N   0  0  0  0  0  0  0  0  0  0  0  0
    0.1680  -10.2877    3.7012 C   0  0  0  0  0  0  0  0  0  0  0  0
   -1.0762  -10.9526    3.8329 C   0  0  0  0  0  0  0  0  0  0  0  0
    1.3613  -10.8020    4.3070 C   0  0  0  0  0  0  0  0  0  0  0  0
    2.5269  -10.2964    4.3892 C   0  0  0  0  0  0  0  0  0  0  0  0
   -0.9737  -12.3425    3.5923 C   0  0  0  0  0  0  0  0  0  0  0  0
   -1.9746  -12.9670    3.0430 C   0  0  0  0  0  0  0  0  0  0  0  0
   -1.9177  -14.3600    2.7719 C   0  0  0  0  0  0  0  0  0  0  0  0
   -3.0071  -15.1007    2.5717 C   0  0  0  0  0  0  0  0  0  0  0  0
   -4.2033  -14.4908    2.3861 C   0  0  0  0  0  0  0  0  0  0  0  0
  6  7  1  0
  7  8  1  0
  3  9  1  0
  9 10  2  3
  9 11  1  0
 11 12  1  0
 10 13  1  0
 13 14  2  3
 14 15  1  0
 15 16  2  3
 16 17  1  0
  1  2  2  0
  2  6  1  0
  5  6  2  0
  4  5  1  0
  3  4  2  0
  1  3  1  0
M  END

$$$$
No_2871-/export/home/yangzhenyu/potential_scad_32_flow//YTHDC2/2024-12-06-03-22-00/
     RDKit          3D

 18 20  0  0  0  0  0  0  0  0999 V2000
    1.1787   -8.0297    3.5154 C   0  0  0  0  0  0  0  0  0  0  0  0
    1.1048   -9.2215    3.2892 C   0  0  0  0  0  0  0  0  0  0  0  0
    1.3627  -10.1721    4.3044 C   0  0  0  0  0  0  0  0  0  0  0  0
    1.0682  -11.5187    4.0618 C   0  0  0  0  0  0  0  0  0  0  0  0
    0.6332  -11.9655    2.9682 C   0  0  0  0  0  0  0  0  0  0  0  0
    0.4776  -11.1308    1.9203 C   0  0  0  0  0  0  0  0  0  0  0  0
    0.7470   -9.8274    2.0368 C   0  0  0  0  0  0  0  0  0  0  0  0
    1.0387   -7.0301    2.5175 C   0  0  0  0  0  0  0  0  0  0  0  0
    0.9130   -7.5288    1.2013 C   0  0  0  0  0  0  0  0  0  0  0  0
    0.7893   -8.7979    0.9542 C   0  0  0  0  0  0  0  0  0  0  0  0
    0.3998  -13.3695    2.7114 C   0  0  0  0  0  0  0  0  0  0  0  0
    1.2819  -14.3216    3.1282 C   0  0  0  0  0  0  0  0  0  0  0  0
    1.0706  -15.6831    2.9801 C   0  0  0  0  0  0  0  0  0  0  0  0
    0.0717  -16.1401    2.3139 C   0  0  0  0  0  0  0  0  0  0  0  0
   -0.7630  -15.2846    1.7460 C   0  0  0  0  0  0  0  0  0  0  0  0
   -0.5521  -13.9245    1.9034 C   0  0  0  0  0  0  0  0  0  0  0  0
    0.4430   -9.2662   -0.3652 C   0  0  0  0  0  0  0  0  0  0  0  0
    1.2152   -9.2846   -1.2505 O   0  0  0  0  0  0  0  0  0  0  0  0
  5 11  1  0
 10 17  1  0
 17 18  2  0
 11 12  2  0
 12 13  1  0
 13 14  2  0
 14 15  1  0
 15 16  2  0
 11 16  1  0
  2  3  1  0
  3  4  2  0
  4  5  1  0
  5  6  2  0
  6  7  1  0
  1  2  2  0
  2  7  1  0
  7 10  2  0
  9 10  1  0
  8  9  2  0
  1  8  1  0
M  END

$$$$
No_2872-/export/home/yangzhenyu/potential_scad_32_flow//YTHDC2/2024-12-06-03-22-00/
     RDKit          3D

 11 11  0  0  0  0  0  0  0  0999 V2000
    1.1787   -8.0297    3.5154 C   0  0  0  0  0  0  0  0  0  0  0  0
    1.0491   -6.8434    2.9820 C   0  0  0  0  0  0  0  0  0  0  0  0
    0.0950   -8.8404    3.2292 C   0  0  0  0  0  0  0  0  0  0  0  0
   -0.9173   -8.4596    2.5152 C   0  0  0  0  0  0  0  0  0  0  0  0
   -1.0331   -7.2162    2.0653 C   0  0  0  0  0  0  0  0  0  0  0  0
   -0.0105   -6.3168    2.3081 C   0  0  0  0  0  0  0  0  0  0  0  0
    0.1150   -4.9910    1.8495 C   0  0  0  0  0  0  0  0  0  0  0  0
    0.9121   -4.1017    2.4010 O   0  0  0  0  0  0  0  0  0  0  0  0
    0.1243  -10.2739    3.6619 C   0  0  0  0  0  0  0  0  0  0  0  0
    1.1724  -10.9376    4.1083 C   0  0  0  0  0  0  0  0  0  0  0  0
    2.3060  -10.6039    4.1464 C   0  0  0  0  0  0  0  0  0  0  0  0
  6  7  1  0
  7  8  1  0
  3  9  1  0
  9 10  1  0
 10 11  2  0
  1  2  2  0
  2  6  1  0
  5  6  2  0
  4  5  1  0
  3  4  2  0
  1  3  1  0
M  END

$$$$
No_2873-/export/home/yangzhenyu/potential_scad_32_flow//YTHDC2/2024-12-06-03-22-00/
     RDKit          3D

 20 21  0  0  0  0  0  0  0  0999 V2000
    1.1787   -8.0297    3.5154 C   0  0  0  0  0  0  0  0  0  0  0  0
    1.1048   -9.2215    3.2892 C   0  0  0  0  0  0  0  0  0  0  0  0
    1.2339   -9.7611    2.0189 C   0  0  0  0  0  0  0  0  0  0  0  0
    1.3583   -9.0036    0.9764 C   0  0  0  0  0  0  0  0  0  0  0  0
    1.5996   -7.6362    1.1311 C   0  0  0  0  0  0  0  0  0  0  0  0
    1.4830   -7.0928    2.3626 C   0  0  0  0  0  0  0  0  0  0  0  0
    1.1171  -11.3311    1.8661 C   0  0  0  0  0  0  0  0  0  0  0  0
    1.9975  -12.1095    2.2478 C   0  0  0  0  0  0  0  0  0  0  0  0
    1.7697  -13.4418    1.9079 C   0  0  0  0  0  0  0  0  0  0  0  0
    0.8824  -13.8564    1.1154 C   0  0  0  0  0  0  0  0  0  0  0  0
   -0.0664  -12.9335    0.5986 C   0  0  0  0  0  0  0  0  0  0  0  0
    0.1158  -11.5559    0.9634 C   0  0  0  0  0  0  0  0  0  0  0  0
    1.5514   -5.6395    2.6394 Cl  0  0  0  0  0  0  0  0  0  0  0  0
   -0.8325  -10.6742    0.5154 C   0  0  0  0  0  0  0  0  0  0  0  0
   -1.9266  -10.3775    1.3535 O   0  0  0  0  0  0  0  0  0  0  0  0
   -0.8806  -10.1821   -0.7149 O   0  0  0  0  0  0  0  0  0  0  0  0
    2.7683  -14.4607    2.3702 Cl  0  0  0  0  0  0  0  0  0  0  0  0
    0.8561  -10.1507    4.4154 F   0  0  0  0  0  0  0  0  0  0  0  0
   -1.4615   -9.0515   -1.1171 C   0  0  0  0  0  0  0  0  0  0  0  0
   -2.2506   -9.0340   -2.0233 C   0  0  0  0  0  0  0  0  0  0  0  0
  3  7  1  0
  6 13  1  0
 12 14  1  0
 14 15  2  0
 14 16  1  0
  9 17  1  0
  2 18  1  0
 16 19  1  0
 19 20  1  0
  1  2  2  0
  2  3  1  0
  3  4  2  0
  4  5  1  0
  5  6  2  0
  1  6  1  0
  7  8  2  0
  8  9  1  0
  9 10  2  0
 10 11  1  0
 11 12  2  0
  7 12  1  0
M  END

$$$$
No_2874-/export/home/yangzhenyu/potential_scad_32_flow//YTHDC2/2024-12-06-03-22-00/
     RDKit          3D

 19 20  0  0  0  0  0  0  0  0999 V2000
    1.1787   -8.0297    3.5154 C   0  0  0  0  0  0  0  0  0  0  0  0
    1.1048   -9.2215    3.2892 C   0  0  0  0  0  0  0  0  0  0  0  0
    1.2339   -9.7611    2.0189 C   0  0  0  0  0  0  0  0  0  0  0  0
    1.3583   -9.0036    0.9764 C   0  0  0  0  0  0  0  0  0  0  0  0
    1.5996   -7.6362    1.1311 C   0  0  0  0  0  0  0  0  0  0  0  0
    1.4830   -7.0928    2.3626 C   0  0  0  0  0  0  0  0  0  0  0  0
    1.4898   -5.7274    2.6199 C   0  0  0  0  0  0  0  0  0  0  0  0
    1.1681  -11.2222    1.8390 C   0  0  0  0  0  0  0  0  0  0  0  0
    1.9047  -12.1147    2.3357 C   0  0  0  0  0  0  0  0  0  0  0  0
    1.6844  -13.4555    2.0602 C   0  0  0  0  0  0  0  0  0  0  0  0
    0.6977  -13.8514    1.3046 C   0  0  0  0  0  0  0  0  0  0  0  0
   -0.1168  -12.9151    0.6554 C   0  0  0  0  0  0  0  0  0  0  0  0
    0.1481  -11.5441    0.9254 C   0  0  0  0  0  0  0  0  0  0  0  0
    1.2485   -4.8600    1.6197 O   0  0  0  0  0  0  0  0  0  0  0  0
    1.4832   -5.1579    3.8813 O   0  0  0  0  0  0  0  0  0  0  0  0
    2.6256  -14.5787    2.8635 O   0  0  0  0  0  0  0  0  0  0  0  0
   -0.7017  -10.6857    0.3356 C   0  0  0  0  0  0  0  0  0  0  0  0
   -1.8051  -10.9500   -0.1931 O   0  0  0  0  0  0  0  0  0  0  0  0
   -0.0998   -9.9277   -0.7916 O   0  0  0  0  0  0  0  0  0  0  0  0
  6  7  1  0
  3  8  1  0
  7 14  2  0
  7 15  1  0
 10 16  1  0
 13 17  1  0
 17 18  2  0
 17 19  1  0
  1  2  2  0
  2  3  1  0
  3  4  2  0
  4  5  1  0
  5  6  2  0
  1  6  1  0
  8  9  2  0
  9 10  1  0
 10 11  2  0
 11 12  1  0
 12 13  2  0
  8 13  1  0
M  END

$$$$
No_2875-/export/home/yangzhenyu/potential_scad_32_flow//YTHDC2/2024-12-06-03-22-00/
     RDKit          3D

 21 22  0  0  0  0  0  0  0  0999 V2000
    1.1787   -8.0297    3.5154 C   0  0  0  0  0  0  0  0  0  0  0  0
    1.0491   -6.8434    2.9820 N   0  0  0  0  0  0  0  0  0  0  0  0
    0.1476   -8.8697    3.1493 C   0  0  0  0  0  0  0  0  0  0  0  0
   -0.7634   -8.3679    2.4311 C   0  0  0  0  0  0  0  0  0  0  0  0
   -0.1709   -6.9105    2.2426 C   0  0  0  0  0  0  0  0  0  0  0  0
    0.2070  -10.3565    3.6024 C   0  0  0  0  0  0  0  0  0  0  0  0
    0.6785  -11.2967    2.9258 C   0  0  0  0  0  0  0  0  0  0  0  0
    0.9095  -12.5242    3.5405 C   0  0  0  0  0  0  0  0  0  0  0  0
    0.9822  -13.5203    2.5547 C   0  0  0  0  0  0  0  0  0  0  0  0
    1.1196  -13.5242    1.3333 C   0  0  0  0  0  0  0  0  0  0  0  0
    1.0291  -12.2759    0.6901 C   0  0  0  0  0  0  0  0  0  0  0  0
    0.7999  -11.1612    1.4862 C   0  0  0  0  0  0  0  0  0  0  0  0
    1.2495  -15.1748    3.2745 C   0  0  0  0  0  0  0  0  0  0  0  0
    2.0727  -15.9373    2.6639 O   0  0  0  0  0  0  0  0  0  0  0  0
    0.6443  -15.4754    4.2359 O   0  0  0  0  0  0  0  0  0  0  0  0
    0.8763   -9.9921    0.8825 C   0  0  0  0  0  0  0  0  0  0  0  0
   -0.0249   -9.5234    0.0379 C   0  0  0  0  0  0  0  0  0  0  0  0
   -1.2143  -10.1253   -0.3911 C   0  0  0  0  0  0  0  0  0  0  0  0
   -2.0058   -9.6996   -0.8615 C   0  0  0  0  0  0  0  0  0  0  0  0
   -2.0719   -8.5132   -1.5780 C   0  0  0  0  0  0  0  0  0  0  0  0
   -0.7667   -7.6453   -1.3210 C   0  0  0  0  0  0  0  0  0  0  0  0
  1  2  1  0
  1  3  2  0
  3  4  1  0
  2  5  1  0
  4  5  2  0
  3  6  1  0
  6  7  1  0
  9 13  1  0
 13 14  2  0
 13 15  1  0
 12 16  1  0
 16 17  2  3
 17 18  1  0
 18 19  2  3
 19 20  1  0
 20 21  2  0
  7  8  2  0
  8  9  1  0
  9 10  2  0
 10 11  1  0
 11 12  2  0
  7 12  1  0
M  END

$$$$
No_2876-/export/home/yangzhenyu/potential_scad_32_flow//YTHDC2/2024-12-06-03-22-00/
     RDKit          3D

 12 12  0  0  0  0  0  0  0  0999 V2000
    1.1787   -8.0297    3.5154 C   0  0  0  0  0  0  0  0  0  0  0  0
    1.1048   -9.2215    3.2892 C   0  0  0  0  0  0  0  0  0  0  0  0
    1.3627  -10.1721    4.3044 C   0  0  0  0  0  0  0  0  0  0  0  0
    1.0682  -11.5187    4.0618 C   0  0  0  0  0  0  0  0  0  0  0  0
    0.6332  -11.9655    2.9682 C   0  0  0  0  0  0  0  0  0  0  0  0
    0.4776  -11.1308    1.9203 C   0  0  0  0  0  0  0  0  0  0  0  0
    0.7470   -9.8274    2.0368 C   0  0  0  0  0  0  0  0  0  0  0  0
    1.0387   -7.0301    2.5175 C   0  0  0  0  0  0  0  0  0  0  0  0
    1.1486   -5.5562    2.7651 C   0  0  0  0  0  0  0  0  0  0  0  0
    0.4339  -13.5730    2.7982 P   0  0  0  0  0  0  0  0  0  0  0  0
    0.9994  -13.9553    1.3471 O   0  0  0  0  0  0  0  0  0  0  0  0
   -0.9688  -13.9437    2.8825 O   0  0  0  0  0  0  0  0  0  0  0  0
  1  2  1  0
  1  8  2  3
  8  9  1  0
  5 10  1  0
 10 11  2  0
 10 12  2  0
  2  3  2  0
  3  4  1  0
  4  5  2  0
  5  6  1  0
  6  7  2  0
  2  7  1  0
M  END

$$$$
No_2877-/export/home/yangzhenyu/potential_scad_32_flow//YTHDC2/2024-12-06-03-22-00/
     RDKit          3D

 19 19  0  0  0  0  0  0  0  0999 V2000
    1.1787   -8.0297    3.5154 C   0  0  0  0  0  0  0  0  0  0  0  0
    1.1048   -9.2215    3.2892 C   0  0  0  0  0  0  0  0  0  0  0  0
    1.2339   -9.7611    2.0189 C   0  0  0  0  0  0  0  0  0  0  0  0
    1.3583   -9.0036    0.9764 C   0  0  0  0  0  0  0  0  0  0  0  0
    1.7077   -9.6100   -0.3010 C   0  0  0  0  0  0  0  0  0  0  0  0
    1.3637   -7.1087    2.3226 C   0  0  0  0  0  0  0  0  0  0  0  0
    1.4257   -7.6645    1.0231 C   0  0  0  0  0  0  0  0  0  0  0  0
    1.6722  -10.7840   -0.4044 O   0  0  0  0  0  0  0  0  0  0  0  0
    1.4862   -8.9147   -1.4018 N   0  0  0  0  0  0  0  0  0  0  0  0
    1.1522  -10.1801    4.3889 Cl  0  0  0  0  0  0  0  0  0  0  0  0
    1.3100   -5.3728    2.5927 Cl  0  0  0  0  0  0  0  0  0  0  0  0
    1.2543  -11.3159    1.9142 O   0  0  0  0  0  0  0  0  0  0  0  0
    0.0649  -11.8731    1.8176 C   0  0  0  0  0  0  0  0  0  0  0  0
   -1.0136  -11.3663    1.6018 C   0  0  0  0  0  0  0  0  0  0  0  0
    0.1804  -13.3135    1.9204 C   0  0  0  0  0  0  0  0  0  0  0  0
    1.4217  -14.0264    2.1505 C   0  0  0  0  0  0  0  0  0  0  0  0
    1.7417  -14.4719    3.3425 C   0  0  0  0  0  0  0  0  0  0  0  0
    1.2578  -15.8271    3.4425 C   0  0  0  0  0  0  0  0  0  0  0  0
    0.0499  -16.1166    4.1637 O   0  0  0  0  0  0  0  0  0  0  0  0
  4  5  1  0
  5  8  2  0
  5  9  1  0
  2 10  1  0
  6 11  1  0
  3 12  1  0
 12 13  1  0
 13 14  2  0
 13 15  1  0
 15 16  1  0
 16 17  1  0
 17 18  1  0
 18 19  1  0
  1  2  2  0
  2  3  1  0
  3  4  2  0
  4  7  1  0
  6  7  2  0
  1  6  1  0
M  END

$$$$
No_2878-/export/home/yangzhenyu/potential_scad_32_flow//YTHDC2/2024-12-06-03-22-00/
     RDKit          3D

 20 22  0  0  0  0  0  0  0  0999 V2000
    1.1787   -8.0297    3.5154 C   0  0  0  0  0  0  0  0  0  0  0  0
    1.0491   -6.8434    2.9820 C   0  0  0  0  0  0  0  0  0  0  0  0
    0.9905   -9.0774    2.6527 C   0  0  0  0  0  0  0  0  0  0  0  0
    0.9687   -8.6883    1.3634 C   0  0  0  0  0  0  0  0  0  0  0  0
    1.0948   -6.3768    1.7686 C   0  0  0  0  0  0  0  0  0  0  0  0
    0.9504   -7.3975    0.8471 C   0  0  0  0  0  0  0  0  0  0  0  0
    1.0365  -10.4249    2.9992 C   0  0  0  0  0  0  0  0  0  0  0  0
    2.1481  -10.9990    3.3342 C   0  0  0  0  0  0  0  0  0  0  0  0
    2.0863  -12.0826    4.2301 C   0  0  0  0  0  0  0  0  0  0  0  0
    1.0897  -12.9922    3.6456 C   0  0  0  0  0  0  0  0  0  0  0  0
    0.8147  -12.7775    2.4437 C   0  0  0  0  0  0  0  0  0  0  0  0
    0.3051  -11.4061    2.3020 C   0  0  0  0  0  0  0  0  0  0  0  0
    1.0500   -5.0386    1.2889 C   0  0  0  0  0  0  0  0  0  0  0  0
    1.7579   -4.1420    1.9861 C   0  0  0  0  0  0  0  0  0  0  0  0
    1.6384   -2.7343    1.6679 C   0  0  0  0  0  0  0  0  0  0  0  0
    1.5487   -2.4740    0.2753 C   0  0  0  0  0  0  0  0  0  0  0  0
    1.4113   -1.1013   -0.0427 C   0  0  0  0  0  0  0  0  0  0  0  0
    0.3719   -0.3700    0.4296 C   0  0  0  0  0  0  0  0  0  0  0  0
    0.2645   -0.7435    2.0156 C   0  0  0  0  0  0  0  0  0  0  0  0
    0.7695   -1.9166    2.4318 C   0  0  0  0  0  0  0  0  0  0  0  0
  3  7  1  0
  7  8  1  0
  8  9  1  0
  9 10  1  0
 10 11  1  0
  7 12  1  0
 11 12  1  0
  5 13  1  0
 13 14  2  3
 14 15  1  0
 15 16  2  0
 16 17  1  0
 17 18  2  0
 18 19  1  0
 19 20  2  0
 15 20  1  0
  1  2  2  0
  2  5  1  0
  5  6  2  0
  4  6  1  0
  3  4  2  0
  1  3  1  0
M  END

$$$$
No_2879-/export/home/yangzhenyu/potential_scad_32_flow//YTHDC2/2024-12-06-03-22-00/
     RDKit          3D

 18 18  0  0  1  0  0  0  0  0999 V2000
    1.1787   -8.0297    3.5154 C   0  0  0  0  0  0  0  0  0  0  0  0
    1.1048   -9.2215    3.2892 C   0  0  0  0  0  0  0  0  0  0  0  0
    1.3627  -10.1721    4.3044 C   0  0  0  0  0  0  0  0  0  0  0  0
    1.0682  -11.5187    4.0618 C   0  0  0  0  0  0  0  0  0  0  0  0
    0.6332  -11.9655    2.9682 C   0  0  0  0  0  0  0  0  0  0  0  0
    0.4776  -11.1308    1.9203 C   0  0  0  0  0  0  0  0  0  0  0  0
    0.7470   -9.8274    2.0368 C   0  0  0  0  0  0  0  0  0  0  0  0
    1.0387   -7.0301    2.5175 O   0  0  0  0  0  0  0  0  0  0  0  0
    0.4220  -13.4291    2.8032 N   0  0  0  0  0  0  0  0  0  0  0  0
    0.9728  -14.1340    1.8696 C   0  0  1  0  0  0  0  0  0  0  0  0
    1.8540  -13.5755    1.0626 C   0  0  0  0  0  0  0  0  0  0  0  0
    1.6111  -15.4454    2.4769 C   0  0  0  0  0  0  0  0  0  0  0  0
    2.6021  -15.8717    2.0576 O   0  0  0  0  0  0  0  0  0  0  0  0
    0.6518  -16.3054    3.0415 O   0  0  0  0  0  0  0  0  0  0  0  0
    0.8200   -9.0352    0.8957 C   0  0  0  0  0  0  0  0  0  0  0  0
   -0.3496   -8.7465    0.2632 C   0  0  0  0  0  0  0  0  0  0  0  0
   -0.3282   -8.2255   -1.1009 C   0  0  0  0  0  0  0  0  0  0  0  0
   -1.3947   -7.9994   -1.6940 O   0  0  0  0  0  0  0  0  0  0  0  0
  1  2  1  0
  1  8  2  0
  5  9  1  0
  9 10  1  0
 10 11  1  1
 10 12  1  0
 12 13  2  0
 12 14  1  0
  7 15  1  0
 15 16  2  3
 16 17  1  0
 17 18  2  0
  2  3  2  0
  3  4  1  0
  4  5  2  0
  5  6  1  0
  6  7  2  0
  2  7  1  0
M  END

$$$$
No_2880-/export/home/yangzhenyu/potential_scad_32_flow//YTHDC2/2024-12-06-03-22-00/
     RDKit          3D

 19 19  0  0  0  0  0  0  0  0999 V2000
    1.1787   -8.0297    3.5154 C   0  0  0  0  0  0  0  0  0  0  0  0
    1.1048   -9.2215    3.2892 C   0  0  0  0  0  0  0  0  0  0  0  0
    1.3627  -10.1721    4.3044 C   0  0  0  0  0  0  0  0  0  0  0  0
    1.7354  -11.4730    3.9023 C   0  0  0  0  0  0  0  0  0  0  0  0
    1.8080  -11.8127    2.7216 C   0  0  0  0  0  0  0  0  0  0  0  0
    1.5854  -11.0021    1.7249 C   0  0  0  0  0  0  0  0  0  0  0  0
    1.3573   -9.7389    1.9287 C   0  0  0  0  0  0  0  0  0  0  0  0
    1.2865   -8.8078    0.9161 C   0  0  0  0  0  0  0  0  0  0  0  0
    1.6845   -9.1638   -0.2896 C   0  0  0  0  0  0  0  0  0  0  0  0
    1.0768   -8.8580   -1.3382 O   0  0  0  0  0  0  0  0  0  0  0  0
    2.9730   -9.5145   -0.5934 O   0  0  0  0  0  0  0  0  0  0  0  0
    2.0763  -13.4611    2.3709 C   0  0  0  0  0  0  0  0  0  0  0  0
    1.8446  -14.2589    3.2685 N   0  0  0  0  0  0  0  0  0  0  0  0
    2.4497  -13.7432    1.2428 O   0  0  0  0  0  0  0  0  0  0  0  0
    1.8603  -15.6187    3.0686 C   0  0  0  0  0  0  0  0  0  0  0  0
    2.8016  -16.1257    2.2902 C   0  0  0  0  0  0  0  0  0  0  0  0
    0.8528  -16.4068    3.6522 C   0  0  0  0  0  0  0  0  0  0  0  0
    2.6738  -17.6385    2.2005 C   0  0  0  0  0  0  0  0  0  0  0  0
    1.8179  -18.3440    2.8181 C   0  0  0  0  0  0  0  0  0  0  0  0
  1  2  1  0
  7  8  1  0
  8  9  1  0
  9 10  1  0
  9 11  2  0
  5 12  1  0
 12 13  1  0
 12 14  2  0
 13 15  1  0
 15 16  1  0
 15 17  1  0
 16 18  2  3
 18 19  1  0
  2  3  2  0
  3  4  1  0
  4  5  2  0
  5  6  1  0
  6  7  2  0
  2  7  1  0
M  END

$$$$
No_2881-/export/home/yangzhenyu/potential_scad_32_flow//YTHDC2/2024-12-06-03-22-00/
     RDKit          3D

 18 18  0  0  1  0  0  0  0  0999 V2000
    1.1787   -8.0297    3.5154 C   0  0  0  0  0  0  0  0  0  0  0  0
    1.1048   -9.2215    3.2892 C   0  0  0  0  0  0  0  0  0  0  0  0
    1.2339   -9.7611    2.0189 C   0  0  0  0  0  0  0  0  0  0  0  0
    1.3583   -9.0036    0.9764 C   0  0  0  0  0  0  0  0  0  0  0  0
    1.5996   -7.6362    1.1311 C   0  0  0  0  0  0  0  0  0  0  0  0
    1.4830   -7.0928    2.3626 C   0  0  0  0  0  0  0  0  0  0  0  0
    1.1008  -11.2372    1.8542 C   0  0  0  0  0  0  0  0  0  0  0  0
    1.9749  -12.0938    2.2342 N   0  0  0  0  0  0  0  0  0  0  0  0
    1.6470  -13.3117    2.5080 C   0  0  0  0  0  0  0  0  0  0  0  0
    2.2420  -14.4140    1.8751 C   0  0  0  0  0  0  0  0  0  0  0  0
    2.0197  -15.7879    2.1939 C   0  0  0  0  0  0  0  0  0  0  0  0
    1.0462  -16.0129    3.1163 C   0  0  2  0  0  0  0  0  0  0  0  0
    0.4004  -14.9468    3.7783 Cl  0  0  0  0  0  0  0  0  0  0  0  0
    0.0937  -11.6667    1.1052 O   0  0  0  0  0  0  0  0  0  0  0  0
    0.8911  -17.4529    3.5395 C   0  0  0  0  0  0  0  0  0  0  0  0
    0.0710  -17.7185    4.5012 C   0  0  0  0  0  0  0  0  0  0  0  0
    1.5744   -5.6655    2.6670 Cl  0  0  0  0  0  0  0  0  0  0  0  0
   -0.1180  -19.0546    4.8739 C   0  0  0  0  0  0  0  0  0  0  0  0
  3  7  1  0
  7  8  1  0
  8  9  1  0
  9 10  1  0
 10 11  2  3
 11 12  1  0
 12 13  1  1
  7 14  2  0
 12 15  1  0
 15 16  2  3
  6 17  1  0
 16 18  1  0
  1  2  2  0
  2  3  1  0
  3  4  2  0
  4  5  1  0
  5  6  2  0
  1  6  1  0
M  END

$$$$
No_2882-/export/home/yangzhenyu/potential_scad_32_flow//YTHDC2/2024-12-06-03-22-00/
     RDKit          3D

 16 16  0  0  0  0  0  0  0  0999 V2000
    1.1787   -8.0297    3.5154 C   0  0  0  0  0  0  0  0  0  0  0  0
    1.1048   -9.2215    3.2892 C   0  0  0  0  0  0  0  0  0  0  0  0
    1.2339   -9.7611    2.0189 C   0  0  0  0  0  0  0  0  0  0  0  0
    1.3583   -9.0036    0.9764 C   0  0  0  0  0  0  0  0  0  0  0  0
    1.5996   -7.6362    1.1311 C   0  0  0  0  0  0  0  0  0  0  0  0
    1.4830   -7.0928    2.3626 C   0  0  0  0  0  0  0  0  0  0  0  0
    1.4898   -5.7274    2.6199 C   0  0  0  0  0  0  0  0  0  0  0  0
    1.1882  -11.3736    1.8424 C   0  0  0  0  0  0  0  0  0  0  0  0
    0.2883  -11.9819    2.0702 C   0  0  0  0  0  0  0  0  0  0  0  0
   -0.9572  -11.5102    2.7181 C   0  0  0  0  0  0  0  0  0  0  0  0
    0.3022  -13.4688    1.8359 C   0  0  0  0  0  0  0  0  0  0  0  0
   -0.6850  -14.0104    1.2283 C   0  0  0  0  0  0  0  0  0  0  0  0
   -0.5243  -15.4184    0.8798 C   0  0  0  0  0  0  0  0  0  0  0  0
    1.6901   -5.1701    3.8566 O   0  0  0  0  0  0  0  0  0  0  0  0
    1.3186   -4.8366    1.6600 O   0  0  0  0  0  0  0  0  0  0  0  0
   -1.1637  -15.8682   -0.1097 C   0  0  0  0  0  0  0  0  0  0  0  0
  6  7  1  0
  3  8  1  0
  8  9  2  3
  9 10  1  0
  9 11  1  0
 11 12  2  3
 12 13  1  0
  7 14  1  0
  7 15  2  0
 13 16  2  0
  1  2  2  0
  2  3  1  0
  3  4  2  0
  4  5  1  0
  5  6  2  0
  1  6  1  0
M  END

$$$$
No_2883-/export/home/yangzhenyu/potential_scad_32_flow//YTHDC2/2024-12-06-03-22-00/
     RDKit          3D

 19 19  0  0  0  0  0  0  0  0999 V2000
    1.1787   -8.0297    3.5154 O   0  0  0  0  0  0  0  0  0  0  0  0
    0.9969   -8.9689    3.0048 C   0  0  0  0  0  0  0  0  0  0  0  0
    1.3055  -10.1056    3.6616 C   0  0  0  0  0  0  0  0  0  0  0  0
    1.1249  -11.3503    3.0941 C   0  0  0  0  0  0  0  0  0  0  0  0
    0.6932  -11.4484    1.8586 C   0  0  0  0  0  0  0  0  0  0  0  0
    0.6922  -10.2137    1.1903 C   0  0  0  0  0  0  0  0  0  0  0  0
    0.8427   -9.0674    1.6628 C   0  0  0  0  0  0  0  0  0  0  0  0
    0.5594   -7.7974    1.0927 C   0  0  0  0  0  0  0  0  0  0  0  0
    1.4854   -6.9275    1.0909 O   0  0  0  0  0  0  0  0  0  0  0  0
   -0.4462   -7.5057    0.3669 O   0  0  0  0  0  0  0  0  0  0  0  0
    1.1993  -12.8212    3.9740 Cl  0  0  0  0  0  0  0  0  0  0  0  0
    0.5421  -12.6303    1.0390 Cl  0  0  0  0  0  0  0  0  0  0  0  0
    0.3635  -10.2980   -0.3111 C   0  0  0  0  0  0  0  0  0  0  0  0
   -1.0756  -10.4167   -0.5703 O   0  0  0  0  0  0  0  0  0  0  0  0
    1.0538   -9.8525   -1.2228 O   0  0  0  0  0  0  0  0  0  0  0  0
    1.6368  -10.1633    5.0731 O   0  0  0  0  0  0  0  0  0  0  0  0
   -1.5054  -10.4501   -1.8903 C   0  0  0  0  0  0  0  0  0  0  0  0
   -2.1542   -9.1878   -2.1514 C   0  0  0  0  0  0  0  0  0  0  0  0
   -2.7545   -9.1046   -3.2862 C   0  0  0  0  0  0  0  0  0  0  0  0
  1  2  1  0
  7  8  1  0
  8  9  1  0
  8 10  2  0
  4 11  1  0
  5 12  1  0
  6 13  1  0
 13 14  1  0
 13 15  2  0
  3 16  1  0
 14 17  1  0
 17 18  1  0
 18 19  1  0
  2  3  2  0
  3  4  1  0
  4  5  2  0
  5  6  1  0
  6  7  2  0
  2  7  1  0
M  END

$$$$
No_2884-/export/home/yangzhenyu/potential_scad_32_flow//YTHDC2/2024-12-06-03-22-00/
     RDKit          3D

 19 20  0  0  1  0  0  0  0  0999 V2000
    1.1787   -8.0297    3.5154 C   0  0  0  0  0  0  0  0  0  0  0  0
    1.1048   -9.2215    3.2892 C   0  0  0  0  0  0  0  0  0  0  0  0
    1.3627  -10.1721    4.3044 C   0  0  0  0  0  0  0  0  0  0  0  0
    1.0682  -11.5187    4.0618 C   0  0  0  0  0  0  0  0  0  0  0  0
    0.6332  -11.9655    2.9682 C   0  0  0  0  0  0  0  0  0  0  0  0
    0.4776  -11.1308    1.9203 C   0  0  0  0  0  0  0  0  0  0  0  0
    0.7470   -9.8274    2.0368 C   0  0  0  0  0  0  0  0  0  0  0  0
    0.5535   -7.1314    2.6861 N   0  0  0  0  0  0  0  0  0  0  0  0
    0.4463   -7.5890    1.3163 C   0  0  0  0  0  0  0  0  0  0  0  0
    0.3167   -8.8396    1.0546 C   0  0  1  0  0  0  0  0  0  0  0  0
    0.0293   -9.1967   -0.1763 C   0  0  0  0  0  0  0  0  0  0  0  0
   -1.3284   -9.6598   -0.4094 O   0  0  0  0  0  0  0  0  0  0  0  0
    0.7778   -9.0035   -1.2532 O   0  0  0  0  0  0  0  0  0  0  0  0
    0.5340  -13.6523    2.6596 C   0  0  0  0  0  0  0  0  0  0  0  0
    0.9757  -14.0557    1.6523 O   0  0  0  0  0  0  0  0  0  0  0  0
    0.0459  -14.3100    3.6056 Cl  0  0  0  0  0  0  0  0  0  0  0  0
    0.3685   -6.5615    0.4874 O   0  0  0  0  0  0  0  0  0  0  0  0
    0.5612   -5.6717    3.0584 C   0  0  0  0  0  0  0  0  0  0  0  0
    1.7859   -4.9245    3.2616 C   0  0  0  0  0  0  0  0  0  0  0  0
  1  2  1  0
  1  8  1  0
  8  9  1  0
  7 10  1  0
  9 10  1  0
 10 11  1  6
 11 12  2  0
 11 13  1  0
  5 14  1  0
 14 15  2  0
 14 16  1  0
  9 17  2  0
  8 18  1  0
 18 19  1  0
  2  3  2  0
  3  4  1  0
  4  5  2  0
  5  6  1  0
  6  7  2  0
  2  7  1  0
M  END

$$$$
No_2885-/export/home/yangzhenyu/potential_scad_32_flow//YTHDC2/2024-12-06-03-22-00/
     RDKit          3D

 20 21  0  0  1  0  0  0  0  0999 V2000
    1.1787   -8.0297    3.5154 C   0  0  0  0  0  0  0  0  0  0  0  0
    1.0491   -6.8434    2.9820 C   0  0  0  0  0  0  0  0  0  0  0  0
    0.9905   -9.0774    2.6527 C   0  0  0  0  0  0  0  0  0  0  0  0
    1.1655  -10.4663    3.1286 C   0  0  2  0  0  0  0  0  0  0  0  0
    1.7409  -10.6480    4.4599 C   0  0  0  0  0  0  0  0  0  0  0  0
    1.0486   -6.3431    1.8833 C   0  0  0  0  0  0  0  0  0  0  0  0
    0.8094   -7.4673    0.8674 C   0  0  0  0  0  0  0  0  0  0  0  0
    0.8523   -8.7792    1.1982 C   0  0  0  0  0  0  0  0  0  0  0  0
    0.9300  -11.4784    2.3258 C   0  0  0  0  0  0  0  0  0  0  0  0
    0.3220  -12.4301    2.5405 C   0  0  0  0  0  0  0  0  0  0  0  0
    0.1512  -13.6447    1.7938 C   0  0  0  0  0  0  0  0  0  0  0  0
   -0.4291  -13.6345    0.7070 C   0  0  0  0  0  0  0  0  0  0  0  0
   -0.8575  -12.3226    0.1201 C   0  0  0  0  0  0  0  0  0  0  0  0
    0.6216   -9.7583    0.3419 C   0  0  0  0  0  0  0  0  0  0  0  0
   -1.2683  -12.3264   -1.2628 C   0  0  0  0  0  0  0  0  0  0  0  0
   -1.4353  -13.3988   -1.9180 C   0  0  0  0  0  0  0  0  0  0  0  0
   -1.0278  -14.6313   -1.3477 C   0  0  0  0  0  0  0  0  0  0  0  0
   -0.5114  -14.7107   -0.0748 C   0  0  0  0  0  0  0  0  0  0  0  0
    0.9338   -5.0933    1.3474 O   0  0  0  0  0  0  0  0  0  0  0  0
   -1.8516  -13.3651   -3.2155 C   0  0  0  0  0  0  0  0  0  0  0  0
  3  4  1  0
  4  5  1  6
  4  9  1  0
  9 10  2  3
 10 11  1  0
  8 14  1  0
  6 19  1  0
 16 20  1  0
 11 12  1  0
 12 13  2  0
 13 15  1  0
 15 16  2  0
 16 17  1  0
 17 18  2  0
 12 18  1  0
  1  2  2  0
  2  6  1  0
  6  7  2  0
  7  8  1  0
  3  8  2  0
  1  3  1  0
M  END

$$$$
No_2886-/export/home/yangzhenyu/potential_scad_32_flow//YTHDC2/2024-12-06-03-22-00/
     RDKit          3D

 19 20  0  0  0  0  0  0  0  0999 V2000
    1.1787   -8.0297    3.5154 C   0  0  0  0  0  0  0  0  0  0  0  0
    1.0491   -6.8434    2.9820 C   0  0  0  0  0  0  0  0  0  0  0  0
    0.9905   -9.0774    2.6527 C   0  0  0  0  0  0  0  0  0  0  0  0
    0.7897   -8.9519    1.3691 C   0  0  0  0  0  0  0  0  0  0  0  0
    0.7018   -7.7198    0.7892 C   0  0  0  0  0  0  0  0  0  0  0  0
    0.8918   -6.5957    1.6117 C   0  0  0  0  0  0  0  0  0  0  0  0
    1.0998  -10.4710    3.2437 C   0  0  0  0  0  0  0  0  0  0  0  0
    0.0472  -11.2546    3.3963 C   0  0  0  0  0  0  0  0  0  0  0  0
    0.1622  -12.5732    3.4140 C   0  0  0  0  0  0  0  0  0  0  0  0
    1.4182  -13.1957    3.4048 C   0  0  0  0  0  0  0  0  0  0  0  0
    2.5550  -12.3947    3.0877 C   0  0  0  0  0  0  0  0  0  0  0  0
    2.4166  -11.0849    2.9699 C   0  0  0  0  0  0  0  0  0  0  0  0
    0.8666   -5.2662    1.1708 C   0  0  0  0  0  0  0  0  0  0  0  0
    1.4169  -14.5629    3.3676 O   0  0  0  0  0  0  0  0  0  0  0  0
   -0.2202   -4.7463    0.7035 N   0  0  0  0  0  0  0  0  0  0  0  0
   -0.2745   -3.4966    0.2649 C   0  0  0  0  0  0  0  0  0  0  0  0
   -0.8262   -3.1444   -0.8946 C   0  0  0  0  0  0  0  0  0  0  0  0
   -0.5689   -1.6755   -1.3054 C   0  0  0  0  0  0  0  0  0  0  0  0
    0.0766   -0.8948   -0.4458 C   0  0  0  0  0  0  0  0  0  0  0  0
  3  7  1  0
  6 13  1  0
 10 14  1  0
 13 15  1  0
 15 16  1  0
 16 17  1  0
 17 18  2  3
 18 19  1  0
  1  2  2  0
  2  6  1  0
  5  6  2  0
  4  5  1  0
  3  4  2  0
  1  3  1  0
  7  8  2  0
  8  9  1  0
  9 10  2  0
 10 11  1  0
 11 12  2  0
  7 12  1  0
M  END

$$$$
No_2887-/export/home/yangzhenyu/potential_scad_32_flow//YTHDC2/2024-12-06-03-22-00/
     RDKit          3D

 17 18  0  0  1  0  0  0  0  0999 V2000
    1.1787   -8.0297    3.5154 C   0  0  0  0  0  0  0  0  0  0  0  0
    1.0491   -6.8434    2.9820 C   0  0  0  0  0  0  0  0  0  0  0  0
    0.0950   -8.8404    3.2292 C   0  0  0  0  0  0  0  0  0  0  0  0
   -0.9173   -8.4596    2.5152 C   0  0  0  0  0  0  0  0  0  0  0  0
   -1.0331   -7.2162    2.0653 C   0  0  0  0  0  0  0  0  0  0  0  0
   -0.0105   -6.3168    2.3081 C   0  0  0  0  0  0  0  0  0  0  0  0
    0.1465  -10.2446    3.6981 C   0  0  0  0  0  0  0  0  0  0  0  0
    0.1907  -11.3369    2.8651 C   0  0  1  0  0  0  0  0  0  0  0  0
   -0.2018  -11.4456    1.8156 C   0  0  0  0  0  0  0  0  0  0  0  0
    0.5237  -11.2094    0.7371 C   0  0  0  0  0  0  0  0  0  0  0  0
    1.8413  -11.2366    0.7926 C   0  0  0  0  0  0  0  0  0  0  0  0
    2.4901  -11.4840    1.9578 C   0  0  0  0  0  0  0  0  0  0  0  0
    1.6844  -11.5016    3.1453 C   0  0  0  0  0  0  0  0  0  0  0  0
    0.0446   -4.9734    1.8125 Cl  0  0  0  0  0  0  0  0  0  0  0  0
   -0.4085  -10.3724    4.9791 O   0  0  0  0  0  0  0  0  0  0  0  0
    0.0029  -10.8547   -0.5093 O   0  0  0  0  0  0  0  0  0  0  0  0
    2.1759  -11.9446    4.2643 O   0  0  0  0  0  0  0  0  0  0  0  0
  3  7  1  0
  8  7  1  6
  8  9  1  0
  9 10  1  0
 10 11  1  0
 11 12  1  0
  8 13  1  0
 12 13  1  0
  6 14  1  0
  7 15  2  0
 10 16  2  0
 13 17  2  0
  1  2  2  0
  2  6  1  0
  5  6  2  0
  4  5  1  0
  3  4  2  0
  1  3  1  0
M  END

$$$$
No_2888-/export/home/yangzhenyu/potential_scad_32_flow//YTHDC2/2024-12-06-03-22-00/
     RDKit          3D

 18 19  0  0  1  0  0  0  0  0999 V2000
    1.1787   -8.0297    3.5154 N   0  0  0  0  0  0  0  0  0  0  0  0
    1.0818   -9.0751    3.2053 C   0  0  0  0  0  0  0  0  0  0  0  0
    0.7576   -9.3725    1.9159 C   0  0  0  0  0  0  0  0  0  0  0  0
    0.8823   -8.4917    1.0547 C   0  0  0  0  0  0  0  0  0  0  0  0
    1.4631   -7.3107    1.2451 C   0  0  0  0  0  0  0  0  0  0  0  0
    1.6470   -6.9326    2.5669 C   0  0  0  0  0  0  0  0  0  0  0  0
    0.8237  -10.1305    4.2407 C   0  0  1  0  0  0  0  0  0  0  0  0
   -0.4178  -10.6899    4.4426 C   0  0  0  0  0  0  0  0  0  0  0  0
    1.9668  -10.7581    4.7665 C   0  0  0  0  0  0  0  0  0  0  0  0
    3.1824  -10.5853    4.2568 O   0  0  0  0  0  0  0  0  0  0  0  0
    0.8367   -8.8611   -0.3981 Cl  0  0  0  0  0  0  0  0  0  0  0  0
   -1.5061   -9.7724    4.6037 C   0  0  0  0  0  0  0  0  0  0  0  0
   -2.8054  -10.2622    4.4961 C   0  0  0  0  0  0  0  0  0  0  0  0
   -3.9192   -9.4834    4.9030 C   0  0  0  0  0  0  0  0  0  0  0  0
   -3.6721   -8.1497    5.1986 C   0  0  0  0  0  0  0  0  0  0  0  0
   -2.4321   -7.5705    5.2152 C   0  0  0  0  0  0  0  0  0  0  0  0
   -1.3145   -8.4714    4.8942 C   0  0  0  0  0  0  0  0  0  0  0  0
    1.9283  -11.5583    5.7629 Cl  0  0  0  0  0  0  0  0  0  0  0  0
  2  7  1  0
  7  8  1  6
  7  9  1  0
  9 10  2  0
  4 11  1  0
  8 12  1  0
  9 18  1  0
 12 13  2  0
 13 14  1  0
 14 15  2  0
 15 16  1  0
 16 17  2  0
 12 17  1  0
  1  2  2  0
  2  3  1  0
  3  4  2  0
  4  5  1  0
  5  6  2  0
  1  6  1  0
M  END

$$$$
No_2889-/export/home/yangzhenyu/potential_scad_32_flow//YTHDC2/2024-12-06-03-22-00/
     RDKit          3D

 19 20  0  0  0  0  0  0  0  0999 V2000
    1.1787   -8.0297    3.5154 C   0  0  0  0  0  0  0  0  0  0  0  0
    1.0491   -6.8434    2.9820 C   0  0  0  0  0  0  0  0  0  0  0  0
    0.0950   -8.8404    3.2292 C   0  0  0  0  0  0  0  0  0  0  0  0
    0.0602  -10.1764    3.8231 C   0  0  0  0  0  0  0  0  0  0  0  0
    0.2248   -6.3830    2.0648 C   0  0  0  0  0  0  0  0  0  0  0  0
   -0.6745   -7.2322    1.6857 C   0  0  0  0  0  0  0  0  0  0  0  0
   -0.7374   -8.4992    2.1291 C   0  0  0  0  0  0  0  0  0  0  0  0
   -0.1792  -11.3045    3.0702 C   0  0  0  0  0  0  0  0  0  0  0  0
    0.7825  -12.3781    3.1611 C   0  0  0  0  0  0  0  0  0  0  0  0
    0.5397  -13.5313    2.5466 C   0  0  0  0  0  0  0  0  0  0  0  0
   -0.5883  -13.8064    2.0237 C   0  0  0  0  0  0  0  0  0  0  0  0
   -1.5542  -12.9065    1.9450 C   0  0  0  0  0  0  0  0  0  0  0  0
   -1.3853  -11.6218    2.5380 C   0  0  0  0  0  0  0  0  0  0  0  0
    0.4373   -5.0560    1.4914 C   0  0  0  0  0  0  0  0  0  0  0  0
    1.6182  -14.4962    2.5818 C   0  0  0  0  0  0  0  0  0  0  0  0
    1.2572   -4.2106    2.0086 C   0  0  0  0  0  0  0  0  0  0  0  0
    2.7606  -14.3203    1.9463 C   0  0  0  0  0  0  0  0  0  0  0  0
    1.3418   -2.8444    1.5527 C   0  0  0  0  0  0  0  0  0  0  0  0
   -1.8003   -6.9309    0.9261 C   0  0  0  0  0  0  0  0  0  0  0  0
  3  4  1  0
  4  8  1  0
  5 14  1  0
 10 15  1  0
 14 16  2  3
 15 17  1  0
 16 18  1  0
  6 19  1  0
  8  9  2  0
  9 10  1  0
 10 11  2  0
 11 12  1  0
 12 13  2  0
  8 13  1  0
  1  2  2  0
  2  5  1  0
  5  6  2  0
  6  7  1  0
  3  7  2  0
  1  3  1  0
M  END

$$$$
No_2890-/export/home/yangzhenyu/potential_scad_32_flow//YTHDC2/2024-12-06-03-22-00/
     RDKit          3D

 18 19  0  0  0  0  0  0  0  0999 V2000
    1.1787   -8.0297    3.5154 C   0  0  0  0  0  0  0  0  0  0  0  0
    1.1048   -9.2215    3.2892 C   0  0  0  0  0  0  0  0  0  0  0  0
    1.2339   -9.7611    2.0189 C   0  0  0  0  0  0  0  0  0  0  0  0
    1.3583   -9.0036    0.9764 C   0  0  0  0  0  0  0  0  0  0  0  0
    1.5996   -7.6362    1.1311 C   0  0  0  0  0  0  0  0  0  0  0  0
    1.4830   -7.0928    2.3626 C   0  0  0  0  0  0  0  0  0  0  0  0
    1.4898   -5.7274    2.6199 C   0  0  0  0  0  0  0  0  0  0  0  0
    1.1882  -11.3736    1.8424 C   0  0  0  0  0  0  0  0  0  0  0  0
    1.7911  -12.1283    2.5447 C   0  0  0  0  0  0  0  0  0  0  0  0
    1.6644  -13.4813    2.2354 C   0  0  0  0  0  0  0  0  0  0  0  0
    0.9132  -13.8750    1.1189 C   0  0  0  0  0  0  0  0  0  0  0  0
    0.2965  -12.8531    0.3493 C   0  0  0  0  0  0  0  0  0  0  0  0
    0.4746  -11.5251    0.6707 C   0  0  0  0  0  0  0  0  0  0  0  0
    2.2403  -14.4766    3.0170 Br  0  0  0  0  0  0  0  0  0  0  0  0
    0.6672   -4.9904    2.7179 C   0  0  0  0  0  0  0  0  0  0  0  0
    0.4152   -3.9435    2.5707 P   0  0  0  0  0  0  0  0  0  0  0  0
    0.9702   -3.0385    2.6988 O   0  0  0  0  0  0  0  0  0  0  0  0
   -0.1675   -3.6377    1.0512 O   0  0  0  0  0  0  0  0  0  0  0  0
  6  7  1  0
  3  8  1  0
 10 14  1  0
  7 15  2  3
 15 16  1  0
 16 17  2  0
 16 18  2  0
  1  2  2  0
  2  3  1  0
  3  4  2  0
  4  5  1  0
  5  6  2  0
  1  6  1  0
  8  9  2  0
  9 10  1  0
 10 11  2  0
 11 12  1  0
 12 13  2  0
  8 13  1  0
M  END

$$$$
No_2891-/export/home/yangzhenyu/potential_scad_32_flow//YTHDC2/2024-12-06-03-22-00/
     RDKit          3D

 18 18  0  0  0  0  0  0  0  0999 V2000
    1.1787   -8.0297    3.5154 C   0  0  0  0  0  0  0  0  0  0  0  0
    1.0491   -6.8434    2.9820 C   0  0  0  0  0  0  0  0  0  0  0  0
    1.9985   -8.9840    2.8958 C   0  0  0  0  0  0  0  0  0  0  0  0
    1.9135  -10.3404    3.6266 C   0  0  0  0  0  0  0  0  0  0  0  0
    1.3291  -11.3908    3.0222 C   0  0  0  0  0  0  0  0  0  0  0  0
    1.2749  -12.5326    3.7562 C   0  0  0  0  0  0  0  0  0  0  0  0
    1.2373   -6.5190    1.7857 C   0  0  0  0  0  0  0  0  0  0  0  0
    0.2323   -6.5712    1.0214 C   0  0  0  0  0  0  0  0  0  0  0  0
    1.0761  -13.6666    3.1429 C   0  0  0  0  0  0  0  0  0  0  0  0
    1.0434  -13.6953    1.7237 C   0  0  0  0  0  0  0  0  0  0  0  0
    1.2976  -12.5893    0.9459 C   0  0  0  0  0  0  0  0  0  0  0  0
    1.4218  -11.3935    1.6225 C   0  0  0  0  0  0  0  0  0  0  0  0
   -0.1632   -7.7242    0.4296 C   0  0  0  0  0  0  0  0  0  0  0  0
    0.7249   -8.4083   -0.3255 C   0  0  0  0  0  0  0  0  0  0  0  0
    0.1852   -9.6632   -0.8921 O   0  0  0  0  0  0  0  0  0  0  0  0
    2.0378   -8.5561   -0.3215 O   0  0  0  0  0  0  0  0  0  0  0  0
    1.0328  -15.0304    1.1485 C   0  0  0  0  0  0  0  0  0  0  0  0
    0.2556  -15.7886    1.3628 C   0  0  0  0  0  0  0  0  0  0  0  0
  1  2  1  0
  1  3  1  0
  3  4  1  0
  4  5  1  0
  2  7  1  0
  7  8  1  0
  8 13  1  0
 13 14  1  0
 14 15  2  0
 14 16  1  0
 10 17  1  0
 17 18  2  0
  5  6  2  0
  6  9  1  0
  9 10  2  0
 10 11  1  0
 11 12  2  0
  5 12  1  0
M  END

$$$$
No_2892-/export/home/yangzhenyu/potential_scad_32_flow//YTHDC2/2024-12-06-03-22-00/
     RDKit          3D

 21 22  0  0  0  0  0  0  0  0999 V2000
    1.1787   -8.0297    3.5154 C   0  0  0  0  0  0  0  0  0  0  0  0
    1.0491   -6.8434    2.9820 C   0  0  0  0  0  0  0  0  0  0  0  0
    0.9905   -9.0774    2.6527 C   0  0  0  0  0  0  0  0  0  0  0  0
    0.7897   -8.9519    1.3691 C   0  0  0  0  0  0  0  0  0  0  0  0
    0.7018   -7.7198    0.7892 C   0  0  0  0  0  0  0  0  0  0  0  0
    0.8918   -6.5957    1.6117 C   0  0  0  0  0  0  0  0  0  0  0  0
    1.0600  -10.5680    3.3321 C   0  0  0  0  0  0  0  0  0  0  0  0
    1.1634  -11.6086    2.5010 C   0  0  0  0  0  0  0  0  0  0  0  0
    1.3344  -12.8974    3.1596 C   0  0  0  0  0  0  0  0  0  0  0  0
    1.1071  -14.0522    2.4564 C   0  0  0  0  0  0  0  0  0  0  0  0
    0.1583  -14.3093    1.7064 C   0  0  0  0  0  0  0  0  0  0  0  0
   -0.1601  -13.0775    0.9243 C   0  0  0  0  0  0  0  0  0  0  0  0
    0.2054  -11.8497    1.3456 C   0  0  0  0  0  0  0  0  0  0  0  0
    0.8342   -5.2892    1.1711 C   0  0  0  0  0  0  0  0  0  0  0  0
    1.5802  -15.3878    3.3775 Br  0  0  0  0  0  0  0  0  0  0  0  0
   -0.2294   -4.8387    0.6557 O   0  0  0  0  0  0  0  0  0  0  0  0
    1.8010   -4.4480    1.3873 O   0  0  0  0  0  0  0  0  0  0  0  0
   -0.9444  -13.1326   -0.2465 C   0  0  0  0  0  0  0  0  0  0  0  0
   -1.1168  -14.3826   -0.8527 C   0  0  0  0  0  0  0  0  0  0  0  0
   -1.8603  -14.5373   -1.9790 C   0  0  0  0  0  0  0  0  0  0  0  0
   -1.7630  -15.7937   -2.5808 C   0  0  0  0  0  0  0  0  0  0  0  0
  3  7  1  0
  6 14  1  0
 10 15  1  0
 14 16  2  0
 14 17  1  0
 12 18  1  0
 18 19  2  3
 19 20  1  0
 20 21  2  0
  7  8  1  0
  1  2  2  0
  2  6  1  0
  5  6  2  0
  4  5  1  0
  3  4  2  0
  1  3  1  0
  8  9  2  0
  9 10  1  0
 10 11  2  0
 11 12  1  0
 12 13  2  0
  8 13  1  0
M  END

$$$$
No_2893-/export/home/yangzhenyu/potential_scad_32_flow//YTHDC2/2024-12-06-03-22-00/
     RDKit          3D

 18 18  0  0  0  0  0  0  0  0999 V2000
    1.1787   -8.0297    3.5154 C   0  0  0  0  0  0  0  0  0  0  0  0
    1.1048   -9.2215    3.2892 C   0  0  0  0  0  0  0  0  0  0  0  0
    1.2339   -9.7611    2.0189 C   0  0  0  0  0  0  0  0  0  0  0  0
    1.3583   -9.0036    0.9764 C   0  0  0  0  0  0  0  0  0  0  0  0
    1.5996   -7.6362    1.1311 C   0  0  0  0  0  0  0  0  0  0  0  0
    1.4830   -7.0928    2.3626 C   0  0  0  0  0  0  0  0  0  0  0  0
    1.1008  -11.2372    1.8542 C   0  0  0  0  0  0  0  0  0  0  0  0
    0.5178  -11.9759    2.3445 N   0  0  0  0  0  0  0  0  0  0  0  0
    0.7563  -13.1680    2.5994 C   0  0  0  0  0  0  0  0  0  0  0  0
   -0.1002  -14.2937    2.3949 N   0  0  0  0  0  0  0  0  0  0  0  0
    2.0496  -13.5125    3.0539 O   0  0  0  0  0  0  0  0  0  0  0  0
    1.5653   -5.6429    2.6465 C   0  0  0  0  0  0  0  0  0  0  0  0
    1.7460   -5.1460    3.7780 N   0  0  0  0  0  0  0  0  0  0  0  0
    1.6551   -4.8368    1.4951 O   0  0  0  0  0  0  0  0  0  0  0  0
    0.2059  -15.5225    2.7623 C   0  0  0  0  0  0  0  0  0  0  0  0
    0.9557  -16.3302    2.0154 C   0  0  0  0  0  0  0  0  0  0  0  0
    1.4978  -17.6141    2.6595 C   0  0  0  0  0  0  0  0  0  0  0  0
    1.0265  -17.9987    3.7751 C   0  0  0  0  0  0  0  0  0  0  0  0
  3  7  1  0
  7  8  1  0
  8  9  1  0
  9 10  1  0
  9 11  2  0
  6 12  1  0
 12 13  1  0
 12 14  2  0
 10 15  1  0
 15 16  1  0
 16 17  2  3
 17 18  1  0
  1  2  2  0
  2  3  1  0
  3  4  2  0
  4  5  1  0
  5  6  2  0
  1  6  1  0
M  END

$$$$
No_2894-/export/home/yangzhenyu/potential_scad_32_flow//YTHDC2/2024-12-06-03-22-00/
     RDKit          3D

 19 19  0  0  0  0  0  0  0  0999 V2000
    1.1787   -8.0297    3.5154 C   0  0  0  0  0  0  0  0  0  0  0  0
    1.0491   -6.8434    2.9820 C   0  0  0  0  0  0  0  0  0  0  0  0
    0.9905   -9.0774    2.6527 C   0  0  0  0  0  0  0  0  0  0  0  0
    0.7897   -8.9519    1.3691 C   0  0  0  0  0  0  0  0  0  0  0  0
    0.7018   -7.7198    0.7892 C   0  0  0  0  0  0  0  0  0  0  0  0
    0.8918   -6.5957    1.6117 C   0  0  0  0  0  0  0  0  0  0  0  0
    1.0998  -10.4710    3.2437 N   0  0  0  0  0  0  0  0  0  0  0  0
    0.1151  -11.2860    3.4053 C   0  0  0  0  0  0  0  0  0  0  0  0
    0.4840  -12.6164    3.5551 C   0  0  0  0  0  0  0  0  0  0  0  0
   -0.1465  -13.4896    2.6908 C   0  0  0  0  0  0  0  0  0  0  0  0
    0.2033  -14.9291    2.8109 C   0  0  0  0  0  0  0  0  0  0  0  0
    1.5605  -15.3056    3.3434 C   0  0  0  0  0  0  0  0  0  0  0  0
    2.5891  -14.6630    2.7681 C   0  0  0  0  0  0  0  0  0  0  0  0
    0.8628   -5.2777    1.2132 C   0  0  0  0  0  0  0  0  0  0  0  0
   -1.0887  -10.8519    3.9066 O   0  0  0  0  0  0  0  0  0  0  0  0
   -0.2068   -4.7589    0.7423 O   0  0  0  0  0  0  0  0  0  0  0  0
    1.8522   -4.4694    1.3946 O   0  0  0  0  0  0  0  0  0  0  0  0
    2.6543  -15.0032    1.2904 C   0  0  0  0  0  0  0  0  0  0  0  0
    2.9107  -13.8313    0.5740 C   0  0  0  0  0  0  0  0  0  0  0  0
  3  7  1  0
  7  8  1  0
  8  9  1  0
  9 10  2  3
 10 11  1  0
 11 12  1  0
 12 13  1  0
  6 14  1  0
  8 15  2  0
 14 16  2  0
 14 17  1  0
 13 18  1  0
 18 19  1  0
  1  2  2  0
  2  6  1  0
  5  6  2  0
  4  5  1  0
  3  4  2  0
  1  3  1  0
M  END

$$$$
No_2895-/export/home/yangzhenyu/potential_scad_32_flow//YTHDC2/2024-12-06-03-22-00/
     RDKit          3D

 18 19  0  0  1  0  0  0  0  0999 V2000
    1.1787   -8.0297    3.5154 C   0  0  0  0  0  0  0  0  0  0  0  0
    1.0491   -6.8434    2.9820 C   0  0  0  0  0  0  0  0  0  0  0  0
    0.9905   -9.0774    2.6527 C   0  0  0  0  0  0  0  0  0  0  0  0
    0.7897   -8.9519    1.3691 C   0  0  0  0  0  0  0  0  0  0  0  0
    0.7018   -7.7198    0.7892 C   0  0  0  0  0  0  0  0  0  0  0  0
    0.8918   -6.5957    1.6117 C   0  0  0  0  0  0  0  0  0  0  0  0
    1.0600  -10.5680    3.3321 C   0  0  2  0  0  0  0  0  0  0  0  0
    2.1422  -11.0089    3.6867 C   0  0  0  0  0  0  0  0  0  0  0  0
    0.8986   -5.2530    1.1685 O   0  0  0  0  0  0  0  0  0  0  0  0
    0.3651  -11.5290    2.4693 C   0  0  0  0  0  0  0  0  0  0  0  0
    1.0511  -12.4440    1.9489 C   0  0  0  0  0  0  0  0  0  0  0  0
    1.0702  -13.6619    2.4791 C   0  0  0  0  0  0  0  0  0  0  0  0
   -0.0219  -14.2753    2.6505 C   0  0  0  0  0  0  0  0  0  0  0  0
    0.1114  -15.6457    3.3860 C   0  0  0  0  0  0  0  0  0  0  0  0
    1.4148  -16.2094    3.5865 C   0  0  0  0  0  0  0  0  0  0  0  0
    2.4907  -15.5716    3.1576 C   0  0  0  0  0  0  0  0  0  0  0  0
    2.4283  -14.3417    2.5498 C   0  0  0  0  0  0  0  0  0  0  0  0
    1.4591  -17.5238    4.1529 Br  0  0  0  0  0  0  0  0  0  0  0  0
  1  2  1  0
  3  4  1  0
  2  6  1  0
  5  6  1  0
  3  7  1  0
  7  8  1  6
  6  9  2  0
  7 10  1  0
 10 11  1  0
 11 12  1  0
 15 18  1  0
  1  3  1  0
  4  5  1  0
 12 13  2  0
 13 14  1  0
 14 15  2  0
 15 16  1  0
 16 17  2  0
 12 17  1  0
M  END

$$$$
No_2896-/export/home/yangzhenyu/potential_scad_32_flow//YTHDC2/2024-12-06-03-22-00/
     RDKit          3D

 19 20  0  0  0  0  0  0  0  0999 V2000
    1.1787   -8.0297    3.5154 C   0  0  0  0  0  0  0  0  0  0  0  0
    1.0491   -6.8434    2.9820 C   0  0  0  0  0  0  0  0  0  0  0  0
    0.0950   -8.8404    3.2292 C   0  0  0  0  0  0  0  0  0  0  0  0
   -0.9173   -8.4596    2.5152 C   0  0  0  0  0  0  0  0  0  0  0  0
   -1.0331   -7.2162    2.0653 C   0  0  0  0  0  0  0  0  0  0  0  0
   -0.0105   -6.3168    2.3081 C   0  0  0  0  0  0  0  0  0  0  0  0
    0.1465  -10.2446    3.6981 O   0  0  0  0  0  0  0  0  0  0  0  0
    0.0362   -4.9528    1.9186 C   0  0  0  0  0  0  0  0  0  0  0  0
   -0.5014   -4.6491    0.7648 C   0  0  0  0  0  0  0  0  0  0  0  0
   -0.5558   -3.2979    0.3620 C   0  0  0  0  0  0  0  0  0  0  0  0
    0.2549   -2.3359    1.0115 C   0  0  0  0  0  0  0  0  0  0  0  0
    1.0672   -2.7140    2.0330 C   0  0  0  0  0  0  0  0  0  0  0  0
    0.9414   -4.0253    2.5394 C   0  0  0  0  0  0  0  0  0  0  0  0
    1.2527  -10.9185    3.9935 C   0  0  0  0  0  0  0  0  0  0  0  0
    1.0514  -12.3166    3.7155 C   0  0  0  0  0  0  0  0  0  0  0  0
    1.9552  -13.0792    3.3934 C   0  0  0  0  0  0  0  0  0  0  0  0
    1.8061  -14.0256    2.3057 F   0  0  0  0  0  0  0  0  0  0  0  0
   -1.2131   -2.8599   -0.8389 O   0  0  0  0  0  0  0  0  0  0  0  0
   -1.9786   -3.7635   -1.4414 C   0  0  0  0  0  0  0  0  0  0  0  0
  3  7  1  0
  6  8  1  0
  7 14  1  0
 14 15  1  0
 15 16  1  0
 16 17  1  0
 10 18  1  0
 18 19  1  0
  1  2  2  0
  2  6  1  0
  5  6  2  0
  4  5  1  0
  3  4  2  0
  1  3  1  0
  8  9  2  0
  9 10  1  0
 10 11  2  0
 11 12  1  0
 12 13  2  0
  8 13  1  0
M  END

$$$$
No_2897-/export/home/yangzhenyu/potential_scad_32_flow//YTHDC2/2024-12-06-03-22-00/
     RDKit          3D

 18 20  0  0  0  0  0  0  0  0999 V2000
    1.1787   -8.0297    3.5154 C   0  0  0  0  0  0  0  0  0  0  0  0
    1.1048   -9.2215    3.2892 C   0  0  0  0  0  0  0  0  0  0  0  0
    1.3627  -10.1721    4.3044 C   0  0  0  0  0  0  0  0  0  0  0  0
    1.0682  -11.5187    4.0618 C   0  0  0  0  0  0  0  0  0  0  0  0
    0.6332  -11.9655    2.9682 C   0  0  0  0  0  0  0  0  0  0  0  0
    0.4776  -11.1308    1.9203 C   0  0  0  0  0  0  0  0  0  0  0  0
    0.7470   -9.8274    2.0368 C   0  0  0  0  0  0  0  0  0  0  0  0
    1.0387   -7.0301    2.5175 C   0  0  0  0  0  0  0  0  0  0  0  0
    0.9130   -7.5288    1.2013 C   0  0  0  0  0  0  0  0  0  0  0  0
    0.7893   -8.7979    0.9542 C   0  0  0  0  0  0  0  0  0  0  0  0
    0.3998  -13.3695    2.7114 C   0  0  0  0  0  0  0  0  0  0  0  0
    0.8304  -14.0169    1.7689 C   0  0  0  0  0  0  0  0  0  0  0  0
    0.1531  -14.6021    0.9749 C   0  0  0  0  0  0  0  0  0  0  0  0
   -1.1768  -14.9230    1.1293 C   0  0  0  0  0  0  0  0  0  0  0  0
   -1.6565  -14.3800    2.4277 C   0  0  0  0  0  0  0  0  0  0  0  0
   -0.8204  -13.6631    3.1639 C   0  0  0  0  0  0  0  0  0  0  0  0
    0.4677   -9.2914   -0.3579 C   0  0  0  0  0  0  0  0  0  0  0  0
   -0.8007   -9.7002   -0.6430 O   0  0  0  0  0  0  0  0  0  0  0  0
  5 11  1  0
 10 17  1  0
 17 18  2  0
 11 12  2  0
 12 13  1  0
 13 14  2  0
 14 15  1  0
 15 16  2  0
 11 16  1  0
  2  3  1  0
  3  4  2  0
  4  5  1  0
  5  6  2  0
  6  7  1  0
  1  2  2  0
  2  7  1  0
  7 10  2  0
  9 10  1  0
  8  9  2  0
  1  8  1  0
M  END

$$$$
No_2898-/export/home/yangzhenyu/potential_scad_32_flow//YTHDC2/2024-12-06-03-22-00/
     RDKit          3D

 19 19  0  0  1  0  0  0  0  0999 V2000
    1.1787   -8.0297    3.5154 C   0  0  0  0  0  0  0  0  0  0  0  0
    1.1048   -9.2215    3.2892 C   0  0  0  0  0  0  0  0  0  0  0  0
    1.2339   -9.7611    2.0189 C   0  0  0  0  0  0  0  0  0  0  0  0
    1.3583   -9.0036    0.9764 C   0  0  0  0  0  0  0  0  0  0  0  0
    1.5996   -7.6362    1.1311 C   0  0  0  0  0  0  0  0  0  0  0  0
    1.4830   -7.0928    2.3626 C   0  0  0  0  0  0  0  0  0  0  0  0
    1.4898   -5.7274    2.6199 C   0  0  0  0  0  0  0  0  0  0  0  0
    1.1681  -11.2222    1.8390 C   0  0  0  0  0  0  0  0  0  0  0  0
    0.7145  -11.5870    0.5424 O   0  0  0  0  0  0  0  0  0  0  0  0
    1.6537  -12.0580    2.6183 N   0  0  0  0  0  0  0  0  0  0  0  0
    1.6651  -13.4392    2.3517 C   0  0  2  0  0  0  0  0  0  0  0  0
    2.7106  -14.1509    1.7548 C   0  0  0  0  0  0  0  0  0  0  0  0
    0.4572  -14.0711    2.5392 C   0  0  0  0  0  0  0  0  0  0  0  0
    0.4882  -15.5104    2.4801 C   0  0  0  0  0  0  0  0  0  0  0  0
   -0.6558  -16.2967    2.9281 C   0  0  0  0  0  0  0  0  0  0  0  0
   -0.5448  -17.1736    3.9506 C   0  0  0  0  0  0  0  0  0  0  0  0
    0.8170  -17.2930    4.6853 C   0  0  0  0  0  0  0  0  0  0  0  0
    1.2416   -4.8547    1.6240 N   0  0  0  0  0  0  0  0  0  0  0  0
    1.4117   -5.2193    3.8865 O   0  0  0  0  0  0  0  0  0  0  0  0
  6  7  1  0
  3  8  1  0
  8  9  2  0
  8 10  1  0
 10 11  1  0
 11 12  1  6
 11 13  1  0
 13 14  2  3
 14 15  1  0
 15 16  2  3
 16 17  1  0
  7 18  1  0
  7 19  2  0
  1  2  2  0
  2  3  1  0
  3  4  2  0
  4  5  1  0
  5  6  2  0
  1  6  1  0
M  END

$$$$
No_2899-/export/home/yangzhenyu/potential_scad_32_flow//YTHDC2/2024-12-06-03-22-00/
     RDKit          3D

 18 19  0  0  0  0  0  0  0  0999 V2000
    1.1787   -8.0297    3.5154 C   0  0  0  0  0  0  0  0  0  0  0  0
    1.0491   -6.8434    2.9820 C   0  0  0  0  0  0  0  0  0  0  0  0
    0.0950   -8.8404    3.2292 C   0  0  0  0  0  0  0  0  0  0  0  0
   -0.9173   -8.4596    2.5152 C   0  0  0  0  0  0  0  0  0  0  0  0
   -1.0331   -7.2162    2.0653 C   0  0  0  0  0  0  0  0  0  0  0  0
   -0.0105   -6.3168    2.3081 C   0  0  0  0  0  0  0  0  0  0  0  0
    0.1465  -10.2446    3.6981 C   0  0  0  0  0  0  0  0  0  0  0  0
    1.2433  -10.8239    4.0166 C   0  0  0  0  0  0  0  0  0  0  0  0
    1.0790  -12.2885    4.3779 C   0  0  0  0  0  0  0  0  0  0  0  0
    0.8834  -12.9822    3.2583 C   0  0  0  0  0  0  0  0  0  0  0  0
    0.0265  -12.5445    2.3035 C   0  0  0  0  0  0  0  0  0  0  0  0
   -0.3056  -11.1111    2.4912 C   0  0  0  0  0  0  0  0  0  0  0  0
    1.1339  -14.6286    3.2945 O   0  0  0  0  0  0  0  0  0  0  0  0
    0.7031  -15.3459    2.5292 C   0  0  0  0  0  0  0  0  0  0  0  0
   -0.1105   -4.9964    1.8738 C   0  0  0  0  0  0  0  0  0  0  0  0
   -0.7491   -4.1461    2.2769 C   0  0  0  0  0  0  0  0  0  0  0  0
   -0.7560   -3.0636    2.1327 C   0  0  0  0  0  0  0  0  0  0  0  0
    0.4253   -2.5623    1.4623 C   0  0  0  0  0  0  0  0  0  0  0  0
  3  7  1  0
 10 13  1  0
 13 14  1  0
  6 15  1  0
 15 16  1  0
 16 17  2  3
 17 18  1  0
  1  2  2  0
  2  6  1  0
  5  6  2  0
  4  5  1  0
  3  4  2  0
  1  3  1  0
  7  8  2  0
  8  9  1  0
  9 10  2  0
 10 11  1  0
 11 12  2  0
  7 12  1  0
M  END

$$$$
No_2900-/export/home/yangzhenyu/potential_scad_32_flow//YTHDC2/2024-12-06-03-22-00/
     RDKit          3D

 19 20  0  0  0  0  0  0  0  0999 V2000
    1.1787   -8.0297    3.5154 N   0  0  0  0  0  0  0  0  0  0  0  0
    1.0818   -9.0751    3.2053 C   0  0  0  0  0  0  0  0  0  0  0  0
    1.5216  -10.1164    3.9747 C   0  0  0  0  0  0  0  0  0  0  0  0
    1.4420  -11.4363    3.6461 C   0  0  0  0  0  0  0  0  0  0  0  0
    0.5969  -11.7648    2.6785 C   0  0  0  0  0  0  0  0  0  0  0  0
    0.3540  -13.1626    2.3846 C   0  0  0  0  0  0  0  0  0  0  0  0
    1.2624  -14.1350    2.9922 C   0  0  0  0  0  0  0  0  0  0  0  0
    0.5707   -9.4971    1.9671 C   0  0  0  0  0  0  0  0  0  0  0  0
    0.1931   -8.4365    1.1629 C   0  0  0  0  0  0  0  0  0  0  0  0
   -0.0628   -8.7932   -0.2059 C   0  0  0  0  0  0  0  0  0  0  0  0
   -0.0922  -10.0736   -0.5314 C   0  0  0  0  0  0  0  0  0  0  0  0
    0.2128  -11.1291    0.3991 C   0  0  0  0  0  0  0  0  0  0  0  0
    0.5931  -10.8658    1.6340 C   0  0  0  0  0  0  0  0  0  0  0  0
    0.8513  -15.5203    2.9570 C   0  0  0  0  0  0  0  0  0  0  0  0
    1.8504  -16.4574    2.5799 C   0  0  0  0  0  0  0  0  0  0  0  0
    1.7492  -17.7594    2.7219 O   0  0  0  0  0  0  0  0  0  0  0  0
    3.1448  -16.1202    2.2841 Cl  0  0  0  0  0  0  0  0  0  0  0  0
    1.4978   -6.8227    2.9416 C   0  0  0  0  0  0  0  0  0  0  0  0
    1.1368   -5.5566    3.3330 O   0  0  0  0  0  0  0  0  0  0  0  0
  1  2  1  0
  5  6  1  0
  6  7  1  0
  7 14  1  0
 14 15  1  0
 15 16  2  0
 15 17  1  0
  1 18  1  0
 18 19  1  0
  2  3  2  0
  3  4  1  0
  4  5  2  0
  5 13  1  0
  2  8  1  0
  8  9  2  0
  9 10  1  0
 10 11  2  0
 11 12  1  0
 12 13  2  0
  8 13  1  0
M  END

$$$$
No_2901-/export/home/yangzhenyu/potential_scad_32_flow//YTHDC2/2024-12-06-03-22-00/
     RDKit          3D

 22 23  0  0  0  0  0  0  0  0999 V2000
    1.1787   -8.0297    3.5154 C   0  0  0  0  0  0  0  0  0  0  0  0
    1.1048   -9.2215    3.2892 C   0  0  0  0  0  0  0  0  0  0  0  0
    1.2339   -9.7611    2.0189 C   0  0  0  0  0  0  0  0  0  0  0  0
    1.3583   -9.0036    0.9764 C   0  0  0  0  0  0  0  0  0  0  0  0
    1.5996   -7.6362    1.1311 C   0  0  0  0  0  0  0  0  0  0  0  0
    1.4830   -7.0928    2.3626 C   0  0  0  0  0  0  0  0  0  0  0  0
    1.4898   -5.7274    2.6199 C   0  0  0  0  0  0  0  0  0  0  0  0
    1.1882  -11.3736    1.8424 C   0  0  0  0  0  0  0  0  0  0  0  0
    1.0670  -11.6643    0.5390 O   0  0  0  0  0  0  0  0  0  0  0  0
    1.3209  -12.0782    2.7410 O   0  0  0  0  0  0  0  0  0  0  0  0
    1.6854   -5.1771    3.8627 O   0  0  0  0  0  0  0  0  0  0  0  0
    1.3603   -4.8377    1.6603 O   0  0  0  0  0  0  0  0  0  0  0  0
    1.5575   -9.4296   -0.3544 C   0  0  0  0  0  0  0  0  0  0  0  0
    0.3885   -9.5635   -1.0616 O   0  0  0  0  0  0  0  0  0  0  0  0
    2.6704   -9.4802   -0.9494 O   0  0  0  0  0  0  0  0  0  0  0  0
    0.8971  -10.1392    4.4211 O   0  0  0  0  0  0  0  0  0  0  0  0
   -0.2168  -12.4060    0.4126 C   0  0  0  0  0  0  0  0  0  0  0  0
   -0.1404  -13.7526    0.3059 C   0  0  0  0  0  0  0  0  0  0  0  0
   -0.8038  -14.3825    1.0201 C   0  0  0  0  0  0  0  0  0  0  0  0
   -1.9452  -13.9154    1.6216 C   0  0  0  0  0  0  0  0  0  0  0  0
   -2.1561  -12.5346    1.5410 C   0  0  0  0  0  0  0  0  0  0  0  0
   -1.1983  -11.6906    0.8843 C   0  0  0  0  0  0  0  0  0  0  0  0
  6  7  1  0
  3  8  1  0
  8  9  1  0
  8 10  2  0
  7 11  1  0
  7 12  2  0
  4 13  1  0
 13 14  1  0
 13 15  2  0
  2 16  1  0
  9 17  1  0
 17 18  2  0
 18 19  1  0
 19 20  2  0
 20 21  1  0
 21 22  2  0
 17 22  1  0
  1  2  2  0
  2  3  1  0
  3  4  2  0
  4  5  1  0
  5  6  2  0
  1  6  1  0
M  END

$$$$
No_2902-/export/home/yangzhenyu/potential_scad_32_flow//YTHDC2/2024-12-06-03-22-00/
     RDKit          3D

 19 21  0  0  0  0  0  0  0  0999 V2000
    1.1787   -8.0297    3.5154 C   0  0  0  0  0  0  0  0  0  0  0  0
    1.1048   -9.2215    3.2892 C   0  0  0  0  0  0  0  0  0  0  0  0
    1.3627  -10.1721    4.3044 C   0  0  0  0  0  0  0  0  0  0  0  0
    1.0682  -11.5187    4.0618 C   0  0  0  0  0  0  0  0  0  0  0  0
    0.6332  -11.9655    2.9682 C   0  0  0  0  0  0  0  0  0  0  0  0
    0.4776  -11.1308    1.9203 C   0  0  0  0  0  0  0  0  0  0  0  0
    0.7470   -9.8274    2.0368 C   0  0  0  0  0  0  0  0  0  0  0  0
    1.0387   -7.0301    2.5175 C   0  0  0  0  0  0  0  0  0  0  0  0
    0.9130   -7.5288    1.2013 C   0  0  0  0  0  0  0  0  0  0  0  0
    0.7893   -8.7980    0.9542 C   0  0  0  0  0  0  0  0  0  0  0  0
    0.5241   -9.2578   -0.2817 C   0  0  0  0  0  0  0  0  0  0  0  0
    1.2450   -9.2169   -1.2770 N   0  0  0  0  0  0  0  0  0  0  0  0
   -0.8363   -9.2928   -0.6404 O   0  0  0  0  0  0  0  0  0  0  0  0
    0.5219  -13.3834    2.7051 C   0  0  0  0  0  0  0  0  0  0  0  0
    1.5263  -14.3246    3.2035 C   0  0  0  0  0  0  0  0  0  0  0  0
    1.2470  -15.6716    2.9850 C   0  0  0  0  0  0  0  0  0  0  0  0
    0.3766  -16.1252    2.2171 C   0  0  0  0  0  0  0  0  0  0  0  0
   -0.5032  -15.2812    1.6280 C   0  0  0  0  0  0  0  0  0  0  0  0
   -0.3458  -13.9156    1.8478 C   0  0  0  0  0  0  0  0  0  0  0  0
 10 11  1  0
 11 12  1  0
 11 13  2  0
  5 14  1  0
  2  3  1  0
  3  4  2  0
  4  5  1  0
  5  6  2  0
  6  7  1  0
  1  2  2  0
  2  7  1  0
  7 10  2  0
  9 10  1  0
  8  9  2  0
  1  8  1  0
 14 15  2  0
 15 16  1  0
 16 17  2  0
 17 18  1  0
 18 19  2  0
 14 19  1  0
M  END

$$$$
No_2903-/export/home/yangzhenyu/potential_scad_32_flow//YTHDC2/2024-12-06-03-22-00/
     RDKit          3D

 20 21  0  0  0  0  0  0  0  0999 V2000
    1.1787   -8.0297    3.5154 C   0  0  0  0  0  0  0  0  0  0  0  0
    1.0491   -6.8434    2.9820 C   0  0  0  0  0  0  0  0  0  0  0  0
    0.0950   -8.8404    3.2292 C   0  0  0  0  0  0  0  0  0  0  0  0
   -0.9173   -8.4596    2.5152 C   0  0  0  0  0  0  0  0  0  0  0  0
   -1.0331   -7.2162    2.0653 C   0  0  0  0  0  0  0  0  0  0  0  0
   -0.0105   -6.3168    2.3081 C   0  0  0  0  0  0  0  0  0  0  0  0
    0.0485   -4.9783    1.8782 C   0  0  0  0  0  0  0  0  0  0  0  0
   -0.6974   -4.6139    0.8644 N   0  0  0  0  0  0  0  0  0  0  0  0
    1.1787   -4.1233    2.1412 O   0  0  0  0  0  0  0  0  0  0  0  0
    0.1715  -10.2834    3.6551 C   0  0  0  0  0  0  0  0  0  0  0  0
   -1.0505  -10.9656    3.7969 C   0  0  0  0  0  0  0  0  0  0  0  0
    1.3456  -10.8248    4.3217 C   0  0  0  0  0  0  0  0  0  0  0  0
    1.8699  -11.8358    3.8398 C   0  0  0  0  0  0  0  0  0  0  0  0
    0.9020  -12.8048    3.4449 C   0  0  0  0  0  0  0  0  0  0  0  0
   -0.4842  -12.4240    3.4118 C   0  0  0  0  0  0  0  0  0  0  0  0
    1.0955  -14.1798    3.6305 C   0  0  0  0  0  0  0  0  0  0  0  0
    0.1603  -15.1262    3.4779 O   0  0  0  0  0  0  0  0  0  0  0  0
    2.3390  -14.6531    3.2711 O   0  0  0  0  0  0  0  0  0  0  0  0
    0.9805   -2.9751    2.1753 C   0  0  0  0  0  0  0  0  0  0  0  0
   -1.4141   -5.2344    0.5159 H   0  0  0  0  0  0  0  0  0  0  0  0
  6  7  1  0
  7  8  2  0
  7  9  1  0
  3 10  1  0
 14 16  1  0
 16 17  2  0
 16 18  1  0
  9 19  1  0
 10 11  2  0
 11 15  1  0
 14 15  2  0
 13 14  1  0
 12 13  2  0
 10 12  1  0
  1  2  2  0
  2  6  1  0
  5  6  2  0
  4  5  1  0
  3  4  2  0
  1  3  1  0
  8 20  1  0
M  END

$$$$
No_2904-/export/home/yangzhenyu/potential_scad_32_flow//YTHDC2/2024-12-06-03-22-00/
     RDKit          3D

 19 20  0  0  0  0  0  0  0  0999 V2000
    1.1787   -8.0297    3.5154 C   0  0  0  0  0  0  0  0  0  0  0  0
    1.1048   -9.2215    3.2892 C   0  0  0  0  0  0  0  0  0  0  0  0
    1.2339   -9.7611    2.0189 C   0  0  0  0  0  0  0  0  0  0  0  0
    1.3583   -9.0036    0.9764 C   0  0  0  0  0  0  0  0  0  0  0  0
    1.5996   -7.6362    1.1311 C   0  0  0  0  0  0  0  0  0  0  0  0
    1.4830   -7.0928    2.3626 C   0  0  0  0  0  0  0  0  0  0  0  0
    1.5395   -5.7300    2.6182 C   0  0  0  0  0  0  0  0  0  0  0  0
    1.1775  -11.2233    1.8407 C   0  0  0  0  0  0  0  0  0  0  0  0
    0.7252  -11.5870    0.5412 N   0  0  0  0  0  0  0  0  0  0  0  0
    1.6030  -12.0513    2.6420 C   0  0  0  0  0  0  0  0  0  0  0  0
    1.5906  -13.4420    2.3152 C   0  0  0  0  0  0  0  0  0  0  0  0
    1.0817  -13.8202    1.0777 C   0  0  0  0  0  0  0  0  0  0  0  0
    0.6634  -12.8738    0.1855 C   0  0  0  0  0  0  0  0  0  0  0  0
    2.0203  -14.4098    3.2181 Cl  0  0  0  0  0  0  0  0  0  0  0  0
    0.6251   -4.8793    2.7826 C   0  0  0  0  0  0  0  0  0  0  0  0
    0.7569   -3.4791    3.0988 C   0  0  0  0  0  0  0  0  0  0  0  0
   -0.7857   -5.3755    2.7994 C   0  0  0  0  0  0  0  0  0  0  0  0
   -1.7881   -4.6439    3.2625 C   0  0  0  0  0  0  0  0  0  0  0  0
   -1.8186   -4.4341    4.6344 C   0  0  0  0  0  0  0  0  0  0  0  0
  6  7  1  0
  3  8  1  0
 11 14  1  0
  7 15  2  3
 15 16  1  0
 15 17  1  0
 17 18  1  0
 18 19  1  0
  1  2  2  0
  2  3  1  0
  3  4  2  0
  4  5  1  0
  5  6  2  0
  1  6  1  0
  8  9  2  0
  9 13  1  0
 12 13  2  0
 11 12  1  0
 10 11  2  0
  8 10  1  0
M  END

$$$$
No_2905-/export/home/yangzhenyu/potential_scad_32_flow//YTHDC2/2024-12-06-03-22-00/
     RDKit          3D

 18 19  0  0  1  0  0  0  0  0999 V2000
    1.1787   -8.0297    3.5154 C   0  0  0  0  0  0  0  0  0  0  0  0
    1.1048   -9.2215    3.2892 C   0  0  0  0  0  0  0  0  0  0  0  0
    1.2339   -9.7611    2.0189 C   0  0  1  0  0  0  0  0  0  0  0  0
    1.1954  -11.2312    1.8661 C   0  0  0  0  0  0  0  0  0  0  0  0
    1.5546  -12.1691    2.7931 C   0  0  0  0  0  0  0  0  0  0  0  0
    0.5849   -7.0929    2.5729 C   0  0  2  0  0  0  0  0  0  0  0  0
    0.5567   -7.6699    1.1955 C   0  0  0  0  0  0  0  0  0  0  0  0
    0.7903   -8.9699    0.9209 C   0  0  0  0  0  0  0  0  0  0  0  0
    1.5521  -13.4960    2.3485 C   0  0  0  0  0  0  0  0  0  0  0  0
    1.2403  -13.8919    1.1557 C   0  0  0  0  0  0  0  0  0  0  0  0
    1.0311  -12.9707    0.1488 C   0  0  0  0  0  0  0  0  0  0  0  0
    0.9678  -11.6394    0.4949 C   0  0  0  0  0  0  0  0  0  0  0  0
    0.6235   -5.6335    2.6368 C   0  0  0  0  0  0  0  0  0  0  0  0
    0.2278   -6.8546    0.2236 O   0  0  0  0  0  0  0  0  0  0  0  0
   -0.5856   -5.0099    2.5660 C   0  0  0  0  0  0  0  0  0  0  0  0
   -0.6056   -3.5570    2.4470 C   0  0  0  0  0  0  0  0  0  0  0  0
    0.6095   -2.9048    2.6608 C   0  0  0  0  0  0  0  0  0  0  0  0
    1.8163   -3.5701    2.9128 C   0  0  0  0  0  0  0  0  0  0  0  0
  1  2  1  0
  3  4  1  1
  6  7  1  0
  3  8  1  0
  7  8  1  0
  6 13  1  6
  7 14  2  0
 13 15  1  0
 15 16  2  3
 16 17  1  0
 17 18  2  0
  1  6  1  0
  2  3  1  0
  4  5  2  0
  5  9  1  0
  9 10  2  0
 10 11  1  0
 11 12  2  0
  4 12  1  0
M  END

$$$$
No_2906-/export/home/yangzhenyu/potential_scad_32_flow//YTHDC2/2024-12-06-03-22-00/
     RDKit          3D

 19 20  0  0  0  0  0  0  0  0999 V2000
    1.1787   -8.0297    3.5154 C   0  0  0  0  0  0  0  0  0  0  0  0
    1.0491   -6.8434    2.9820 C   0  0  0  0  0  0  0  0  0  0  0  0
    1.0690   -9.1150    2.7206 C   0  0  0  0  0  0  0  0  0  0  0  0
    0.9689   -6.6391    1.6260 C   0  0  0  0  0  0  0  0  0  0  0  0
    0.9670   -9.0334    1.3824 C   0  0  0  0  0  0  0  0  0  0  0  0
    0.8189   -7.7113    0.8022 C   0  0  0  0  0  0  0  0  0  0  0  0
    1.2114  -10.5217    3.2468 C   0  0  0  0  0  0  0  0  0  0  0  0
    2.2860  -10.8211    3.8520 C   0  0  0  0  0  0  0  0  0  0  0  0
    2.2631  -12.2056    4.3066 C   0  0  0  0  0  0  0  0  0  0  0  0
    1.5043  -13.0726    3.7970 C   0  0  0  0  0  0  0  0  0  0  0  0
    0.4356  -12.7585    3.0321 C   0  0  0  0  0  0  0  0  0  0  0  0
    0.3494  -11.3600    2.6725 C   0  0  0  0  0  0  0  0  0  0  0  0
    0.8817   -5.1350    0.9845 Cl  0  0  0  0  0  0  0  0  0  0  0  0
   -0.6178  -11.0035    2.3037 C   0  0  0  0  0  0  0  0  0  0  0  0
   -1.6704  -10.3708    3.2208 O   0  0  0  0  0  0  0  0  0  0  0  0
   -2.1880  -10.9104    4.0746 C   0  0  0  0  0  0  0  0  0  0  0  0
   -2.3530  -10.1926    5.2437 C   0  0  0  0  0  0  0  0  0  0  0  0
   -3.1093   -9.0160    5.0215 C   0  0  0  0  0  0  0  0  0  0  0  0
   -2.3364   -7.8201    5.0252 C   0  0  0  0  0  0  0  0  0  0  0  0
  3  7  1  0
  4 13  1  0
 12 14  1  0
 14 15  1  0
 15 16  1  0
 16 17  1  0
 17 18  1  0
 18 19  1  0
  1  2  2  0
  2  4  1  0
  4  6  2  0
  5  6  1  0
  3  5  2  0
  1  3  1  0
  7  8  2  0
  8  9  1  0
  9 10  2  0
 10 11  1  0
 11 12  2  0
  7 12  1  0
M  END

$$$$
No_2907-/export/home/yangzhenyu/potential_scad_32_flow//YTHDC2/2024-12-06-03-22-00/
     RDKit          3D

 15 16  0  0  0  0  0  0  0  0999 V2000
    1.1787   -8.0297    3.5154 C   0  0  0  0  0  0  0  0  0  0  0  0
    1.0491   -6.8434    2.9820 C   0  0  0  0  0  0  0  0  0  0  0  0
    0.0950   -8.8404    3.2292 C   0  0  0  0  0  0  0  0  0  0  0  0
   -0.9173   -8.4596    2.5152 C   0  0  0  0  0  0  0  0  0  0  0  0
   -1.0331   -7.2162    2.0653 C   0  0  0  0  0  0  0  0  0  0  0  0
   -0.0105   -6.3168    2.3081 C   0  0  0  0  0  0  0  0  0  0  0  0
    0.1150   -4.9910    1.8495 C   0  0  0  0  0  0  0  0  0  0  0  0
   -0.5774   -4.1593    2.0596 N   0  0  0  0  0  0  0  0  0  0  0  0
    0.1680  -10.2877    3.7012 C   0  0  0  0  0  0  0  0  0  0  0  0
   -1.0762  -10.9526    3.8329 C   0  0  0  0  0  0  0  0  0  0  0  0
    1.3613  -10.8020    4.3070 C   0  0  0  0  0  0  0  0  0  0  0  0
    1.4770  -12.1438    4.4399 C   0  0  0  0  0  0  0  0  0  0  0  0
   -0.9472  -12.3272    4.0898 C   0  0  0  0  0  0  0  0  0  0  0  0
    0.3666  -12.9289    4.2677 C   0  0  0  0  0  0  0  0  0  0  0  0
   -0.3525   -2.9097    2.5567 O   0  0  0  0  0  0  0  0  0  0  0  0
  6  7  1  0
  7  8  1  0
  3  9  1  0
  8 15  2  0
  9 10  2  0
 10 13  1  0
 13 14  2  0
 12 14  1  0
 11 12  2  0
  9 11  1  0
  1  2  2  0
  2  6  1  0
  5  6  2  0
  4  5  1  0
  3  4  2  0
  1  3  1  0
M  END

$$$$
No_2908-/export/home/yangzhenyu/potential_scad_32_flow//YTHDC2/2024-12-06-03-22-00/
     RDKit          3D

 17 18  0  0  1  0  0  0  0  0999 V2000
    1.1787   -8.0297    3.5154 C   0  0  0  0  0  0  0  0  0  0  0  0
    1.1048   -9.2215    3.2892 C   0  0  0  0  0  0  0  0  0  0  0  0
    1.2339   -9.7611    2.0189 C   0  0  0  0  0  0  0  0  0  0  0  0
    1.3583   -9.0036    0.9764 C   0  0  0  0  0  0  0  0  0  0  0  0
    1.5996   -7.6362    1.1311 C   0  0  0  0  0  0  0  0  0  0  0  0
    1.4830   -7.0928    2.3626 C   0  0  0  0  0  0  0  0  0  0  0  0
    1.4898   -5.7274    2.6199 C   0  0  0  0  0  0  0  0  0  0  0  0
    1.1882  -11.3736    1.8424 C   0  0  2  0  0  0  0  0  0  0  0  0
    1.7911  -12.1283    2.5447 C   0  0  0  0  0  0  0  0  0  0  0  0
    1.6235  -13.4929    2.1108 C   0  0  2  0  0  0  0  0  0  0  0  0
    0.9130  -13.8662    1.0879 C   0  0  0  0  0  0  0  0  0  0  0  0
    0.2981  -12.8588    0.2798 C   0  0  0  0  0  0  0  0  0  0  0  0
    0.4407  -11.5560    0.6364 C   0  0  0  0  0  0  0  0  0  0  0  0
    1.2457   -4.8685    1.6168 O   0  0  0  0  0  0  0  0  0  0  0  0
    2.0591   -5.0716    3.6901 F   0  0  0  0  0  0  0  0  0  0  0  0
    2.3588  -14.6599    3.0744 Cl  0  0  0  0  0  0  0  0  0  0  0  0
   -0.1673  -10.7043   -0.1563 O   0  0  0  0  0  0  0  0  0  0  0  0
  6  7  1  0
  8  3  1  6
  8  9  1  0
 10 11  1  0
  8 13  1  0
 12 13  1  0
  7 14  2  0
  7 15  1  0
 10 16  1  1
 13 17  2  0
  9 10  1  0
 11 12  1  0
  1  2  2  0
  2  3  1  0
  3  4  2  0
  4  5  1  0
  5  6  2  0
  1  6  1  0
M  END

$$$$
No_2909-/export/home/yangzhenyu/potential_scad_32_flow//YTHDC2/2024-12-06-03-22-00/
     RDKit          3D

 18 18  0  0  1  0  0  0  0  0999 V2000
    1.1787   -8.0297    3.5154 O   0  0  0  0  0  0  0  0  0  0  0  0
    0.9969   -8.9689    3.0048 C   0  0  0  0  0  0  0  0  0  0  0  0
    1.3055  -10.1056    3.6616 C   0  0  0  0  0  0  0  0  0  0  0  0
    2.1315  -10.4529    4.2438 C   0  0  0  0  0  0  0  0  0  0  0  0
    0.4484   -8.8156    1.7225 C   0  0  0  0  0  0  0  0  0  0  0  0
   -0.0257   -7.6054    1.5545 C   0  0  0  0  0  0  0  0  0  0  0  0
    0.8214   -6.5530    1.3964 C   0  0  2  0  0  0  0  0  0  0  0  0
    2.0840   -6.7104    1.3056 C   0  0  0  0  0  0  0  0  0  0  0  0
    0.2859   -5.1820    1.5510 C   0  0  0  0  0  0  0  0  0  0  0  0
    2.5569  -11.8124    4.8013 C   0  0  0  0  0  0  0  0  0  0  0  0
   -0.8207   -4.8048    0.9178 C   0  0  0  0  0  0  0  0  0  0  0  0
   -1.8387   -4.4782    1.5894 C   0  0  0  0  0  0  0  0  0  0  0  0
    0.2301  -11.1825    3.6960 C   0  0  0  0  0  0  0  0  0  0  0  0
    0.3407  -12.3683    4.0912 C   0  0  0  0  0  0  0  0  0  0  0  0
    1.5249  -12.7530    4.5971 C   0  0  0  0  0  0  0  0  0  0  0  0
   -2.8280   -5.3580    1.7492 C   0  0  0  0  0  0  0  0  0  0  0  0
   -3.1560   -5.6251    3.1439 O   0  0  0  0  0  0  0  0  0  0  0  0
   -3.5568   -6.0524    0.9752 O   0  0  0  0  0  0  0  0  0  0  0  0
  1  2  1  0
  2  3  1  0
  2  5  1  0
  5  6  1  0
  6  7  1  0
  7  8  1  1
  7  9  1  0
  9 11  1  0
 11 12  1  0
 12 16  1  0
 16 17  1  0
 16 18  2  0
  3  4  2  0
  4 10  1  0
 10 15  2  0
 14 15  1  0
 13 14  2  0
  3 13  1  0
M  END

$$$$
No_2910-/export/home/yangzhenyu/potential_scad_32_flow//YTHDC2/2024-12-06-03-22-00/
     RDKit          3D

 19 20  0  0  1  0  0  0  0  0999 V2000
    1.1787   -8.0297    3.5154 C   0  0  0  0  0  0  0  0  0  0  0  0
    1.0491   -6.8434    2.9820 C   0  0  1  0  0  0  0  0  0  0  0  0
    0.9905   -9.0774    2.6527 C   0  0  1  0  0  0  0  0  0  0  0  0
    0.7897   -8.9519    1.3691 C   0  0  0  0  0  0  0  0  0  0  0  0
    0.7018   -7.7198    0.7892 C   0  0  0  0  0  0  0  0  0  0  0  0
    1.4312   -5.5794    3.7443 C   0  0  0  0  0  0  0  0  0  0  0  0
    0.9426   -6.6664    1.5322 C   0  0  0  0  0  0  0  0  0  0  0  0
    0.9192   -5.4040    1.0793 O   0  0  0  0  0  0  0  0  0  0  0  0
    1.1414  -10.7602    3.3021 C   0  0  0  0  0  0  0  0  0  0  0  0
   -0.0428  -11.2170    3.5423 C   0  0  0  0  0  0  0  0  0  0  0  0
   -1.1271  -10.4449    3.9412 C   0  0  0  0  0  0  0  0  0  0  0  0
   -2.3519  -10.5578    3.5894 C   0  0  0  0  0  0  0  0  0  0  0  0
   -2.6996  -11.7542    3.0187 C   0  0  0  0  0  0  0  0  0  0  0  0
   -1.7795  -12.7030    2.6842 C   0  0  0  0  0  0  0  0  0  0  0  0
   -0.4327  -12.4679    2.9117 C   0  0  0  0  0  0  0  0  0  0  0  0
    0.6098  -13.2263    2.7107 C   0  0  0  0  0  0  0  0  0  0  0  0
    0.4204  -14.4733    2.2276 C   0  0  0  0  0  0  0  0  0  0  0  0
    1.5982  -15.4312    2.0959 C   0  0  0  0  0  0  0  0  0  0  0  0
    2.8582  -14.7960    1.8799 C   0  0  0  0  0  0  0  0  0  0  0  0
  1  2  1  0
  3  4  1  0
  2  6  1  6
  2  7  1  0
  5  7  1  0
  7  8  2  0
  3  9  1  6
  9 10  1  0
 15 16  1  0
 16 17  2  3
 17 18  1  0
 18 19  2  0
  1  3  1  0
  4  5  1  0
 10 11  2  0
 11 12  1  0
 12 13  2  0
 13 14  1  0
 14 15  2  0
 10 15  1  0
M  END

$$$$
No_2911-/export/home/yangzhenyu/potential_scad_32_flow//YTHDC2/2024-12-06-03-22-00/
     RDKit          3D

 19 20  0  0  0  0  0  0  0  0999 V2000
    1.1787   -8.0297    3.5154 C   0  0  0  0  0  0  0  0  0  0  0  0
    1.1048   -9.2215    3.2892 N   0  0  0  0  0  0  0  0  0  0  0  0
    1.0346   -9.7785    2.1176 C   0  0  0  0  0  0  0  0  0  0  0  0
    1.2597   -9.0826    1.0431 C   0  0  0  0  0  0  0  0  0  0  0  0
    1.5530   -7.7656    1.0977 C   0  0  0  0  0  0  0  0  0  0  0  0
    1.5300   -7.1323    2.3379 C   0  0  0  0  0  0  0  0  0  0  0  0
    1.5865   -5.7484    2.5734 C   0  0  0  0  0  0  0  0  0  0  0  0
    0.9746  -11.2434    2.1142 C   0  0  0  0  0  0  0  0  0  0  0  0
    1.9518  -12.0263    2.4377 C   0  0  0  0  0  0  0  0  0  0  0  0
    1.6963  -13.3615    2.6831 C   0  0  0  0  0  0  0  0  0  0  0  0
    0.4677  -13.8908    2.5281 C   0  0  0  0  0  0  0  0  0  0  0  0
   -0.5955  -13.1358    2.3351 C   0  0  0  0  0  0  0  0  0  0  0  0
   -0.3797  -11.7756    2.1663 C   0  0  0  0  0  0  0  0  0  0  0  0
    1.5928   -5.1688    3.7070 C   0  0  0  0  0  0  0  0  0  0  0  0
    1.6031   -4.9552    1.3999 O   0  0  0  0  0  0  0  0  0  0  0  0
    0.3015  -15.4586    2.8730 O   0  0  0  0  0  0  0  0  0  0  0  0
   -0.5771  -16.0067    2.5690 C   0  0  0  0  0  0  0  0  0  0  0  0
   -1.4705  -11.0191    1.7573 C   0  0  0  0  0  0  0  0  0  0  0  0
   -1.8269  -10.8140    0.4355 C   0  0  0  0  0  0  0  0  0  0  0  0
  6  7  1  0
  3  8  1  0
  7 14  1  0
  7 15  2  0
 11 16  1  0
 16 17  1  0
 13 18  1  0
 18 19  1  0
  1  2  2  0
  2  3  1  0
  3  4  2  0
  4  5  1  0
  5  6  2  0
  1  6  1  0
  8  9  2  0
  9 10  1  0
 10 11  2  0
 11 12  1  0
 12 13  2  0
  8 13  1  0
M  END

$$$$
No_2912-/export/home/yangzhenyu/potential_scad_32_flow//YTHDC2/2024-12-06-03-22-00/
     RDKit          3D

 18 19  0  0  0  0  0  0  0  0999 V2000
    1.1787   -8.0297    3.5154 C   0  0  0  0  0  0  0  0  0  0  0  0
    1.0491   -6.8434    2.9820 C   0  0  0  0  0  0  0  0  0  0  0  0
    0.0950   -8.8404    3.2292 N   0  0  0  0  0  0  0  0  0  0  0  0
    0.2390   -6.4413    2.0402 C   0  0  0  0  0  0  0  0  0  0  0  0
    0.2626   -5.0542    1.5051 C   0  0  0  0  0  0  0  0  0  0  0  0
   -0.6886   -8.5514    2.2761 C   0  0  0  0  0  0  0  0  0  0  0  0
   -0.6855   -7.3604    1.6947 C   0  0  0  0  0  0  0  0  0  0  0  0
   -0.4817   -4.1475    1.9785 N   0  0  0  0  0  0  0  0  0  0  0  0
   -1.5030   -7.0809    0.6465 C   0  0  0  0  0  0  0  0  0  0  0  0
   -2.2401   -7.9320    0.2798 O   0  0  0  0  0  0  0  0  0  0  0  0
   -1.6089   -5.9029    0.0133 O   0  0  0  0  0  0  0  0  0  0  0  0
   -0.9978   -3.2118    1.4520 C   0  0  0  0  0  0  0  0  0  0  0  0
   -2.2759   -3.1047    1.0695 C   0  0  0  0  0  0  0  0  0  0  0  0
   -2.5822   -2.5833   -0.2307 C   0  0  0  0  0  0  0  0  0  0  0  0
   -1.5919   -2.0311   -0.9758 C   0  0  0  0  0  0  0  0  0  0  0  0
   -0.2830   -2.0407   -0.5813 C   0  0  0  0  0  0  0  0  0  0  0  0
    0.0561   -2.6368    0.5786 C   0  0  0  0  0  0  0  0  0  0  0  0
   -1.9694   -1.4317   -2.2554 O   0  0  0  0  0  0  0  0  0  0  0  0
  4  5  1  0
  5  8  1  0
  7  9  1  0
  9 10  2  0
  9 11  1  0
  8 12  1  0
 15 18  1  0
  1  2  2  0
  2  4  1  0
  4  7  2  0
  6  7  1  0
  3  6  2  0
  1  3  1  0
 12 13  2  0
 13 14  1  0
 14 15  2  0
 15 16  1  0
 16 17  2  0
 12 17  1  0
M  END

$$$$
No_2913-/export/home/yangzhenyu/potential_scad_32_flow//YTHDC2/2024-12-06-03-22-00/
     RDKit          3D

 16 16  0  0  0  0  0  0  0  0999 V2000
    1.1787   -8.0297    3.5154 N   0  0  0  0  0  0  0  0  0  0  0  0
    0.8669   -7.0905    2.8589 C   0  0  0  0  0  0  0  0  0  0  0  0
    0.8842   -5.8387    3.2677 N   0  0  0  0  0  0  0  0  0  0  0  0
    0.7046   -7.3396    1.4853 C   0  0  0  0  0  0  0  0  0  0  0  0
    1.1339   -9.2740    3.0829 C   0  0  0  0  0  0  0  0  0  0  0  0
    0.8384   -9.5970    1.8450 N   0  0  0  0  0  0  0  0  0  0  0  0
    0.5580   -8.5910    0.9796 C   0  0  0  0  0  0  0  0  0  0  0  0
    1.4913  -10.4925    3.9228 C   0  0  0  0  0  0  0  0  0  0  0  0
    0.6686  -11.6463    3.8162 C   0  0  0  0  0  0  0  0  0  0  0  0
    0.3062   -8.8138   -0.2926 C   0  0  0  0  0  0  0  0  0  0  0  0
   -0.7902   -8.2758   -0.8277 C   0  0  0  0  0  0  0  0  0  0  0  0
   -1.6642   -7.5484    0.0947 C   0  0  0  0  0  0  0  0  0  0  0  0
    0.9081  -12.3546    2.7652 C   0  0  0  0  0  0  0  0  0  0  0  0
   -0.1004  -12.8175    1.9959 C   0  0  0  0  0  0  0  0  0  0  0  0
    0.2222  -13.6250    0.7872 C   0  0  0  0  0  0  0  0  0  0  0  0
   -0.6210  -13.7362   -0.2308 C   0  0  0  0  0  0  0  0  0  0  0  0
  2  3  1  0
  5  8  1  0
  8  9  1  0
  7 10  1  0
 10 11  2  3
 11 12  1  0
  9 13  1  0
 13 14  1  0
 14 15  1  0
 15 16  2  0
  1  2  2  0
  2  4  1  0
  4  7  2  0
  6  7  1  0
  5  6  2  0
  1  5  1  0
M  END

$$$$
No_2914-/export/home/yangzhenyu/potential_scad_32_flow//YTHDC2/2024-12-06-03-22-00/
     RDKit          3D

 18 19  0  0  0  0  0  0  0  0999 V2000
    1.1787   -8.0297    3.5154 C   0  0  0  0  0  0  0  0  0  0  0  0
    1.0491   -6.8434    2.9820 C   0  0  0  0  0  0  0  0  0  0  0  0
    0.9905   -9.0774    2.6527 C   0  0  0  0  0  0  0  0  0  0  0  0
    0.7897   -8.9519    1.3691 C   0  0  0  0  0  0  0  0  0  0  0  0
    0.7018   -7.7198    0.7892 C   0  0  0  0  0  0  0  0  0  0  0  0
    0.8918   -6.5957    1.6117 C   0  0  0  0  0  0  0  0  0  0  0  0
    1.0711  -10.4814    3.2282 C   0  0  0  0  0  0  0  0  0  0  0  0
   -0.1055  -11.1328    3.5223 C   0  0  0  0  0  0  0  0  0  0  0  0
   -0.1824  -12.4513    3.3816 C   0  0  0  0  0  0  0  0  0  0  0  0
    0.9472  -13.2655    3.1726 C   0  0  0  0  0  0  0  0  0  0  0  0
    2.1715  -12.6012    2.9116 C   0  0  0  0  0  0  0  0  0  0  0  0
    2.2064  -11.2741    2.8264 C   0  0  0  0  0  0  0  0  0  0  0  0
    0.9212  -14.7926    3.2458 O   0  0  0  0  0  0  0  0  0  0  0  0
    0.8449   -5.2753    1.1114 Br  0  0  0  0  0  0  0  0  0  0  0  0
    0.0719  -15.3974    2.6831 C   0  0  0  0  0  0  0  0  0  0  0  0
   -0.0193  -15.0893    1.4117 C   0  0  0  0  0  0  0  0  0  0  0  0
   -1.1789  -14.5579    1.0869 C   0  0  0  0  0  0  0  0  0  0  0  0
   -1.3726  -14.0397   -0.3213 C   0  0  0  0  0  0  0  0  0  0  0  0
  3  7  1  0
 10 13  1  0
  6 14  1  0
 13 15  1  0
 15 16  1  0
 16 17  2  3
 17 18  1  0
  1  2  2  0
  2  6  1  0
  5  6  2  0
  4  5  1  0
  3  4  2  0
  1  3  1  0
  7  8  2  0
  8  9  1  0
  9 10  2  0
 10 11  1  0
 11 12  2  0
  7 12  1  0
M  END

$$$$
No_2915-/export/home/yangzhenyu/potential_scad_32_flow//YTHDC2/2024-12-06-03-22-00/
     RDKit          3D

 17 18  0  0  1  0  0  0  0  0999 V2000
    1.1787   -8.0297    3.5154 C   0  0  0  0  0  0  0  0  0  0  0  0
    1.1048   -9.2215    3.2892 C   0  0  0  0  0  0  0  0  0  0  0  0
    1.2339   -9.7611    2.0189 C   0  0  0  0  0  0  0  0  0  0  0  0
    1.3583   -9.0036    0.9764 C   0  0  0  0  0  0  0  0  0  0  0  0
    1.5996   -7.6362    1.1311 C   0  0  0  0  0  0  0  0  0  0  0  0
    1.4830   -7.0928    2.3626 C   0  0  0  0  0  0  0  0  0  0  0  0
    1.1171  -11.3311    1.8661 C   0  0  2  0  0  0  0  0  0  0  0  0
    1.9975  -12.1095    2.2478 C   0  0  0  0  0  0  0  0  0  0  0  0
    1.7697  -13.4418    1.9079 C   0  0  1  0  0  0  0  0  0  0  0  0
    0.8824  -13.8563    1.1154 C   0  0  0  0  0  0  0  0  0  0  0  0
   -0.0664  -12.9335    0.5986 C   0  0  0  0  0  0  0  0  0  0  0  0
    0.1158  -11.5559    0.9634 C   0  0  0  0  0  0  0  0  0  0  0  0
    1.5514   -5.6395    2.6394 Cl  0  0  0  0  0  0  0  0  0  0  0  0
   -0.8325  -10.6742    0.5154 O   0  0  0  0  0  0  0  0  0  0  0  0
    2.7771  -14.3958    2.4276 Cl  0  0  0  0  0  0  0  0  0  0  0  0
    1.5826   -9.4275   -0.3614 Br  0  0  0  0  0  0  0  0  0  0  0  0
    0.8767  -10.1496    4.4406 N   0  0  0  0  0  0  0  0  0  0  0  0
  7  3  1  6
  7  8  1  0
  9 10  1  0
  7 12  1  0
 11 12  1  0
  6 13  1  0
 12 14  2  0
  9 15  1  6
  4 16  1  0
  2 17  1  0
  8  9  1  0
 10 11  1  0
  1  2  2  0
  2  3  1  0
  3  4  2  0
  4  5  1  0
  5  6  2  0
  1  6  1  0
M  END

$$$$
No_2916-/export/home/yangzhenyu/potential_scad_32_flow//YTHDC2/2024-12-06-03-22-00/
     RDKit          3D

 18 19  0  0  0  0  0  0  0  0999 V2000
    1.1787   -8.0297    3.5154 C   0  0  0  0  0  0  0  0  0  0  0  0
    1.1048   -9.2215    3.2892 C   0  0  0  0  0  0  0  0  0  0  0  0
    1.2339   -9.7611    2.0189 C   0  0  0  0  0  0  0  0  0  0  0  0
    1.3583   -9.0036    0.9764 C   0  0  0  0  0  0  0  0  0  0  0  0
    1.5996   -7.6362    1.1311 C   0  0  0  0  0  0  0  0  0  0  0  0
    1.4830   -7.0928    2.3626 C   0  0  0  0  0  0  0  0  0  0  0  0
    1.4898   -5.7274    2.6199 C   0  0  0  0  0  0  0  0  0  0  0  0
    1.1681  -11.2222    1.8390 C   0  0  0  0  0  0  0  0  0  0  0  0
    0.5014  -11.9760    2.2068 C   0  0  0  0  0  0  0  0  0  0  0  0
    0.4167  -13.3685    2.0527 C   0  0  0  0  0  0  0  0  0  0  0  0
   -0.6161  -14.0718    1.8701 C   0  0  0  0  0  0  0  0  0  0  0  0
   -0.5561  -15.5453    1.8466 C   0  0  0  0  0  0  0  0  0  0  0  0
    0.7310  -16.1377    2.1551 C   0  0  0  0  0  0  0  0  0  0  0  0
    1.8180  -15.4300    2.5124 C   0  0  0  0  0  0  0  0  0  0  0  0
    1.7507  -14.0019    2.4628 C   0  0  0  0  0  0  0  0  0  0  0  0
    0.6670   -4.9772    2.7273 C   0  0  0  0  0  0  0  0  0  0  0  0
   -0.7355   -5.3836    2.5186 C   0  0  0  0  0  0  0  0  0  0  0  0
    0.7335   -3.4229    2.8629 C   0  0  0  0  0  0  0  0  0  0  0  0
  6  7  1  0
  3  8  1  0
  8  9  2  3
  9 10  1  0
  7 16  2  3
 16 17  1  0
 16 18  1  0
  1  2  2  0
  2  3  1  0
  3  4  2  0
  4  5  1  0
  5  6  2  0
  1  6  1  0
 10 11  2  0
 11 12  1  0
 12 13  2  0
 13 14  1  0
 14 15  2  0
 10 15  1  0
M  END

$$$$
No_2917-/export/home/yangzhenyu/potential_scad_32_flow//YTHDC2/2024-12-06-03-22-00/
     RDKit          3D

 14 14  0  0  1  0  0  0  0  0999 V2000
    1.1787   -8.0297    3.5154 C   0  0  0  0  0  0  0  0  0  0  0  0
    1.0491   -6.8434    2.9820 C   0  0  1  0  0  0  0  0  0  0  0  0
    1.9985   -8.9840    2.8958 C   0  0  0  0  0  0  0  0  0  0  0  0
    1.9135  -10.3404    3.6266 C   0  0  0  0  0  0  0  0  0  0  0  0
    0.9460  -10.6347    4.5748 C   0  0  0  0  0  0  0  0  0  0  0  0
   -0.0977   -9.6850    4.6652 C   0  0  0  0  0  0  0  0  0  0  0  0
   -0.0465   -8.4791    4.1040 C   0  0  0  0  0  0  0  0  0  0  0  0
    1.1124   -5.6985    3.4928 Cl  0  0  0  0  0  0  0  0  0  0  0  0
    1.1377   -6.7753    1.4765 C   0  0  0  0  0  0  0  0  0  0  0  0
    0.9909   -5.6447    0.8828 O   0  0  0  0  0  0  0  0  0  0  0  0
    1.4005   -7.7188    0.5534 O   0  0  0  0  0  0  0  0  0  0  0  0
    0.8535  -11.9452    4.8577 Br  0  0  0  0  0  0  0  0  0  0  0  0
    3.0639  -11.2991    3.2470 N   0  0  0  0  0  0  0  0  0  0  0  0
    2.9094  -11.8991    2.2898 O   0  0  0  0  0  0  0  0  0  0  0  0
  1  2  1  0
  2  8  1  1
  2  9  1  0
  9 10  2  0
  9 11  1  0
  5 12  1  0
  4 13  1  0
 13 14  2  0
  1  3  2  0
  3  4  1  0
  4  5  2  0
  5  6  1  0
  6  7  2  0
  1  7  1  0
M  END

$$$$
No_2918-/export/home/yangzhenyu/potential_scad_32_flow//YTHDC2/2024-12-06-03-22-00/
     RDKit          3D

 19 20  0  0  1  0  0  0  0  0999 V2000
    1.1787   -8.0297    3.5154 C   0  0  0  0  0  0  0  0  0  0  0  0
    1.1048   -9.2215    3.2892 C   0  0  0  0  0  0  0  0  0  0  0  0
    1.3627  -10.1721    4.3044 C   0  0  0  0  0  0  0  0  0  0  0  0
    1.0682  -11.5187    4.0618 C   0  0  0  0  0  0  0  0  0  0  0  0
    0.6332  -11.9655    2.9682 C   0  0  0  0  0  0  0  0  0  0  0  0
    0.4776  -11.1308    1.9203 C   0  0  0  0  0  0  0  0  0  0  0  0
    0.7470   -9.8274    2.0368 C   0  0  0  0  0  0  0  0  0  0  0  0
    1.0387   -7.0301    2.5175 C   0  0  2  0  0  0  0  0  0  0  0  0
    0.9130   -7.5288    1.2013 C   0  0  0  0  0  0  0  0  0  0  0  0
    0.7893   -8.7979    0.9542 C   0  0  2  0  0  0  0  0  0  0  0  0
    0.5241   -9.2578   -0.2817 C   0  0  0  0  0  0  0  0  0  0  0  0
   -0.7560   -9.7391   -0.6285 O   0  0  0  0  0  0  0  0  0  0  0  0
    1.3013   -8.9300   -1.2618 O   0  0  0  0  0  0  0  0  0  0  0  0
    0.5064  -13.3732    2.6887 C   0  0  0  0  0  0  0  0  0  0  0  0
   -0.5310  -14.0465    2.3594 O   0  0  0  0  0  0  0  0  0  0  0  0
    1.5736  -14.2449    3.0560 O   0  0  0  0  0  0  0  0  0  0  0  0
    1.2973   -5.6033    2.7050 N   0  0  0  0  0  0  0  0  0  0  0  0
    0.8836   -6.6392    0.3615 O   0  0  0  0  0  0  0  0  0  0  0  0
    0.6999   -4.6182    2.2461 C   0  0  0  0  0  0  0  0  0  0  0  0
  1  2  1  0
  8  9  1  0
  7 10  1  0
  9 10  1  0
 10 11  1  1
 11 12  2  0
 11 13  1  0
  5 14  1  0
 14 15  2  0
 14 16  1  0
  8 17  1  6
  9 18  2  0
 17 19  1  0
  1  8  1  0
  2  3  2  0
  3  4  1  0
  4  5  2  0
  5  6  1  0
  6  7  2  0
  2  7  1  0
M  END

$$$$
No_2919-/export/home/yangzhenyu/potential_scad_32_flow//YTHDC2/2024-12-06-03-22-00/
     RDKit          3D

 19 19  0  0  1  0  0  0  0  0999 V2000
    1.1787   -8.0297    3.5154 C   0  0  0  0  0  0  0  0  0  0  0  0
    1.0491   -6.8434    2.9820 C   0  0  0  0  0  0  0  0  0  0  0  0
    0.9905   -9.0774    2.6527 C   0  0  0  0  0  0  0  0  0  0  0  0
    1.1655  -10.4663    3.1286 C   0  0  2  0  0  0  0  0  0  0  0  0
    1.7409  -10.6480    4.4599 C   0  0  0  0  0  0  0  0  0  0  0  0
    0.4783   -6.4688    1.7590 C   0  0  0  0  0  0  0  0  0  0  0  0
    0.2119   -7.5787    0.9640 C   0  0  0  0  0  0  0  0  0  0  0  0
    0.4248   -8.8744    1.3136 C   0  0  0  0  0  0  0  0  0  0  0  0
    1.0420  -11.5352    2.2989 C   0  0  2  0  0  0  0  0  0  0  0  0
    1.9456  -11.7272    1.3640 C   0  0  0  0  0  0  0  0  0  0  0  0
    0.2982   -5.2147    1.2578 Cl  0  0  0  0  0  0  0  0  0  0  0  0
   -0.0783  -12.3235    2.4096 C   0  0  0  0  0  0  0  0  0  0  0  0
   -1.2146  -11.9549    2.9037 O   0  0  0  0  0  0  0  0  0  0  0  0
    0.0784  -13.6870    2.1251 Cl  0  0  0  0  0  0  0  0  0  0  0  0
    1.7726  -11.7458    0.1136 O   0  0  0  0  0  0  0  0  0  0  0  0
    2.8783  -11.5981    4.4993 O   0  0  0  0  0  0  0  0  0  0  0  0
    1.3035  -10.4467    5.5410 O   0  0  0  0  0  0  0  0  0  0  0  0
    3.2835  -11.7149    1.6323 O   0  0  0  0  0  0  0  0  0  0  0  0
   -0.2571   -7.4641   -0.3554 F   0  0  0  0  0  0  0  0  0  0  0  0
  3  4  1  0
  4  5  1  6
  4  9  1  0
  9 10  1  6
  6 11  1  0
  9 12  1  0
 12 13  2  0
 12 14  1  0
 10 15  2  0
  5 16  2  0
  5 17  1  0
 10 18  1  0
  7 19  1  0
  1  2  2  0
  2  6  1  0
  6  7  2  0
  7  8  1  0
  3  8  2  0
  1  3  1  0
M  END

$$$$
No_2920-/export/home/yangzhenyu/potential_scad_32_flow//YTHDC2/2024-12-06-03-22-00/
     RDKit          3D

 19 19  0  0  1  0  0  0  0  0999 V2000
    1.1787   -8.0297    3.5154 N   0  0  0  0  0  0  0  0  0  0  0  0
    0.8669   -7.0905    2.8589 C   0  0  0  0  0  0  0  0  0  0  0  0
    1.0447   -7.3244    1.4123 C   0  0  0  0  0  0  0  0  0  0  0  0
    1.3746   -8.4389    1.0864 C   0  0  1  0  0  0  0  0  0  0  0  0
    1.8185   -8.7923   -0.3129 C   0  0  0  0  0  0  0  0  0  0  0  0
    1.7714   -9.1001    2.3120 C   0  0  2  0  0  0  0  0  0  0  0  0
    2.1345  -10.3511    2.5694 C   0  0  0  0  0  0  0  0  0  0  0  0
    2.6810   -8.5558   -0.8585 F   0  0  0  0  0  0  0  0  0  0  0  0
    2.1970  -11.2624    1.6304 O   0  0  0  0  0  0  0  0  0  0  0  0
    2.6690  -10.6353    3.6902 O   0  0  0  0  0  0  0  0  0  0  0  0
    1.4908  -10.1666   -0.4600 F   0  0  0  0  0  0  0  0  0  0  0  0
    0.9935   -8.2217   -1.1734 Br  0  0  0  0  0  0  0  0  0  0  0  0
    0.5987   -5.9235    3.5053 C   0  0  0  0  0  0  0  0  0  0  0  0
   -0.4224   -5.1325    3.0859 C   0  0  0  0  0  0  0  0  0  0  0  0
   -1.3084   -5.5321    2.1669 C   0  0  0  0  0  0  0  0  0  0  0  0
   -1.4712   -4.6465    1.1350 C   0  0  0  0  0  0  0  0  0  0  0  0
   -2.3163   -4.9602    0.0567 C   0  0  0  0  0  0  0  0  0  0  0  0
   -2.9905   -6.1086    0.1341 C   0  0  0  0  0  0  0  0  0  0  0  0
   -2.8727   -6.9885    1.1408 C   0  0  0  0  0  0  0  0  0  0  0  0
  1  2  1  0
  2  3  2  0
  3  4  1  0
  4  5  1  6
  1  6  1  0
  4  6  1  0
  6  7  1  1
  5  8  1  0
  7  9  2  0
  7 10  1  0
  5 11  1  0
  5 12  1  0
  2 13  1  0
 13 14  2  3
 14 15  1  0
 15 16  2  3
 16 17  1  0
 17 18  2  3
 18 19  1  0
M  END

$$$$
No_2921-/export/home/yangzhenyu/potential_scad_32_flow//YTHDC2/2024-12-06-03-22-00/
     RDKit          3D

 18 18  0  0  1  0  0  0  0  0999 V2000
    1.1787   -8.0297    3.5154 C   0  0  0  0  0  0  0  0  0  0  0  0
    1.0491   -6.8434    2.9820 C   0  0  0  0  0  0  0  0  0  0  0  0
    0.9905   -9.0774    2.6527 C   0  0  0  0  0  0  0  0  0  0  0  0
    0.7897   -8.9519    1.3691 C   0  0  0  0  0  0  0  0  0  0  0  0
    0.7018   -7.7198    0.7892 C   0  0  0  0  0  0  0  0  0  0  0  0
    0.8918   -6.5957    1.6117 C   0  0  0  0  0  0  0  0  0  0  0  0
    1.0998  -10.4710    3.2437 C   0  0  1  0  0  0  0  0  0  0  0  0
    2.1917  -10.8879    3.7399 P   0  0  0  0  0  0  0  0  0  0  0  0
    2.4050  -12.3995    3.8548 O   0  0  0  0  0  0  0  0  0  0  0  0
    3.5570  -10.4708    3.0867 O   0  0  0  0  0  0  0  0  0  0  0  0
    2.5985  -10.4654    5.2929 O   0  0  0  0  0  0  0  0  0  0  0  0
    0.8418   -5.2730    1.2000 C   0  0  0  0  0  0  0  0  0  0  0  0
   -0.2321   -4.7621    0.7193 O   0  0  0  0  0  0  0  0  0  0  0  0
    1.7302   -4.3258    1.6558 O   0  0  0  0  0  0  0  0  0  0  0  0
   -0.1475  -10.7537    4.0781 C   0  0  0  0  0  0  0  0  0  0  0  0
   -1.0681  -11.6957    3.6989 C   0  0  0  0  0  0  0  0  0  0  0  0
   -0.5653  -12.6999    2.8818 C   0  0  0  0  0  0  0  0  0  0  0  0
   -2.3907  -11.3906    3.6736 C   0  0  0  0  0  0  0  0  0  0  0  0
  3  7  1  0
  7  8  1  0
  8  9  1  0
  8 10  2  0
  8 11  1  0
  6 12  1  0
 12 13  2  0
 12 14  1  0
  7 15  1  1
 15 16  1  0
 16 17  1  0
 16 18  1  0
  1  2  2  0
  2  6  1  0
  5  6  2  0
  4  5  1  0
  3  4  2  0
  1  3  1  0
M  END

$$$$
No_2922-/export/home/yangzhenyu/potential_scad_32_flow//YTHDC2/2024-12-06-03-22-00/
     RDKit          3D

 19 20  0  0  0  0  0  0  0  0999 V2000
    1.1787   -8.0297    3.5154 C   0  0  0  0  0  0  0  0  0  0  0  0
    1.1048   -9.2215    3.2892 C   0  0  0  0  0  0  0  0  0  0  0  0
    1.0240   -9.7790    2.0239 C   0  0  0  0  0  0  0  0  0  0  0  0
    1.1393   -9.0211    0.9686 C   0  0  0  0  0  0  0  0  0  0  0  0
    1.4051   -7.6500    1.1251 C   0  0  0  0  0  0  0  0  0  0  0  0
    1.4868   -7.1041    2.3534 C   0  0  0  0  0  0  0  0  0  0  0  0
    1.5885   -5.7190    2.5687 C   0  0  0  0  0  0  0  0  0  0  0  0
    0.8747  -11.3633    1.9261 C   0  0  0  0  0  0  0  0  0  0  0  0
   -0.2067  -11.6965    1.2277 C   0  0  0  0  0  0  0  0  0  0  0  0
   -0.3283  -13.0799    1.0153 C   0  0  0  0  0  0  0  0  0  0  0  0
    0.6410  -13.9358    1.5685 C   0  0  0  0  0  0  0  0  0  0  0  0
    1.6467  -13.4958    2.3394 C   0  0  0  0  0  0  0  0  0  0  0  0
    1.8094  -12.1169    2.5045 C   0  0  0  0  0  0  0  0  0  0  0  0
    0.4241  -15.3329    1.4603 C   0  0  0  0  0  0  0  0  0  0  0  0
   -0.1776  -15.9339    2.1339 C   0  0  0  0  0  0  0  0  0  0  0  0
   -0.3114  -17.4304    1.9485 C   0  0  0  0  0  0  0  0  0  0  0  0
   -0.6015  -18.0538    1.1144 C   0  0  0  0  0  0  0  0  0  0  0  0
   -0.7267  -19.4420    1.0846 C   0  0  0  0  0  0  0  0  0  0  0  0
   -0.4702  -20.0382    2.2832 C   0  0  0  0  0  0  0  0  0  0  0  0
  6  7  1  0
  3  8  1  0
 11 14  1  0
 14 15  2  3
 15 16  1  0
 16 17  2  3
 17 18  1  0
 18 19  2  0
  1  2  2  0
  2  3  1  0
  3  4  2  0
  4  5  1  0
  5  6  2  0
  1  6  1  0
  8  9  2  0
  9 10  1  0
 10 11  2  0
 11 12  1  0
 12 13  2  0
  8 13  1  0
M  END

$$$$
No_2923-/export/home/yangzhenyu/potential_scad_32_flow//YTHDC2/2024-12-06-03-22-00/
     RDKit          3D

 18 20  0  0  0  0  0  0  0  0999 V2000
    1.1787   -8.0297    3.5154 C   0  0  0  0  0  0  0  0  0  0  0  0
    1.0491   -6.8434    2.9820 C   0  0  0  0  0  0  0  0  0  0  0  0
    0.0950   -8.8404    3.2292 C   0  0  0  0  0  0  0  0  0  0  0  0
    0.0602  -10.1764    3.8231 C   0  0  0  0  0  0  0  0  0  0  0  0
    0.2248   -6.3830    2.0648 C   0  0  0  0  0  0  0  0  0  0  0  0
   -0.6745   -7.2322    1.6857 C   0  0  0  0  0  0  0  0  0  0  0  0
   -0.7374   -8.4992    2.1291 C   0  0  0  0  0  0  0  0  0  0  0  0
   -1.2197  -10.6611    4.0385 C   0  0  0  0  0  0  0  0  0  0  0  0
   -2.2122  -10.2766    3.1435 C   0  0  0  0  0  0  0  0  0  0  0  0
   -2.0039   -9.1685    2.3315 C   0  0  0  0  0  0  0  0  0  0  0  0
    0.3313   -4.9845    1.2380 Cl  0  0  0  0  0  0  0  0  0  0  0  0
   -3.4316  -10.9568    3.0788 C   0  0  0  0  0  0  0  0  0  0  0  0
   -3.4685  -12.1979    2.5105 C   0  0  0  0  0  0  0  0  0  0  0  0
   -2.6100  -12.7310    1.7734 N   0  0  0  0  0  0  0  0  0  0  0  0
   -4.5367  -13.0649    2.8555 C   0  0  0  0  0  0  0  0  0  0  0  0
   -2.6250  -13.6667    1.2484 C   0  0  0  0  0  0  0  0  0  0  0  0
   -4.6154  -14.3247    2.3820 C   0  0  0  0  0  0  0  0  0  0  0  0
   -3.6210  -14.6664    1.4334 C   0  0  0  0  0  0  0  0  0  0  0  0
  5 11  1  0
  9 12  1  0
 12 13  1  0
 13 14  2  0
 14 16  1  0
 16 18  2  0
 17 18  1  0
 15 17  2  0
 13 15  1  0
  1  2  2  0
  2  5  1  0
  5  6  2  0
  6  7  1  0
  1  3  1  0
  3  4  2  0
  4  8  1  0
  8  9  2  0
  9 10  1  0
  7 10  2  0
  3  7  1  0
M  END

$$$$
No_2924-/export/home/yangzhenyu/potential_scad_32_flow//YTHDC2/2024-12-06-03-22-00/
     RDKit          3D

 20 22  0  0  0  0  0  0  0  0999 V2000
    1.1787   -8.0297    3.5154 C   0  0  0  0  0  0  0  0  0  0  0  0
    1.0491   -6.8434    2.9820 C   0  0  0  0  0  0  0  0  0  0  0  0
    0.9905   -9.0774    2.6527 C   0  0  0  0  0  0  0  0  0  0  0  0
    0.7897   -8.9519    1.3691 C   0  0  0  0  0  0  0  0  0  0  0  0
    0.7018   -7.7198    0.7892 C   0  0  0  0  0  0  0  0  0  0  0  0
    0.8918   -6.5957    1.6117 C   0  0  0  0  0  0  0  0  0  0  0  0
    1.0600  -10.5680    3.3321 C   0  0  0  0  0  0  0  0  0  0  0  0
   -0.1041  -11.1772    3.5150 C   0  0  0  0  0  0  0  0  0  0  0  0
   -0.1608  -12.4876    3.3268 C   0  0  0  0  0  0  0  0  0  0  0  0
    0.9865  -13.2841    3.1741 C   0  0  0  0  0  0  0  0  0  0  0  0
    2.2316  -12.5817    3.0045 C   0  0  0  0  0  0  0  0  0  0  0  0
    2.2290  -11.2587    2.9229 C   0  0  0  0  0  0  0  0  0  0  0  0
    0.9652  -14.6598    3.2128 O   0  0  0  0  0  0  0  0  0  0  0  0
    0.8421   -5.2626    1.1590 C   0  0  0  0  0  0  0  0  0  0  0  0
   -0.2471   -4.7850    0.6996 C   0  0  0  0  0  0  0  0  0  0  0  0
   -0.3677   -3.4333    0.2880 C   0  0  0  0  0  0  0  0  0  0  0  0
    0.5691   -2.4922    0.8482 C   0  0  0  0  0  0  0  0  0  0  0  0
    1.6560   -2.9951    1.6146 C   0  0  0  0  0  0  0  0  0  0  0  0
    1.7800   -4.3655    1.8515 C   0  0  0  0  0  0  0  0  0  0  0  0
    1.9398  -15.3641    2.6261 C   0  0  0  0  0  0  0  0  0  0  0  0
  3  7  1  0
 10 13  1  0
  6 14  1  0
 13 20  1  0
 14 15  2  0
 15 16  1  0
 16 17  2  0
 17 18  1  0
 18 19  2  0
 14 19  1  0
  1  2  2  0
  2  6  1  0
  5  6  2  0
  4  5  1  0
  3  4  2  0
  1  3  1  0
  7  8  2  0
  8  9  1  0
  9 10  2  0
 10 11  1  0
 11 12  2  0
  7 12  1  0
M  END

$$$$
No_2925-/export/home/yangzhenyu/potential_scad_32_flow//YTHDC2/2024-12-06-03-22-00/
     RDKit          3D

 17 18  0  0  0  0  0  0  0  0999 V2000
    1.1787   -8.0297    3.5154 C   0  0  0  0  0  0  0  0  0  0  0  0
    1.0491   -6.8434    2.9820 C   0  0  0  0  0  0  0  0  0  0  0  0
    0.0950   -8.8404    3.2292 C   0  0  0  0  0  0  0  0  0  0  0  0
   -0.9173   -8.4596    2.5152 C   0  0  0  0  0  0  0  0  0  0  0  0
   -1.0331   -7.2162    2.0653 C   0  0  0  0  0  0  0  0  0  0  0  0
   -0.0105   -6.3168    2.3081 C   0  0  0  0  0  0  0  0  0  0  0  0
    0.1150   -4.9910    1.8495 C   0  0  0  0  0  0  0  0  0  0  0  0
   -0.5774   -4.1593    2.0596 C   0  0  0  0  0  0  0  0  0  0  0  0
   -0.5028   -2.7328    1.5284 C   0  0  0  0  0  0  0  0  0  0  0  0
    0.1510  -10.2710    3.6783 C   0  0  0  0  0  0  0  0  0  0  0  0
    0.1733  -11.3320    2.9439 C   0  0  0  0  0  0  0  0  0  0  0  0
   -0.7012  -11.7548    2.3011 C   0  0  0  0  0  0  0  0  0  0  0  0
   -0.5882  -12.9613    1.5274 C   0  0  0  0  0  0  0  0  0  0  0  0
    0.7410  -13.6077    1.5282 C   0  0  0  0  0  0  0  0  0  0  0  0
    1.7214  -13.1833    2.3076 C   0  0  0  0  0  0  0  0  0  0  0  0
    1.5218  -12.0369    3.0790 C   0  0  0  0  0  0  0  0  0  0  0  0
   -1.1827   -1.8212    1.9502 C   0  0  0  0  0  0  0  0  0  0  0  0
  6  7  1  0
  7  8  2  3
  8  9  1  0
  3 10  1  0
 10 11  1  0
  9 17  1  0
 11 12  2  0
 12 13  1  0
 13 14  2  0
 14 15  1  0
 15 16  2  0
 11 16  1  0
  1  2  2  0
  2  6  1  0
  5  6  2  0
  4  5  1  0
  3  4  2  0
  1  3  1  0
M  END

$$$$
No_2926-/export/home/yangzhenyu/potential_scad_32_flow//YTHDC2/2024-12-06-03-22-00/
     RDKit          3D

 16 16  0  0  1  0  0  0  0  0999 V2000
    1.1787   -8.0297    3.5154 C   0  0  0  0  0  0  0  0  0  0  0  0
    1.0491   -6.8434    2.9820 C   0  0  0  0  0  0  0  0  0  0  0  0
    1.9985   -8.9840    2.8958 C   0  0  1  0  0  0  0  0  0  0  0  0
    1.9135  -10.3404    3.6266 C   0  0  0  0  0  0  0  0  0  0  0  0
    1.3291  -11.3908    3.0222 C   0  0  0  0  0  0  0  0  0  0  0  0
    1.2749  -12.5326    3.7562 O   0  0  0  0  0  0  0  0  0  0  0  0
    1.2553   -6.5167    1.7882 C   0  0  1  0  0  0  0  0  0  0  0  0
    1.7161   -7.4802    0.8771 C   0  0  0  0  0  0  0  0  0  0  0  0
    2.0140   -8.7744    1.3664 C   0  0  0  0  0  0  0  0  0  0  0  0
    1.0621  -11.5681    1.7863 O   0  0  0  0  0  0  0  0  0  0  0  0
    0.9356   -5.2337    1.2142 O   0  0  0  0  0  0  0  0  0  0  0  0
    2.6992   -9.6096    0.6127 O   0  0  0  0  0  0  0  0  0  0  0  0
   -0.3482   -4.7927    1.1654 C   0  0  0  0  0  0  0  0  0  0  0  0
    2.0608   -7.3438   -0.3576 O   0  0  0  0  0  0  0  0  0  0  0  0
   -0.4449   -3.4404    1.2976 C   0  0  0  0  0  0  0  0  0  0  0  0
    0.4868   -2.8030    2.0489 C   0  0  0  0  0  0  0  0  0  0  0  0
  1  2  1  0
  1  3  1  0
  3  4  1  6
  4  5  1  0
  5  6  1  0
  7  8  1  0
  3  9  1  0
  8  9  1  0
  5 10  2  0
  7 11  1  6
  9 12  2  0
 11 13  1  0
  8 14  2  0
 13 15  1  0
 15 16  1  0
  2  7  1  0
M  END

$$$$
No_2927-/export/home/yangzhenyu/potential_scad_32_flow//YTHDC2/2024-12-06-03-22-00/
     RDKit          3D

 17 18  0  0  0  0  0  0  0  0999 V2000
    1.1787   -8.0297    3.5154 C   0  0  0  0  0  0  0  0  0  0  0  0
    1.1048   -9.2215    3.2892 C   0  0  0  0  0  0  0  0  0  0  0  0
    1.2339   -9.7611    2.0189 C   0  0  0  0  0  0  0  0  0  0  0  0
    1.3583   -9.0036    0.9764 C   0  0  0  0  0  0  0  0  0  0  0  0
    1.5996   -7.6362    1.1311 C   0  0  0  0  0  0  0  0  0  0  0  0
    1.4830   -7.0928    2.3626 C   0  0  0  0  0  0  0  0  0  0  0  0
    1.1008  -11.2372    1.8542 C   0  0  0  0  0  0  0  0  0  0  0  0
    1.9749  -12.0938    2.2342 C   0  0  0  0  0  0  0  0  0  0  0  0
    1.5180  -13.3509    2.5910 C   0  0  0  0  0  0  0  0  0  0  0  0
    0.4120  -13.9272    2.2191 C   0  0  0  0  0  0  0  0  0  0  0  0
   -0.5860  -13.0563    1.8308 C   0  0  0  0  0  0  0  0  0  0  0  0
   -0.2264  -11.7453    1.4928 N   0  0  0  0  0  0  0  0  0  0  0  0
    0.0666  -15.2224    2.5126 C   0  0  0  0  0  0  0  0  0  0  0  0
    0.9746  -15.9902    3.2678 C   0  0  0  0  0  0  0  0  0  0  0  0
    0.7997  -17.3400    3.5931 C   0  0  0  0  0  0  0  0  0  0  0  0
   -0.1248  -17.7981    4.3680 C   0  0  0  0  0  0  0  0  0  0  0  0
    1.5660   -5.6659    2.6271 Cl  0  0  0  0  0  0  0  0  0  0  0  0
  3  7  1  0
 10 13  1  0
 13 14  2  3
 14 15  1  0
 15 16  1  0
  6 17  1  0
  1  2  2  0
  2  3  1  0
  3  4  2  0
  4  5  1  0
  5  6  2  0
  1  6  1  0
  7  8  2  0
  8  9  1  0
  9 10  2  0
 10 11  1  0
 11 12  2  0
  7 12  1  0
M  END

$$$$
No_2928-/export/home/yangzhenyu/potential_scad_32_flow//YTHDC2/2024-12-06-03-22-00/
     RDKit          3D

 19 19  0  0  1  0  0  0  0  0999 V2000
    1.1787   -8.0297    3.5154 C   0  0  0  0  0  0  0  0  0  0  0  0
    1.0491   -6.8434    2.9820 C   0  0  0  0  0  0  0  0  0  0  0  0
    0.2462   -8.9560    3.0873 C   0  0  0  0  0  0  0  0  0  0  0  0
    0.3295   -6.5187    1.9069 C   0  0  0  0  0  0  0  0  0  0  0  0
   -0.5260   -8.7862    2.1368 C   0  0  0  0  0  0  0  0  0  0  0  0
   -0.5458   -7.5614    1.5054 C   0  0  0  0  0  0  0  0  0  0  0  0
    0.2879   -5.2870    1.3175 C   0  0  2  0  0  0  0  0  0  0  0  0
    0.3538  -10.3272    3.6802 C   0  0  1  0  0  0  0  0  0  0  0  0
    1.4337  -10.9516    4.0192 C   0  0  0  0  0  0  0  0  0  0  0  0
    2.5549  -10.5044    4.1239 C   0  0  0  0  0  0  0  0  0  0  0  0
   -0.9294  -10.8887    4.0248 C   0  0  0  0  0  0  0  0  0  0  0  0
   -0.5358   -4.8798    0.4860 Br  0  0  0  0  0  0  0  0  0  0  0  0
    3.6358  -11.2984    4.6971 C   0  0  0  0  0  0  0  0  0  0  0  0
    1.4903   -4.4381    1.7729 C   0  0  0  0  0  0  0  0  0  0  0  0
    1.6210   -4.0412    3.1585 O   0  0  0  0  0  0  0  0  0  0  0  0
   -1.9660  -10.3122    4.6817 O   0  0  0  0  0  0  0  0  0  0  0  0
   -1.2300  -12.1970    3.8232 O   0  0  0  0  0  0  0  0  0  0  0  0
    1.0416   -2.8163    3.4004 C   0  0  0  0  0  0  0  0  0  0  0  0
    1.6832   -1.7805    2.9795 C   0  0  0  0  0  0  0  0  0  0  0  0
  4  7  1  0
  3  8  1  0
  8  9  1  0
  9 10  2  3
  8 11  1  1
  7 12  1  6
 10 13  1  0
  7 14  1  0
 14 15  1  0
 11 16  1  0
 11 17  2  0
 15 18  1  0
 18 19  1  0
  1  2  2  0
  2  4  1  0
  4  6  2  0
  5  6  1  0
  3  5  2  0
  1  3  1  0
M  END

$$$$
No_2929-/export/home/yangzhenyu/potential_scad_32_flow//YTHDC2/2024-12-06-03-22-00/
     RDKit          3D

 18 19  0  0  1  0  0  0  0  0999 V2000
    1.1787   -8.0297    3.5154 C   0  0  0  0  0  0  0  0  0  0  0  0
    1.0491   -6.8434    2.9820 C   0  0  0  0  0  0  0  0  0  0  0  0
    0.2462   -8.9560    3.0873 C   0  0  0  0  0  0  0  0  0  0  0  0
    0.3295   -6.5187    1.9069 C   0  0  0  0  0  0  0  0  0  0  0  0
   -0.5260   -8.7862    2.1368 C   0  0  0  0  0  0  0  0  0  0  0  0
   -0.5458   -7.5614    1.5054 C   0  0  0  0  0  0  0  0  0  0  0  0
    0.3636   -5.3203    1.2895 Cl  0  0  0  0  0  0  0  0  0  0  0  0
    0.3646  -10.3389    3.6828 C   0  0  0  0  0  0  0  0  0  0  0  0
    1.4412  -10.9500    4.0187 C   0  0  0  0  0  0  0  0  0  0  0  0
    1.5571  -12.3599    3.7954 C   0  0  0  0  0  0  0  0  0  0  0  0
    1.1531  -12.6141    2.4333 C   0  0  2  0  0  0  0  0  0  0  0  0
    1.4385  -11.7328    1.5795 C   0  0  0  0  0  0  0  0  0  0  0  0
    0.7128  -11.8161    0.3274 C   0  0  0  0  0  0  0  0  0  0  0  0
   -0.1589  -12.7915    0.1579 C   0  0  0  0  0  0  0  0  0  0  0  0
   -0.4690  -13.6714    1.0984 C   0  0  0  0  0  0  0  0  0  0  0  0
    0.1401  -13.5821    2.3508 C   0  0  0  0  0  0  0  0  0  0  0  0
    0.0267  -14.4223    3.3131 O   0  0  0  0  0  0  0  0  0  0  0  0
   -0.8644  -10.7888    4.2088 O   0  0  0  0  0  0  0  0  0  0  0  0
  4  7  1  0
  3  8  1  0
  8  9  1  0
  9 10  1  0
 11 10  1  1
 11 12  1  0
 13 14  1  0
 11 16  1  0
 15 16  1  0
 16 17  2  0
  8 18  2  0
 12 13  1  0
 14 15  1  0
  1  2  2  0
  2  4  1  0
  4  6  2  0
  5  6  1  0
  3  5  2  0
  1  3  1  0
M  END

$$$$
No_2930-/export/home/yangzhenyu/potential_scad_32_flow//YTHDC2/2024-12-06-03-22-00/
     RDKit          3D

 19 20  0  0  0  0  0  0  0  0999 V2000
    1.1787   -8.0297    3.5154 C   0  0  0  0  0  0  0  0  0  0  0  0
    1.1048   -9.2215    3.2892 C   0  0  0  0  0  0  0  0  0  0  0  0
    1.2339   -9.7611    2.0189 C   0  0  0  0  0  0  0  0  0  0  0  0
    1.3583   -9.0036    0.9764 C   0  0  0  0  0  0  0  0  0  0  0  0
    1.5996   -7.6362    1.1311 C   0  0  0  0  0  0  0  0  0  0  0  0
    1.4830   -7.0928    2.3626 C   0  0  0  0  0  0  0  0  0  0  0  0
    1.1008  -11.2372    1.8542 C   0  0  0  0  0  0  0  0  0  0  0  0
    0.5178  -11.9759    2.3445 C   0  0  0  0  0  0  0  0  0  0  0  0
    0.4575  -13.3705    2.1280 C   0  0  0  0  0  0  0  0  0  0  0  0
    1.1632  -14.1013    2.0451 C   0  0  0  0  0  0  0  0  0  0  0  0
    1.0401  -15.5542    1.9839 C   0  0  0  0  0  0  0  0  0  0  0  0
   -0.1527  -16.0372    1.9519 C   0  0  0  0  0  0  0  0  0  0  0  0
   -1.1929  -15.2536    2.0893 C   0  0  0  0  0  0  0  0  0  0  0  0
   -1.0069  -13.8556    2.3031 C   0  0  0  0  0  0  0  0  0  0  0  0
   -2.5368  -15.7168    2.3207 C   0  0  0  0  0  0  0  0  0  0  0  0
   -2.7592  -16.8174    2.9033 O   0  0  0  0  0  0  0  0  0  0  0  0
   -3.5212  -14.9942    1.7856 O   0  0  0  0  0  0  0  0  0  0  0  0
    1.5610   -9.4031   -0.3609 C   0  0  0  0  0  0  0  0  0  0  0  0
    0.4572   -9.8079   -0.9899 O   0  0  0  0  0  0  0  0  0  0  0  0
  3  7  1  0
  7  8  2  3
  8  9  1  0
 13 15  1  0
 15 16  2  0
 15 17  1  0
  4 18  1  0
 18 19  2  0
  1  2  2  0
  2  3  1  0
  3  4  2  0
  4  5  1  0
  5  6  2  0
  1  6  1  0
  9 10  2  0
 10 11  1  0
 11 12  2  0
 12 13  1  0
 13 14  2  0
  9 14  1  0
M  END

$$$$
No_2931-/export/home/yangzhenyu/potential_scad_32_flow//YTHDC2/2024-12-06-03-22-00/
     RDKit          3D

 20 22  0  0  0  0  0  0  0  0999 V2000
    1.1787   -8.0297    3.5154 C   0  0  0  0  0  0  0  0  0  0  0  0
    1.0491   -6.8434    2.9820 C   0  0  0  0  0  0  0  0  0  0  0  0
    0.9905   -9.0774    2.6527 C   0  0  0  0  0  0  0  0  0  0  0  0
    0.7897   -8.9519    1.3691 C   0  0  0  0  0  0  0  0  0  0  0  0
    0.7018   -7.7198    0.7892 C   0  0  0  0  0  0  0  0  0  0  0  0
    0.8918   -6.5957    1.6117 C   0  0  0  0  0  0  0  0  0  0  0  0
    1.0998  -10.4710    3.2437 C   0  0  0  0  0  0  0  0  0  0  0  0
    0.0472  -11.2546    3.3963 C   0  0  0  0  0  0  0  0  0  0  0  0
    0.1622  -12.5732    3.4140 C   0  0  0  0  0  0  0  0  0  0  0  0
    1.4182  -13.1957    3.4048 C   0  0  0  0  0  0  0  0  0  0  0  0
    1.4947  -14.7093    3.1402 C   0  0  0  0  0  0  0  0  0  0  0  0
    0.2472  -15.3423    3.3057 C   0  0  0  0  0  0  0  0  0  0  0  0
    0.2908  -16.7826    3.0993 C   0  0  0  0  0  0  0  0  0  0  0  0
    0.8551   -5.2905    1.1759 C   0  0  0  0  0  0  0  0  0  0  0  0
    1.5539  -17.2933    2.7268 C   0  0  0  0  0  0  0  0  0  0  0  0
    2.7164  -16.6043    2.4600 C   0  0  0  0  0  0  0  0  0  0  0  0
    2.7006  -15.2521    2.6544 C   0  0  0  0  0  0  0  0  0  0  0  0
    2.4032  -11.0144    3.5036 N   0  0  0  0  0  0  0  0  0  0  0  0
    2.5106  -12.2760    3.5178 N   0  0  0  0  0  0  0  0  0  0  0  0
    1.5741   -4.3540    1.8476 O   0  0  0  0  0  0  0  0  0  0  0  0
  3  7  1  0
 10 11  1  0
  6 14  1  0
 14 20  2  0
  7  8  2  0
  8  9  1  0
  9 10  2  0
 10 19  1  0
 18 19  2  0
  7 18  1  0
  1  2  2  0
  2  6  1  0
  5  6  2  0
  4  5  1  0
  3  4  2  0
  1  3  1  0
 11 12  2  0
 12 13  1  0
 13 15  2  0
 15 16  1  0
 16 17  2  0
 11 17  1  0
M  END

$$$$
No_2932-/export/home/yangzhenyu/potential_scad_32_flow//YTHDC2/2024-12-06-03-22-00/
     RDKit          3D

 17 17  0  0  0  0  0  0  0  0999 V2000
    1.1787   -8.0297    3.5154 C   0  0  0  0  0  0  0  0  0  0  0  0
    1.1048   -9.2215    3.2892 C   0  0  0  0  0  0  0  0  0  0  0  0
    1.3627  -10.1721    4.3044 C   0  0  0  0  0  0  0  0  0  0  0  0
    1.0682  -11.5187    4.0618 C   0  0  0  0  0  0  0  0  0  0  0  0
    0.7653  -11.7320    2.7387 C   0  0  0  0  0  0  0  0  0  0  0  0
    0.5661  -10.9730    1.8367 C   0  0  0  0  0  0  0  0  0  0  0  0
    0.7745   -9.6758    2.0361 C   0  0  0  0  0  0  0  0  0  0  0  0
    2.1923   -7.2179    3.1744 C   0  0  0  0  0  0  0  0  0  0  0  0
    0.7174   -8.7288    1.0226 C   0  0  0  0  0  0  0  0  0  0  0  0
   -0.2514   -8.2988    0.4894 C   0  0  0  0  0  0  0  0  0  0  0  0
   -0.3268   -7.6711   -0.7687 C   0  0  0  0  0  0  0  0  0  0  0  0
    0.6472   -8.1336   -1.6038 F   0  0  0  0  0  0  0  0  0  0  0  0
   -1.4361   -7.9094   -1.4981 F   0  0  0  0  0  0  0  0  0  0  0  0
    0.4880  -13.4910    2.4231 C   0  0  0  0  0  0  0  0  0  0  0  0
    1.2789  -14.2776    3.0662 C   0  0  0  0  0  0  0  0  0  0  0  0
    1.0343  -15.6677    2.9295 C   0  0  0  0  0  0  0  0  0  0  0  0
    0.1151  -16.0986    2.1603 C   0  0  0  0  0  0  0  0  0  0  0  0
  1  2  1  0
  1  8  2  0
  7  9  1  0
  9 10  2  3
 10 11  1  0
 11 12  1  0
 11 13  1  0
  5 14  1  0
 14 15  1  0
 15 16  2  3
 16 17  1  0
  2  3  2  0
  3  4  1  0
  4  5  2  0
  5  6  1  0
  6  7  2  0
  2  7  1  0
M  END

$$$$
No_2933-/export/home/yangzhenyu/potential_scad_32_flow//YTHDC2/2024-12-06-03-22-00/
     RDKit          3D

 17 19  0  0  1  0  0  0  0  0999 V2000
    1.1787   -8.0297    3.5154 C   0  0  0  0  0  0  0  0  0  0  0  0
    1.1048   -9.2215    3.2892 C   0  0  0  0  0  0  0  0  0  0  0  0
    1.3627  -10.1721    4.3044 C   0  0  0  0  0  0  0  0  0  0  0  0
    1.0682  -11.5187    4.0618 C   0  0  0  0  0  0  0  0  0  0  0  0
    0.6332  -11.9655    2.9682 C   0  0  0  0  0  0  0  0  0  0  0  0
    0.4776  -11.1308    1.9203 C   0  0  0  0  0  0  0  0  0  0  0  0
    0.7470   -9.8274    2.0368 C   0  0  0  0  0  0  0  0  0  0  0  0
    1.0387   -7.0301    2.5175 C   0  0  0  0  0  0  0  0  0  0  0  0
    0.9130   -7.5288    1.2013 C   0  0  0  0  0  0  0  0  0  0  0  0
    1.0339   -6.5946    0.2140 C   0  0  0  0  0  0  0  0  0  0  0  0
    0.7880   -8.7753    0.9349 C   0  0  0  0  0  0  0  0  0  0  0  0
    0.8978   -5.3177    0.6898 C   0  0  0  0  0  0  0  0  0  0  0  0
    0.4259  -13.3811    2.7286 C   0  0  2  0  0  0  0  0  0  0  0  0
   -0.7398  -13.9269    2.4115 C   0  0  0  0  0  0  0  0  0  0  0  0
   -0.7951  -15.3495    2.3571 C   0  0  0  0  0  0  0  0  0  0  0  0
    0.6957  -15.8875    2.4977 C   0  0  0  0  0  0  0  0  0  0  0  0
    1.4674  -14.6499    2.8418 C   0  0  0  0  0  0  0  0  0  0  0  0
  9 10  1  0
 10 12  2  0
 13  5  1  1
 13 14  1  0
 14 15  2  0
 15 16  1  0
 13 17  1  0
 16 17  1  0
  2  3  1  0
  3  4  2  0
  4  5  1  0
  5  6  2  0
  6  7  1  0
  1  2  2  0
  2  7  1  0
  7 11  2  0
  9 11  1  0
  8  9  2  0
  1  8  1  0
M  END

$$$$
No_2934-/export/home/yangzhenyu/potential_scad_32_flow//YTHDC2/2024-12-06-03-22-00/
     RDKit          3D

 20 22  0  0  0  0  0  0  0  0999 V2000
    1.1787   -8.0297    3.5154 C   0  0  0  0  0  0  0  0  0  0  0  0
    1.1048   -9.2215    3.2892 C   0  0  0  0  0  0  0  0  0  0  0  0
    1.2339   -9.7611    2.0189 C   0  0  0  0  0  0  0  0  0  0  0  0
    1.3583   -9.0036    0.9764 C   0  0  0  0  0  0  0  0  0  0  0  0
    1.5996   -7.6362    1.1311 C   0  0  0  0  0  0  0  0  0  0  0  0
    1.4830   -7.0928    2.3626 C   0  0  0  0  0  0  0  0  0  0  0  0
    1.5395   -5.7300    2.6182 C   0  0  0  0  0  0  0  0  0  0  0  0
    1.1775  -11.2233    1.8407 C   0  0  0  0  0  0  0  0  0  0  0  0
    1.9057  -12.1147    2.3397 C   0  0  0  0  0  0  0  0  0  0  0  0
    1.6867  -13.4551    2.0621 C   0  0  0  0  0  0  0  0  0  0  0  0
    2.2626  -14.4716    2.6778 C   0  0  0  0  0  0  0  0  0  0  0  0
    0.2951  -11.6682    0.8376 C   0  0  0  0  0  0  0  0  0  0  0  0
   -0.0142  -12.8228    0.5133 C   0  0  0  0  0  0  0  0  0  0  0  0
    0.7176  -13.8861    1.1198 C   0  0  0  0  0  0  0  0  0  0  0  0
    1.5845  -15.6489    3.1451 N   0  0  0  0  0  0  0  0  0  0  0  0
    0.3484  -15.5707    3.7194 C   0  0  0  0  0  0  0  0  0  0  0  0
   -0.2243  -16.8408    4.2064 C   0  0  0  0  0  0  0  0  0  0  0  0
    0.4842  -17.9230    4.1233 C   0  0  0  0  0  0  0  0  0  0  0  0
    1.7269  -18.0109    3.5364 C   0  0  0  0  0  0  0  0  0  0  0  0
    2.3134  -16.8270    2.9905 C   0  0  0  0  0  0  0  0  0  0  0  0
  6  7  1  0
  3  8  1  0
 10 11  1  0
 11 15  1  0
 15 16  1  0
 17 18  1  0
 15 20  1  0
 19 20  1  0
 16 17  1  0
 18 19  1  0
  8  9  2  0
  9 10  1  0
 10 14  2  0
 13 14  1  0
 12 13  2  0
  8 12  1  0
  1  2  2  0
  2  3  1  0
  3  4  2  0
  4  5  1  0
  5  6  2  0
  1  6  1  0
M  END

$$$$
No_2935-/export/home/yangzhenyu/potential_scad_32_flow//YTHDC2/2024-12-06-03-22-00/
     RDKit          3D

 11 11  0  0  0  0  0  0  0  0999 V2000
    1.1787   -8.0297    3.5154 C   0  0  0  0  0  0  0  0  0  0  0  0
    1.0491   -6.8434    2.9820 C   0  0  0  0  0  0  0  0  0  0  0  0
    1.0690   -9.1150    2.7206 C   0  0  0  0  0  0  0  0  0  0  0  0
    0.9689   -6.6391    1.6260 C   0  0  0  0  0  0  0  0  0  0  0  0
    0.9670   -9.0334    1.3824 C   0  0  0  0  0  0  0  0  0  0  0  0
    0.8189   -7.7113    0.8022 C   0  0  0  0  0  0  0  0  0  0  0  0
    1.2356  -10.6383    3.3202 C   0  0  0  0  0  0  0  0  0  0  0  0
    1.4460  -11.6602    2.5945 C   0  0  0  0  0  0  0  0  0  0  0  0
    0.5886  -12.6270    2.4405 C   0  0  0  0  0  0  0  0  0  0  0  0
    1.0015  -13.9814    2.8667 C   0  0  0  0  0  0  0  0  0  0  0  0
    0.0832  -14.9954    2.7516 N   0  0  0  0  0  0  0  0  0  0  0  0
  3  7  1  0
  7  8  1  0
  8  9  1  0
  9 10  1  0
 10 11  1  0
  1  2  2  0
  2  4  1  0
  4  6  2  0
  5  6  1  0
  3  5  2  0
  1  3  1  0
M  END

$$$$
No_2936-/export/home/yangzhenyu/potential_scad_32_flow//YTHDC2/2024-12-06-03-22-00/
     RDKit          3D

 20 21  0  0  0  0  0  0  0  0999 V2000
    1.1787   -8.0297    3.5154 C   0  0  0  0  0  0  0  0  0  0  0  0
    1.0491   -6.8434    2.9820 C   0  0  0  0  0  0  0  0  0  0  0  0
    0.0950   -8.8404    3.2292 C   0  0  0  0  0  0  0  0  0  0  0  0
   -0.9173   -8.4596    2.5152 C   0  0  0  0  0  0  0  0  0  0  0  0
   -1.0331   -7.2162    2.0653 C   0  0  0  0  0  0  0  0  0  0  0  0
   -0.0105   -6.3168    2.3081 C   0  0  0  0  0  0  0  0  0  0  0  0
    0.1465  -10.2446    3.6981 C   0  0  0  0  0  0  0  0  0  0  0  0
    0.1907  -11.3369    2.8651 C   0  0  0  0  0  0  0  0  0  0  0  0
    1.0128  -11.8996    2.5974 C   0  0  0  0  0  0  0  0  0  0  0  0
    2.4988  -11.2673    2.9445 C   0  0  0  0  0  0  0  0  0  0  0  0
    1.2287  -13.3625    2.2494 C   0  0  0  0  0  0  0  0  0  0  0  0
    0.7688  -13.7658    1.0361 C   0  0  0  0  0  0  0  0  0  0  0  0
    0.0222   -4.9505    1.8710 Br  0  0  0  0  0  0  0  0  0  0  0  0
    1.0810  -14.8204    0.4800 C   0  0  0  0  0  0  0  0  0  0  0  0
    0.2966  -15.0851   -0.7026 C   0  0  0  0  0  0  0  0  0  0  0  0
   -0.5821  -13.7866   -0.9146 C   0  0  0  0  0  0  0  0  0  0  0  0
   -0.2383  -13.0465    0.2304 C   0  0  0  0  0  0  0  0  0  0  0  0
    2.2747  -14.0822    2.7499 O   0  0  0  0  0  0  0  0  0  0  0  0
   -2.3579   -6.7490    1.3742 O   0  0  0  0  0  0  0  0  0  0  0  0
   -3.3409   -6.3377    1.9183 C   0  0  0  0  0  0  0  0  0  0  0  0
  3  7  1  0
  7  8  1  0
  8  9  2  3
  9 10  1  0
  9 11  1  0
 11 12  1  0
  6 13  1  0
 12 14  1  0
 14 15  2  0
 15 16  1  0
 12 17  1  0
 16 17  2  0
 11 18  2  0
  5 19  1  0
 19 20  1  0
  1  2  2  0
  2  6  1  0
  5  6  2  0
  4  5  1  0
  3  4  2  0
  1  3  1  0
M  END

$$$$
No_2937-/export/home/yangzhenyu/potential_scad_32_flow//YTHDC2/2024-12-06-03-22-00/
     RDKit          3D

 19 20  0  0  1  0  0  0  0  0999 V2000
    1.1787   -8.0297    3.5154 C   0  0  0  0  0  0  0  0  0  0  0  0
    1.1048   -9.2215    3.2892 C   0  0  0  0  0  0  0  0  0  0  0  0
    1.2339   -9.7611    2.0189 C   0  0  0  0  0  0  0  0  0  0  0  0
    1.3583   -9.0036    0.9764 C   0  0  0  0  0  0  0  0  0  0  0  0
    1.5996   -7.6362    1.1311 C   0  0  0  0  0  0  0  0  0  0  0  0
    1.4830   -7.0928    2.3626 C   0  0  0  0  0  0  0  0  0  0  0  0
    1.5395   -5.7300    2.6182 C   0  0  0  0  0  0  0  0  0  0  0  0
    1.1969  -11.3760    1.8433 C   0  0  0  0  0  0  0  0  0  0  0  0
    0.2951  -11.9827    2.0623 C   0  0  0  0  0  0  0  0  0  0  0  0
    0.2264  -13.3724    1.9493 C   0  0  0  0  0  0  0  0  0  0  0  0
   -0.6651  -14.1398    1.6389 C   0  0  0  0  0  0  0  0  0  0  0  0
   -1.9495  -13.5954    1.3434 C   0  0  0  0  0  0  0  0  0  0  0  0
   -2.0595  -12.1565    1.3693 C   0  0  0  0  0  0  0  0  0  0  0  0
   -0.9785  -11.3667    1.6865 C   0  0  0  0  0  0  0  0  0  0  0  0
    1.5855  -14.0233    2.1924 C   0  0  0  0  0  0  0  0  0  0  0  0
    1.6650  -15.4636    2.0887 C   0  0  1  0  0  0  0  0  0  0  0  0
    2.5329  -16.0399    1.1960 C   0  0  0  0  0  0  0  0  0  0  0  0
    2.7027  -17.4562    1.5363 C   0  0  0  0  0  0  0  0  0  0  0  0
    1.0903  -16.0634    3.2645 C   0  0  0  0  0  0  0  0  0  0  0  0
  6  7  1  0
  3  8  1  0
 10 15  1  0
 15 16  1  0
 16 17  1  0
 17 18  2  0
 16 19  1  1
  8  9  1  0
  1  2  2  0
  2  3  1  0
  3  4  2  0
  4  5  1  0
  5  6  2  0
  1  6  1  0
  9 10  2  0
 10 11  1  0
 11 12  2  0
 12 13  1  0
 13 14  2  0
  9 14  1  0
M  END

$$$$
No_2938-/export/home/yangzhenyu/potential_scad_32_flow//YTHDC2/2024-12-06-03-22-00/
     RDKit          3D

 19 20  0  0  0  0  0  0  0  0999 V2000
    1.1787   -8.0297    3.5154 C   0  0  0  0  0  0  0  0  0  0  0  0
    1.1048   -9.2215    3.2892 C   0  0  0  0  0  0  0  0  0  0  0  0
    1.2339   -9.7611    2.0189 C   0  0  0  0  0  0  0  0  0  0  0  0
    1.3583   -9.0036    0.9764 C   0  0  0  0  0  0  0  0  0  0  0  0
    1.5996   -7.6362    1.1311 C   0  0  0  0  0  0  0  0  0  0  0  0
    1.4830   -7.0928    2.3626 C   0  0  0  0  0  0  0  0  0  0  0  0
    1.4898   -5.7274    2.6199 C   0  0  0  0  0  0  0  0  0  0  0  0
    1.1681  -11.2222    1.8390 C   0  0  0  0  0  0  0  0  0  0  0  0
    0.5014  -11.9760    2.2068 C   0  0  0  0  0  0  0  0  0  0  0  0
    0.4167  -13.3685    2.0527 C   0  0  0  0  0  0  0  0  0  0  0  0
    1.5984  -14.1574    2.4634 C   0  0  0  0  0  0  0  0  0  0  0  0
    1.8090  -15.4261    2.0928 C   0  0  0  0  0  0  0  0  0  0  0  0
    0.9343  -16.1017    1.4952 C   0  0  0  0  0  0  0  0  0  0  0  0
   -0.2687  -15.5783    1.2186 C   0  0  0  0  0  0  0  0  0  0  0  0
   -0.5030  -14.1958    1.4730 C   0  0  0  0  0  0  0  0  0  0  0  0
    1.7010   -5.1716    3.8674 N   0  0  0  0  0  0  0  0  0  0  0  0
    1.3513   -4.8353    1.6328 O   0  0  0  0  0  0  0  0  0  0  0  0
   -1.6886  -13.6522    1.0570 C   0  0  0  0  0  0  0  0  0  0  0  0
   -2.6286  -13.7486    0.6650 C   0  0  0  0  0  0  0  0  0  0  0  0
  6  7  1  0
  3  8  1  0
  8  9  2  3
  9 10  1  0
  7 16  1  0
  7 17  2  0
 15 18  1  0
 18 19  3  0
  1  2  2  0
  2  3  1  0
  3  4  2  0
  4  5  1  0
  5  6  2  0
  1  6  1  0
 10 11  2  0
 11 12  1  0
 12 13  2  0
 13 14  1  0
 14 15  2  0
 10 15  1  0
M  END

$$$$
No_2939-/export/home/yangzhenyu/potential_scad_32_flow//YTHDC2/2024-12-06-03-22-00/
     RDKit          3D

 18 19  0  0  1  0  0  0  0  0999 V2000
    1.1787   -8.0297    3.5154 C   0  0  0  0  0  0  0  0  0  0  0  0
    1.1048   -9.2215    3.2892 C   0  0  2  0  0  0  0  0  0  0  0  0
    1.3627  -10.1721    4.3044 C   0  0  0  0  0  0  0  0  0  0  0  0
    2.3720  -10.8948    4.2468 C   0  0  0  0  0  0  0  0  0  0  0  0
    1.0579   -7.0441    2.4219 C   0  0  0  0  0  0  0  0  0  0  0  0
    1.2054   -5.7250    2.5140 C   0  0  0  0  0  0  0  0  0  0  0  0
    3.3828  -10.3980    4.4353 C   0  0  0  0  0  0  0  0  0  0  0  0
    4.4506  -11.2224    4.7517 C   0  0  0  0  0  0  0  0  0  0  0  0
    1.0133   -4.9244    1.3860 C   0  0  0  0  0  0  0  0  0  0  0  0
    1.2132   -3.5472    1.5531 C   0  0  0  0  0  0  0  0  0  0  0  0
    1.9405   -3.0707    2.6566 C   0  0  0  0  0  0  0  0  0  0  0  0
    2.1949   -3.8729    3.8026 C   0  0  0  0  0  0  0  0  0  0  0  0
    1.9130   -5.1717    3.6986 C   0  0  0  0  0  0  0  0  0  0  0  0
    0.7776   -7.7429    1.0798 O   0  0  0  0  0  0  0  0  0  0  0  0
    0.8528   -9.0147    0.9508 C   0  0  1  0  0  0  0  0  0  0  0  0
    0.9393   -9.8518    1.9750 C   0  0  0  0  0  0  0  0  0  0  0  0
    0.6893   -9.3516   -0.3428 C   0  0  0  0  0  0  0  0  0  0  0  0
   -0.1987   -9.0901   -0.9940 P   0  0  0  0  0  0  0  0  0  0  0  0
  1  2  1  0
  2  3  1  6
  3  4  1  0
  1  5  2  0
  5  6  1  0
  4  7  1  0
  7  8  1  0
  5 14  1  0
 14 15  1  0
  2 16  1  0
 15 16  1  0
 15 17  1  1
 17 18  1  0
  6  9  2  0
  9 10  1  0
 10 11  2  0
 11 12  1  0
 12 13  2  0
  6 13  1  0
M  END

$$$$
No_2940-/export/home/yangzhenyu/potential_scad_32_flow//YTHDC2/2024-12-06-03-22-00/
     RDKit          3D

 12 12  0  0  0  0  0  0  0  0999 V2000
    1.1787   -8.0297    3.5154 N   0  0  0  0  0  0  0  0  0  0  0  0
    0.8669   -7.0905    2.8589 C   0  0  0  0  0  0  0  0  0  0  0  0
    1.0447   -7.3244    1.4123 C   0  0  0  0  0  0  0  0  0  0  0  0
    1.3746   -8.4389    1.0864 C   0  0  0  0  0  0  0  0  0  0  0  0
    1.8493   -9.4093    1.8124 C   0  0  0  0  0  0  0  0  0  0  0  0
    1.7421   -9.2119    3.1541 C   0  0  0  0  0  0  0  0  0  0  0  0
    2.0608  -10.3132    4.0586 C   0  0  0  0  0  0  0  0  0  0  0  0
    3.1142  -10.5956    4.4505 N   0  0  0  0  0  0  0  0  0  0  0  0
    1.0280  -11.2056    4.3109 O   0  0  0  0  0  0  0  0  0  0  0  0
    1.6225   -8.6536   -0.4354 C   0  0  0  0  0  0  0  0  0  0  0  0
    2.7516   -8.9394   -0.9510 O   0  0  0  0  0  0  0  0  0  0  0  0
    0.5960   -8.7368   -1.1885 O   0  0  0  0  0  0  0  0  0  0  0  0
  6  7  1  0
  7  8  1  0
  7  9  2  0
  4 10  1  0
 10 11  1  0
 10 12  2  0
  1  2  2  0
  2  3  1  0
  3  4  2  0
  4  5  1  0
  5  6  2  0
  1  6  1  0
M  END

$$$$
No_2941-/export/home/yangzhenyu/potential_scad_32_flow//YTHDC2/2024-12-06-03-22-00/
     RDKit          3D

 16 16  0  0  1  0  0  0  0  0999 V2000
    1.1787   -8.0297    3.5154 C   0  0  0  0  0  0  0  0  0  0  0  0
    1.0491   -6.8434    2.9820 N   0  0  0  0  0  0  0  0  0  0  0  0
    2.0155   -8.9614    2.9776 C   0  0  2  0  0  0  0  0  0  0  0  0
    1.9967   -9.1783    1.7307 C   0  0  0  0  0  0  0  0  0  0  0  0
    1.8641   -8.0625    0.9742 C   0  0  2  0  0  0  0  0  0  0  0  0
    1.2259   -6.9087    1.4845 C   0  0  0  0  0  0  0  0  0  0  0  0
    2.1197   -8.1572   -0.3582 C   0  0  0  0  0  0  0  0  0  0  0  0
    2.1708   -9.3764   -0.9134 O   0  0  0  0  0  0  0  0  0  0  0  0
    2.0388  -10.2897    3.7498 C   0  0  0  0  0  0  0  0  0  0  0  0
    1.1093  -10.9930    3.9013 O   0  0  0  0  0  0  0  0  0  0  0  0
    3.2418  -10.6312    4.3435 O   0  0  0  0  0  0  0  0  0  0  0  0
    1.0817   -5.7760    0.9179 O   0  0  0  0  0  0  0  0  0  0  0  0
    2.7897   -7.3915   -1.0789 O   0  0  0  0  0  0  0  0  0  0  0  0
    2.7165  -10.2231    1.2204 O   0  0  0  0  0  0  0  0  0  0  0  0
    0.6330   -5.6237    3.5072 C   0  0  0  0  0  0  0  0  0  0  0  0
    1.6712   -4.5835    3.4912 C   0  0  0  0  0  0  0  0  0  0  0  0
  1  2  1  0
  1  3  1  0
  3  4  1  0
  4  5  1  0
  2  6  1  0
  5  6  1  0
  5  7  1  6
  7  8  2  0
  3  9  1  1
  9 10  2  0
  9 11  1  0
  6 12  2  0
  7 13  1  0
  4 14  2  0
  2 15  1  0
 15 16  1  0
M  END

$$$$
No_2942-/export/home/yangzhenyu/potential_scad_32_flow//YTHDC2/2024-12-06-03-22-00/
     RDKit          3D

 17 17  0  0  1  0  0  0  0  0999 V2000
    1.1787   -8.0297    3.5154 C   0  0  0  0  0  0  0  0  0  0  0  0
    1.0491   -6.8434    2.9820 C   0  0  2  0  0  0  0  0  0  0  0  0
    1.9985   -8.9840    2.8958 C   0  0  0  0  0  0  0  0  0  0  0  0
    1.7297   -9.2108    1.6335 C   0  0  2  0  0  0  0  0  0  0  0  0
    2.1788  -10.5482    1.1239 C   0  0  0  0  0  0  0  0  0  0  0  0
    0.8226   -6.9903    1.4377 C   0  0  1  0  0  0  0  0  0  0  0  0
    1.5914   -8.1153    0.8208 C   0  0  0  0  0  0  0  0  0  0  0  0
    1.2448  -11.3331    0.7136 O   0  0  0  0  0  0  0  0  0  0  0  0
    2.0835   -7.8813   -0.3462 O   0  0  0  0  0  0  0  0  0  0  0  0
    3.3142  -11.0720    1.3102 O   0  0  0  0  0  0  0  0  0  0  0  0
    2.0798   -5.8254    3.2322 C   0  0  0  0  0  0  0  0  0  0  0  0
    1.6989   -4.5183    2.7833 O   0  0  0  0  0  0  0  0  0  0  0  0
    2.2200   -5.7302    4.5986 O   0  0  0  0  0  0  0  0  0  0  0  0
   -0.1078   -6.3603    0.8733 C   0  0  0  0  0  0  0  0  0  0  0  0
   -1.3084   -6.4013    1.1922 C   0  0  0  0  0  0  0  0  0  0  0  0
   -2.0207   -5.1840    1.4349 C   0  0  0  0  0  0  0  0  0  0  0  0
   -2.4611   -4.7031    2.5872 C   0  0  0  0  0  0  0  0  0  0  0  0
  1  2  1  0
  1  3  1  0
  3  4  1  0
  4  5  1  6
  2  6  1  0
  4  7  1  0
  6  7  1  0
  5  8  2  0
  7  9  2  0
  5 10  1  0
  2 11  1  6
 11 12  1  0
 11 13  2  0
  6 14  1  1
 14 15  1  0
 15 16  1  0
 16 17  1  0
M  END

$$$$
No_2943-/export/home/yangzhenyu/potential_scad_32_flow//YTHDC2/2024-12-06-03-22-00/
     RDKit          3D

 17 17  0  0  0  0  0  0  0  0999 V2000
    1.1787   -8.0297    3.5154 C   0  0  0  0  0  0  0  0  0  0  0  0
    1.1048   -9.2215    3.2892 C   0  0  0  0  0  0  0  0  0  0  0  0
    1.2339   -9.7611    2.0189 C   0  0  0  0  0  0  0  0  0  0  0  0
    1.3583   -9.0036    0.9764 C   0  0  0  0  0  0  0  0  0  0  0  0
    1.5996   -7.6362    1.1311 C   0  0  0  0  0  0  0  0  0  0  0  0
    1.4830   -7.0928    2.3626 C   0  0  0  0  0  0  0  0  0  0  0  0
    1.1008  -11.2372    1.8542 C   0  0  0  0  0  0  0  0  0  0  0  0
    0.5178  -11.9759    2.3445 C   0  0  0  0  0  0  0  0  0  0  0  0
    0.4575  -13.3705    2.1281 C   0  0  0  0  0  0  0  0  0  0  0  0
    1.1633  -14.1013    2.0451 C   0  0  0  0  0  0  0  0  0  0  0  0
    2.4571  -13.8027    2.0240 C   0  0  0  0  0  0  0  0  0  0  0  0
    0.9534  -15.6281    2.1687 C   0  0  0  0  0  0  0  0  0  0  0  0
   -0.0356  -16.0650    2.5343 C   0  0  0  0  0  0  0  0  0  0  0  0
   -0.1865  -17.4686    2.7343 C   0  0  0  0  0  0  0  0  0  0  0  0
    1.5710   -5.4756    2.6777 C   0  0  0  0  0  0  0  0  0  0  0  0
   -0.0770  -18.2589    1.9118 C   0  0  0  0  0  0  0  0  0  0  0  0
   -0.0274  -19.6925    2.2988 C   0  0  0  0  0  0  0  0  0  0  0  0
  3  7  1  0
  7  8  2  3
  8  9  1  0
  9 10  2  3
 10 11  1  0
 10 12  1  0
 12 13  2  3
 13 14  1  0
  6 15  1  0
 14 16  2  3
 16 17  1  0
  1  2  2  0
  2  3  1  0
  3  4  2  0
  4  5  1  0
  5  6  2  0
  1  6  1  0
M  END

$$$$
No_2944-/export/home/yangzhenyu/potential_scad_32_flow//YTHDC2/2024-12-06-03-22-00/
     RDKit          3D

 19 20  0  0  0  0  0  0  0  0999 V2000
    1.1787   -8.0297    3.5154 C   0  0  0  0  0  0  0  0  0  0  0  0
    1.1048   -9.2215    3.2892 C   0  0  0  0  0  0  0  0  0  0  0  0
    1.3627  -10.1721    4.3044 C   0  0  0  0  0  0  0  0  0  0  0  0
    1.7354  -11.4730    3.9023 C   0  0  0  0  0  0  0  0  0  0  0  0
    1.8080  -11.8127    2.7216 C   0  0  0  0  0  0  0  0  0  0  0  0
    1.5854  -11.0021    1.7249 C   0  0  0  0  0  0  0  0  0  0  0  0
    1.3573   -9.7389    1.9287 C   0  0  0  0  0  0  0  0  0  0  0  0
    1.1102   -8.8712    0.9017 C   0  0  0  0  0  0  0  0  0  0  0  0
    1.5724   -9.1697   -0.3048 O   0  0  0  0  0  0  0  0  0  0  0  0
    0.5064   -7.6844    0.9896 N   0  0  0  0  0  0  0  0  0  0  0  0
    1.2204   -6.8307    2.8551 C   0  0  0  0  0  0  0  0  0  0  0  0
    0.7765   -6.6808    1.5662 C   0  0  0  0  0  0  0  0  0  0  0  0
    0.4155   -5.4279    1.1310 O   0  0  0  0  0  0  0  0  0  0  0  0
    2.0552  -13.2372    2.3701 O   0  0  0  0  0  0  0  0  0  0  0  0
    1.7374  -14.2730    3.0739 C   0  0  0  0  0  0  0  0  0  0  0  0
    2.1202  -15.5027    2.4393 C   0  0  0  0  0  0  0  0  0  0  0  0
    1.8150  -16.6685    3.0532 O   0  0  0  0  0  0  0  0  0  0  0  0
    2.8771  -15.5290    1.5252 O   0  0  0  0  0  0  0  0  0  0  0  0
    1.2478   -5.5446    3.7372 O   0  0  0  0  0  0  0  0  0  0  0  0
  1  2  1  0
  7  8  1  0
  8  9  2  0
  8 10  1  0
  1 11  2  0
 10 12  1  0
 11 12  1  0
 12 13  2  0
  5 14  1  0
 14 15  1  0
 15 16  1  0
 16 17  1  0
 16 18  2  0
 11 19  1  0
  2  3  2  0
  3  4  1  0
  4  5  2  0
  5  6  1  0
  6  7  2  0
  2  7  1  0
M  END

$$$$
No_2945-/export/home/yangzhenyu/potential_scad_32_flow//YTHDC2/2024-12-06-03-22-00/
     RDKit          3D

 17 19  0  0  1  0  0  0  0  0999 V2000
    1.1787   -8.0297    3.5154 C   0  0  0  0  0  0  0  0  0  0  0  0
    1.0491   -6.8434    2.9820 C   0  0  0  0  0  0  0  0  0  0  0  0
    0.0950   -8.8404    3.2292 C   0  0  0  0  0  0  0  0  0  0  0  0
   -0.9173   -8.4596    2.5152 C   0  0  0  0  0  0  0  0  0  0  0  0
   -1.0331   -7.2162    2.0653 C   0  0  0  0  0  0  0  0  0  0  0  0
   -0.0105   -6.3168    2.3081 C   0  0  0  0  0  0  0  0  0  0  0  0
    0.1935  -10.3737    3.7416 C   0  0  0  0  0  0  0  0  0  0  0  0
    1.2406  -10.8901    4.0986 C   0  0  0  0  0  0  0  0  0  0  0  0
    1.1186  -12.3145    4.4006 C   0  0  0  0  0  0  0  0  0  0  0  0
    0.1013  -12.9075    3.8532 C   0  0  0  0  0  0  0  0  0  0  0  0
   -0.9044  -12.4076    3.3546 C   0  0  0  0  0  0  0  0  0  0  0  0
   -0.9318  -11.0156    3.2558 C   0  0  0  0  0  0  0  0  0  0  0  0
   -0.1471   -5.0370    1.8051 C   0  0  1  0  0  0  0  0  0  0  0  0
   -0.7922   -4.1536    2.2813 C   0  0  0  0  0  0  0  0  0  0  0  0
   -0.7784   -2.9933    1.9535 C   0  0  0  0  0  0  0  0  0  0  0  0
   -0.0159   -2.5943    0.7808 C   0  0  0  0  0  0  0  0  0  0  0  0
    0.6202   -3.9909    0.4860 C   0  0  0  0  0  0  0  0  0  0  0  0
  3  7  1  0
 13  6  1  1
 13 14  1  0
 14 15  2  0
 15 16  1  0
 13 17  1  0
 16 17  1  0
  1  2  2  0
  2  6  1  0
  5  6  2  0
  4  5  1  0
  3  4  2  0
  1  3  1  0
  7  8  2  0
  8  9  1  0
  9 10  2  0
 10 11  1  0
 11 12  2  0
  7 12  1  0
M  END

$$$$
No_2946-/export/home/yangzhenyu/potential_scad_32_flow//YTHDC2/2024-12-06-03-22-00/
     RDKit          3D

 19 20  0  0  0  0  0  0  0  0999 V2000
    1.1787   -8.0297    3.5154 C   0  0  0  0  0  0  0  0  0  0  0  0
    1.0491   -6.8434    2.9820 C   0  0  0  0  0  0  0  0  0  0  0  0
    1.9985   -8.9840    2.8958 C   0  0  0  0  0  0  0  0  0  0  0  0
    1.1814  -10.1889    2.5497 C   0  0  0  0  0  0  0  0  0  0  0  0
    0.9817  -11.1388    2.8133 C   0  0  0  0  0  0  0  0  0  0  0  0
    0.1125  -12.0891    2.4837 C   0  0  0  0  0  0  0  0  0  0  0  0
   -0.6446  -11.8250    1.4596 C   0  0  0  0  0  0  0  0  0  0  0  0
   -0.2941  -10.7597    0.6431 C   0  0  0  0  0  0  0  0  0  0  0  0
    0.5711   -9.8346    1.1239 C   0  0  0  0  0  0  0  0  0  0  0  0
    1.1126   -6.5544    1.9406 C   0  0  0  0  0  0  0  0  0  0  0  0
    0.8031   -5.1550    1.5027 C   0  0  0  0  0  0  0  0  0  0  0  0
    0.5405   -4.2183    2.3032 C   0  0  0  0  0  0  0  0  0  0  0  0
    0.5407   -4.5303    3.7169 C   0  0  0  0  0  0  0  0  0  0  0  0
    0.8674   -5.7438    4.0595 C   0  0  0  0  0  0  0  0  0  0  0  0
    0.8497   -8.6825    0.4413 C   0  0  0  0  0  0  0  0  0  0  0  0
    1.2841   -8.6472   -0.5517 C   0  0  0  0  0  0  0  0  0  0  0  0
   -0.1580  -13.3702    3.1821 C   0  0  0  0  0  0  0  0  0  0  0  0
    1.0265  -14.2205    3.3946 O   0  0  0  0  0  0  0  0  0  0  0  0
    1.2698  -15.3365    2.5808 C   0  0  0  0  0  0  0  0  0  0  0  0
  1  2  1  0
  1  3  1  0
  3  4  1  0
  9 15  1  0
 15 16  2  0
  6 17  1  0
 17 18  1  0
 18 19  1  0
  2 10  2  0
 10 11  1  0
 11 12  2  0
 12 13  1  0
 13 14  2  0
  2 14  1  0
  4  5  2  0
  5  6  1  0
  6  7  2  0
  7  8  1  0
  8  9  2  0
  4  9  1  0
M  END

$$$$
No_2947-/export/home/yangzhenyu/potential_scad_32_flow//YTHDC2/2024-12-06-03-22-00/
     RDKit          3D

 19 20  0  0  1  0  0  0  0  0999 V2000
    1.1787   -8.0297    3.5154 C   0  0  0  0  0  0  0  0  0  0  0  0
    1.0491   -6.8434    2.9820 C   0  0  0  0  0  0  0  0  0  0  0  0
    0.9905   -9.0774    2.6527 C   0  0  0  0  0  0  0  0  0  0  0  0
    0.7897   -8.9519    1.3691 C   0  0  0  0  0  0  0  0  0  0  0  0
    0.7018   -7.7198    0.7892 C   0  0  0  0  0  0  0  0  0  0  0  0
    0.8918   -6.5957    1.6117 C   0  0  0  0  0  0  0  0  0  0  0  0
    1.0998  -10.4710    3.2437 C   0  0  1  0  0  0  0  0  0  0  0  0
    2.1917  -10.8879    3.7399 C   0  0  0  0  0  0  0  0  0  0  0  0
    0.8624   -5.2493    1.2482 C   0  0  0  0  0  0  0  0  0  0  0  0
   -0.0161  -11.2304    3.3728 C   0  0  0  0  0  0  0  0  0  0  0  0
   -1.1393  -10.5491    3.9487 C   0  0  0  0  0  0  0  0  0  0  0  0
   -2.3745  -10.5263    3.5599 C   0  0  0  0  0  0  0  0  0  0  0  0
   -3.2759   -9.5952    4.1782 C   0  0  0  0  0  0  0  0  0  0  0  0
   -0.1755  -12.4062    2.9254 O   0  0  0  0  0  0  0  0  0  0  0  0
   -4.1182   -9.1271    3.7614 C   0  0  0  0  0  0  0  0  0  0  0  0
   -4.4921   -9.4732    2.4137 C   0  0  0  0  0  0  0  0  0  0  0  0
   -3.6760  -10.3586    1.7022 C   0  0  0  0  0  0  0  0  0  0  0  0
   -2.5465  -10.8118    2.2453 C   0  0  0  0  0  0  0  0  0  0  0  0
    0.2227   -4.2991    2.0566 Cl  0  0  0  0  0  0  0  0  0  0  0  0
  3  7  1  0
  7  8  1  1
  6  9  1  0
  7 10  1  0
 10 11  1  0
 10 14  2  0
  9 19  1  0
 11 12  1  0
 12 13  2  0
 13 15  1  0
 15 16  2  0
 16 17  1  0
 17 18  2  0
 12 18  1  0
  1  2  2  0
  2  6  1  0
  5  6  2  0
  4  5  1  0
  3  4  2  0
  1  3  1  0
M  END

$$$$
No_2948-/export/home/yangzhenyu/potential_scad_32_flow//YTHDC2/2024-12-06-03-22-00/
     RDKit          3D

 20 21  0  0  0  0  0  0  0  0999 V2000
    1.1787   -8.0297    3.5154 C   0  0  0  0  0  0  0  0  0  0  0  0
    1.1048   -9.2215    3.2892 C   0  0  0  0  0  0  0  0  0  0  0  0
    1.2339   -9.7611    2.0189 C   0  0  0  0  0  0  0  0  0  0  0  0
    1.1954  -11.2312    1.8661 C   0  0  0  0  0  0  0  0  0  0  0  0
    1.2996  -11.5815    0.5387 C   0  0  0  0  0  0  0  0  0  0  0  0
    1.3263   -7.1208    2.3229 C   0  0  0  0  0  0  0  0  0  0  0  0
    1.3693   -7.6408    1.0625 C   0  0  0  0  0  0  0  0  0  0  0  0
    1.4358   -8.9950    0.8622 C   0  0  0  0  0  0  0  0  0  0  0  0
    0.9078  -11.9576    2.8785 C   0  0  0  0  0  0  0  0  0  0  0  0
    0.1713  -12.8619    2.7667 C   0  0  0  0  0  0  0  0  0  0  0  0
   -0.0467  -13.4985    1.4957 C   0  0  0  0  0  0  0  0  0  0  0  0
    0.5285  -12.8138    0.3740 C   0  0  0  0  0  0  0  0  0  0  0  0
    1.3389   -5.6391    2.5598 C   0  0  0  0  0  0  0  0  0  0  0  0
    0.9738   -4.8555    1.5414 N   0  0  0  0  0  0  0  0  0  0  0  0
    1.3949   -3.5355    1.4699 C   0  0  0  0  0  0  0  0  0  0  0  0
   -0.6627  -14.7001    1.2788 C   0  0  0  0  0  0  0  0  0  0  0  0
   -0.0079  -15.7867    1.5666 C   0  0  0  0  0  0  0  0  0  0  0  0
   -0.5892  -16.7131    2.4094 C   0  0  0  0  0  0  0  0  0  0  0  0
   -1.8610  -16.9324    2.4570 C   0  0  0  0  0  0  0  0  0  0  0  0
   -2.6514  -15.8790    2.1287 C   0  0  0  0  0  0  0  0  0  0  0  0
  3  4  1  0
  6 13  1  0
 13 14  1  0
 14 15  1  0
 11 16  1  0
 16 17  1  0
 17 18  2  3
 18 19  1  0
 19 20  2  0
  4  5  2  0
  5 12  1  0
 11 12  2  0
 10 11  1  0
  9 10  2  0
  4  9  1  0
  1  2  2  0
  2  3  1  0
  3  8  2  0
  7  8  1  0
  6  7  2  0
  1  6  1  0
M  END

$$$$
No_2949-/export/home/yangzhenyu/potential_scad_32_flow//YTHDC2/2024-12-06-03-22-00/
     RDKit          3D

 18 19  0  0  1  0  0  0  0  0999 V2000
    1.1787   -8.0297    3.5154 C   0  0  0  0  0  0  0  0  0  0  0  0
    1.1048   -9.2215    3.2892 C   0  0  0  0  0  0  0  0  0  0  0  0
    1.2339   -9.7611    2.0189 C   0  0  0  0  0  0  0  0  0  0  0  0
    1.1954  -11.2312    1.8661 C   0  0  2  0  0  0  0  0  0  0  0  0
    1.5546  -12.1691    2.7931 C   0  0  0  0  0  0  0  0  0  0  0  0
    0.5849   -7.0929    2.5729 C   0  0  0  0  0  0  0  0  0  0  0  0
    0.5567   -7.6699    1.1955 C   0  0  0  0  0  0  0  0  0  0  0  0
    0.7903   -8.9699    0.9209 C   0  0  0  0  0  0  0  0  0  0  0  0
    1.5479  -13.4950    2.3569 C   0  0  0  0  0  0  0  0  0  0  0  0
    1.2456  -13.9001    1.1648 C   0  0  0  0  0  0  0  0  0  0  0  0
    1.0233  -13.0589    0.1983 C   0  0  0  0  0  0  0  0  0  0  0  0
    0.9548  -11.6626    0.4956 C   0  0  0  0  0  0  0  0  0  0  0  0
    0.6143   -5.6362    2.6298 C   0  0  1  0  0  0  0  0  0  0  0  0
   -0.5445   -5.0285    2.3476 N   0  0  0  0  0  0  0  0  0  0  0  0
    1.6204   -4.8889    3.1057 C   0  0  0  0  0  0  0  0  0  0  0  0
    2.0159  -14.5409    3.5815 Cl  0  0  0  0  0  0  0  0  0  0  0  0
   -0.4247   -3.6921    2.3044 O   0  0  0  0  0  0  0  0  0  0  0  0
    0.5583  -10.8044   -0.4059 O   0  0  0  0  0  0  0  0  0  0  0  0
  4  3  1  6
  4  5  1  0
  9 10  1  0
  4 12  1  0
 11 12  1  0
  6 13  1  0
 13 14  1  0
 13 15  1  1
  9 16  1  0
 14 17  2  0
 12 18  2  0
  5  9  1  0
 10 11  1  0
  1  2  2  0
  2  3  1  0
  3  8  2  0
  7  8  1  0
  6  7  2  0
  1  6  1  0
M  END

$$$$
No_2950-/export/home/yangzhenyu/potential_scad_32_flow//YTHDC2/2024-12-06-03-22-00/
     RDKit          3D

 18 19  0  0  0  0  0  0  0  0999 V2000
    1.1787   -8.0297    3.5154 C   0  0  0  0  0  0  0  0  0  0  0  0
    1.0491   -6.8434    2.9820 C   0  0  0  0  0  0  0  0  0  0  0  0
    0.9905   -9.0774    2.6527 C   0  0  0  0  0  0  0  0  0  0  0  0
    0.7897   -8.9519    1.3691 C   0  0  0  0  0  0  0  0  0  0  0  0
    0.7018   -7.7198    0.7892 C   0  0  0  0  0  0  0  0  0  0  0  0
    0.8918   -6.5957    1.6117 C   0  0  0  0  0  0  0  0  0  0  0  0
    1.0711  -10.4814    3.2282 C   0  0  0  0  0  0  0  0  0  0  0  0
    1.1227  -11.5770    2.4616 C   0  0  0  0  0  0  0  0  0  0  0  0
    1.1500  -12.9052    3.0782 C   0  0  0  0  0  0  0  0  0  0  0  0
    0.6702  -13.9897    2.4998 C   0  0  0  0  0  0  0  0  0  0  0  0
   -0.3775  -14.0361    1.8374 C   0  0  0  0  0  0  0  0  0  0  0  0
   -0.6515  -12.7388    1.2249 C   0  0  0  0  0  0  0  0  0  0  0  0
   -0.0762  -11.6418    1.5692 C   0  0  0  0  0  0  0  0  0  0  0  0
    1.2879  -15.3858    3.0814 Cl  0  0  0  0  0  0  0  0  0  0  0  0
    0.8379   -5.2863    1.1477 C   0  0  0  0  0  0  0  0  0  0  0  0
   -0.3371   -4.7751    0.7065 C   0  0  0  0  0  0  0  0  0  0  0  0
   -0.3791   -3.4896    0.2060 C   0  0  0  0  0  0  0  0  0  0  0  0
    0.4158   -2.5223    0.8281 C   0  0  0  0  0  0  0  0  0  0  0  0
  3  7  1  0
 10 14  1  0
  6 15  1  0
 15 16  1  0
 16 17  1  0
 17 18  1  0
  7  8  1  0
  1  2  2  0
  2  6  1  0
  5  6  2  0
  4  5  1  0
  3  4  2  0
  1  3  1  0
  8  9  2  0
  9 10  1  0
 10 11  2  0
 11 12  1  0
 12 13  2  0
  8 13  1  0
M  END

$$$$
No_2951-/export/home/yangzhenyu/potential_scad_32_flow//YTHDC2/2024-12-06-03-22-00/
     RDKit          3D

 18 20  0  0  0  0  0  0  0  0999 V2000
    1.1787   -8.0297    3.5154 C   0  0  0  0  0  0  0  0  0  0  0  0
    1.0491   -6.8434    2.9820 C   0  0  0  0  0  0  0  0  0  0  0  0
    0.9905   -9.0774    2.6527 C   0  0  0  0  0  0  0  0  0  0  0  0
    0.7897   -8.9519    1.3691 C   0  0  0  0  0  0  0  0  0  0  0  0
    0.7018   -7.7198    0.7892 C   0  0  0  0  0  0  0  0  0  0  0  0
    0.8918   -6.5957    1.6117 C   0  0  0  0  0  0  0  0  0  0  0  0
    1.0711  -10.4814    3.2282 C   0  0  0  0  0  0  0  0  0  0  0  0
   -0.1055  -11.1328    3.5223 C   0  0  0  0  0  0  0  0  0  0  0  0
   -0.1824  -12.4513    3.3816 C   0  0  0  0  0  0  0  0  0  0  0  0
    0.9472  -13.2655    3.1726 C   0  0  0  0  0  0  0  0  0  0  0  0
    2.1715  -12.6012    2.9116 C   0  0  0  0  0  0  0  0  0  0  0  0
    2.2064  -11.2741    2.8264 C   0  0  0  0  0  0  0  0  0  0  0  0
    0.8996  -14.6381    3.2447 C   0  0  0  0  0  0  0  0  0  0  0  0
    1.9200  -15.4182    2.8055 C   0  0  0  0  0  0  0  0  0  0  0  0
    1.8046  -16.8255    2.9268 C   0  0  0  0  0  0  0  0  0  0  0  0
    0.8544  -17.4792    3.6220 C   0  0  0  0  0  0  0  0  0  0  0  0
   -0.1123  -16.7083    4.1342 C   0  0  0  0  0  0  0  0  0  0  0  0
   -0.1487  -15.3711    4.0008 C   0  0  0  0  0  0  0  0  0  0  0  0
  3  7  1  0
 10 13  1  0
 13 14  2  0
 14 15  1  0
 15 16  2  0
 16 17  1  0
 17 18  2  0
 13 18  1  0
  1  2  2  0
  2  6  1  0
  5  6  2  0
  4  5  1  0
  3  4  2  0
  1  3  1  0
  7  8  2  0
  8  9  1  0
  9 10  2  0
 10 11  1  0
 11 12  2  0
  7 12  1  0
M  END

$$$$
No_2952-/export/home/yangzhenyu/potential_scad_32_flow//YTHDC2/2024-12-06-03-22-00/
     RDKit          3D

 19 19  0  0  1  0  0  0  0  0999 V2000
    1.1787   -8.0297    3.5154 C   0  0  0  0  0  0  0  0  0  0  0  0
    1.0491   -6.8434    2.9820 C   0  0  0  0  0  0  0  0  0  0  0  0
    1.0690   -9.1150    2.7206 C   0  0  0  0  0  0  0  0  0  0  0  0
    0.9689   -6.6391    1.6260 C   0  0  0  0  0  0  0  0  0  0  0  0
    1.2594  -10.4791    3.3003 Cl  0  0  0  0  0  0  0  0  0  0  0  0
    0.7974   -7.6262    0.8327 C   0  0  0  0  0  0  0  0  0  0  0  0
    0.9089   -8.9358    1.3165 C   0  0  0  0  0  0  0  0  0  0  0  0
    0.8105  -10.0103    0.4840 C   0  0  0  0  0  0  0  0  0  0  0  0
    1.9688  -10.6076    0.1934 O   0  0  0  0  0  0  0  0  0  0  0  0
   -0.2469  -10.4460   -0.0380 N   0  0  0  0  0  0  0  0  0  0  0  0
   -1.4865   -9.6643    0.0431 C   0  0  0  0  0  0  0  0  0  0  0  0
   -2.5175  -10.0086    0.7959 C   0  0  0  0  0  0  0  0  0  0  0  0
   -2.5268  -11.2459    1.3100 C   0  0  2  0  0  0  0  0  0  0  0  0
   -3.5296  -11.6842    1.9553 Cl  0  0  0  0  0  0  0  0  0  0  0  0
   -1.6387   -8.6640   -0.9805 O   0  0  0  0  0  0  0  0  0  0  0  0
    0.9400   -5.0933    1.0858 O   0  0  0  0  0  0  0  0  0  0  0  0
    0.5039   -4.1421    1.8571 C   0  0  0  0  0  0  0  0  0  0  0  0
   -1.1994  -11.7831    2.0711 C   0  0  0  0  0  0  0  0  0  0  0  0
   -1.1681  -13.1421    2.2517 C   0  0  0  0  0  0  0  0  0  0  0  0
  3  5  1  0
  7  8  1  0
  8  9  2  0
  8 10  1  0
 10 11  1  0
 11 12  1  0
 12 13  1  0
 13 14  1  1
 11 15  2  0
  4 16  1  0
 16 17  1  0
 13 18  1  0
 18 19  2  0
  1  2  2  0
  2  4  1  0
  4  6  2  0
  6  7  1  0
  3  7  2  0
  1  3  1  0
M  END

$$$$
No_2953-/export/home/yangzhenyu/potential_scad_32_flow//YTHDC2/2024-12-06-03-22-00/
     RDKit          3D

 19 19  0  0  0  0  0  0  0  0999 V2000
    1.1787   -8.0297    3.5154 C   0  0  0  0  0  0  0  0  0  0  0  0
    1.1048   -9.2215    3.2892 C   0  0  0  0  0  0  0  0  0  0  0  0
    1.2339   -9.7611    2.0189 C   0  0  0  0  0  0  0  0  0  0  0  0
    1.3583   -9.0036    0.9764 C   0  0  0  0  0  0  0  0  0  0  0  0
    1.5996   -7.6362    1.1311 C   0  0  0  0  0  0  0  0  0  0  0  0
    1.4830   -7.0928    2.3626 C   0  0  0  0  0  0  0  0  0  0  0  0
    1.1008  -11.2372    1.8542 C   0  0  0  0  0  0  0  0  0  0  0  0
    0.4812  -11.6084    0.6459 O   0  0  0  0  0  0  0  0  0  0  0  0
    1.2619  -12.0916    2.7465 N   0  0  0  0  0  0  0  0  0  0  0  0
    1.1740  -13.4390    2.7228 C   0  0  0  0  0  0  0  0  0  0  0  0
    2.2628  -14.2671    2.4159 C   0  0  0  0  0  0  0  0  0  0  0  0
    2.0052  -15.6736    2.4105 O   0  0  0  0  0  0  0  0  0  0  0  0
    1.6051   -5.6648    2.6646 Cl  0  0  0  0  0  0  0  0  0  0  0  0
    0.8031  -16.0112    2.7652 C   0  0  0  0  0  0  0  0  0  0  0  0
    0.7048  -17.2806    2.9004 C   0  0  0  0  0  0  0  0  0  0  0  0
    1.4672  -18.1612    2.4430 O   0  0  0  0  0  0  0  0  0  0  0  0
    0.1777  -17.9345    4.1412 O   0  0  0  0  0  0  0  0  0  0  0  0
    1.5989   -9.4999   -0.5284 C   0  0  0  0  0  0  0  0  0  0  0  0
    1.6100   -8.6169   -1.2946 O   0  0  0  0  0  0  0  0  0  0  0  0
  3  7  1  0
  7  8  2  0
  7  9  1  0
  9 10  1  0
 10 11  1  0
 11 12  1  0
  6 13  1  0
 12 14  1  0
 14 15  1  0
 15 16  1  0
 15 17  2  0
  4 18  1  0
 18 19  1  0
  1  2  2  0
  2  3  1  0
  3  4  2  0
  4  5  1  0
  5  6  2  0
  1  6  1  0
M  END

$$$$
No_2954-/export/home/yangzhenyu/potential_scad_32_flow//YTHDC2/2024-12-06-03-22-00/
     RDKit          3D

 18 18  0  0  0  0  0  0  0  0999 V2000
    1.1787   -8.0297    3.5154 C   0  0  0  0  0  0  0  0  0  0  0  0
    1.1048   -9.2215    3.2892 C   0  0  0  0  0  0  0  0  0  0  0  0
    1.2339   -9.7611    2.0189 C   0  0  0  0  0  0  0  0  0  0  0  0
    1.3583   -9.0036    0.9764 C   0  0  0  0  0  0  0  0  0  0  0  0
    1.7077   -9.6100   -0.3010 C   0  0  0  0  0  0  0  0  0  0  0  0
    1.3637   -7.1087    2.3226 C   0  0  0  0  0  0  0  0  0  0  0  0
    1.4257   -7.6645    1.0231 C   0  0  0  0  0  0  0  0  0  0  0  0
    1.6722  -10.7840   -0.4044 O   0  0  0  0  0  0  0  0  0  0  0  0
    1.4862   -8.9147   -1.4018 O   0  0  0  0  0  0  0  0  0  0  0  0
    1.1383  -10.1804    4.3877 C   0  0  0  0  0  0  0  0  0  0  0  0
    0.9641  -11.6887    4.0178 O   0  0  0  0  0  0  0  0  0  0  0  0
    1.2859   -5.4206    2.6271 Cl  0  0  0  0  0  0  0  0  0  0  0  0
    2.1314  -12.3978    4.0445 C   0  0  0  0  0  0  0  0  0  0  0  0
    1.8173  -13.6268    3.2735 C   0  0  0  0  0  0  0  0  0  0  0  0
    0.5117  -13.7335    2.8493 C   0  0  0  0  0  0  0  0  0  0  0  0
   -0.0244  -14.9025    3.1340 C   0  0  0  0  0  0  0  0  0  0  0  0
    0.7003  -16.0763    3.3012 C   0  0  0  0  0  0  0  0  0  0  0  0
    2.1966  -15.9182    3.3533 C   0  0  0  0  0  0  0  0  0  0  0  0
  4  5  1  0
  5  8  2  0
  5  9  1  0
  2 10  1  0
 10 11  1  0
  6 12  1  0
 11 13  1  0
 13 14  1  0
 14 15  1  0
 15 16  2  3
 16 17  1  0
 17 18  2  0
  1  2  2  0
  2  3  1  0
  3  4  2  0
  4  7  1  0
  6  7  2  0
  1  6  1  0
M  END

$$$$
No_2955-/export/home/yangzhenyu/potential_scad_32_flow//YTHDC2/2024-12-06-03-22-00/
     RDKit          3D

 18 17  0  0  1  0  0  0  0  0999 V2000
    1.1787   -8.0297    3.5154 C   0  0  0  0  0  0  0  0  0  0  0  0
    1.0491   -6.8434    2.9820 C   0  0  0  0  0  0  0  0  0  0  0  0
    1.9985   -8.9840    2.8958 C   0  0  0  0  0  0  0  0  0  0  0  0
    1.1815  -10.1889    2.5497 C   0  0  2  0  0  0  0  0  0  0  0  0
    0.9817  -11.1388    2.8134 C   0  0  2  0  0  0  0  0  0  0  0  0
    1.6854  -11.5768    4.1035 C   0  0  0  0  0  0  0  0  0  0  0  0
    0.2240   -6.7837    1.8683 O   0  0  0  0  0  0  0  0  0  0  0  0
    1.6913   -5.7275    3.2471 O   0  0  0  0  0  0  0  0  0  0  0  0
    1.1707  -12.2908    1.9529 C   0  0  0  0  0  0  0  0  0  0  0  0
    1.5076  -13.4930    2.4093 C   0  0  0  0  0  0  0  0  0  0  0  0
    1.1384  -13.8629    3.4853 C   0  0  0  0  0  0  0  0  0  0  0  0
    0.3880  -15.2053    3.1886 C   0  0  0  0  0  0  0  0  0  0  0  0
    1.1692  -16.2398    2.7289 O   0  0  0  0  0  0  0  0  0  0  0  0
   -0.8494  -15.3199    3.1811 O   0  0  0  0  0  0  0  0  0  0  0  0
    0.6959   -9.8018    1.1353 C   0  0  0  0  0  0  0  0  0  0  0  0
   -0.6316   -9.9246    0.7385 C   0  0  0  0  0  0  0  0  0  0  0  0
   -1.5731  -10.2027    1.4143 C   0  0  0  0  0  0  0  0  0  0  0  0
   -0.9051   -9.8262   -0.6797 C   0  0  0  0  0  0  0  0  0  0  0  0
  1  2  1  0
  1  3  1  0
  4  3  1  6
  4  5  1  0
  5  6  1  1
  2  7  2  0
  2  8  1  0
  5  9  1  0
  9 10  1  0
 10 11  1  0
 11 12  1  0
 12 13  2  0
 12 14  1  0
  4 15  1  0
 15 16  1  0
 16 17  1  0
 16 18  1  0
M  END

$$$$
No_2956-/export/home/yangzhenyu/potential_scad_32_flow//YTHDC2/2024-12-06-03-22-00/
     RDKit          3D

 18 19  0  0  1  0  0  0  0  0999 V2000
    1.1787   -8.0297    3.5154 C   0  0  0  0  0  0  0  0  0  0  0  0
    1.1048   -9.2215    3.2892 C   0  0  0  0  0  0  0  0  0  0  0  0
    1.3627  -10.1721    4.3044 C   0  0  0  0  0  0  0  0  0  0  0  0
    1.7354  -11.4730    3.9023 C   0  0  0  0  0  0  0  0  0  0  0  0
    1.8080  -11.8127    2.7216 C   0  0  0  0  0  0  0  0  0  0  0  0
    1.5854  -11.0021    1.7249 C   0  0  0  0  0  0  0  0  0  0  0  0
    1.3573   -9.7389    1.9287 C   0  0  0  0  0  0  0  0  0  0  0  0
    1.1102   -8.8712    0.9017 C   0  0  0  0  0  0  0  0  0  0  0  0
    0.5299   -7.6926    1.0325 O   0  0  0  0  0  0  0  0  0  0  0  0
    1.1841   -9.3630   -0.4581 O   0  0  0  0  0  0  0  0  0  0  0  0
    2.1111  -13.2043    2.3260 C   0  0  0  0  0  0  0  0  0  0  0  0
    2.4381  -13.5919    1.0739 N   0  0  0  0  0  0  0  0  0  0  0  0
    2.2572  -14.2068    3.2324 N   0  0  0  0  0  0  0  0  0  0  0  0
    2.3702  -15.4517    2.6775 C   0  0  1  0  0  0  0  0  0  0  0  0
    2.4718  -15.0292    1.2486 C   0  0  0  0  0  0  0  0  0  0  0  0
    2.6823  -16.5482    3.2295 C   0  0  0  0  0  0  0  0  0  0  0  0
    3.6135  -17.4415    2.4734 O   0  0  0  0  0  0  0  0  0  0  0  0
    2.2204  -17.1836    4.1906 O   0  0  0  0  0  0  0  0  0  0  0  0
  1  2  1  0
  7  8  1  0
  8  9  2  0
  8 10  1  0
  5 11  1  0
 11 12  2  0
 11 13  1  0
 13 14  1  0
 12 15  1  0
 14 15  1  0
 14 16  1  1
 16 17  2  0
 16 18  1  0
  2  3  2  0
  3  4  1  0
  4  5  2  0
  5  6  1  0
  6  7  2  0
  2  7  1  0
M  END

$$$$
No_2957-/export/home/yangzhenyu/potential_scad_32_flow//YTHDC2/2024-12-06-03-22-00/
     RDKit          3D

 19 20  0  0  1  0  0  0  0  0999 V2000
    1.1787   -8.0297    3.5154 C   0  0  0  0  0  0  0  0  0  0  0  0
    1.0491   -6.8434    2.9820 C   0  0  0  0  0  0  0  0  0  0  0  0
    0.0950   -8.8404    3.2292 C   0  0  0  0  0  0  0  0  0  0  0  0
   -0.9173   -8.4596    2.5152 C   0  0  0  0  0  0  0  0  0  0  0  0
   -1.0331   -7.2162    2.0653 C   0  0  0  0  0  0  0  0  0  0  0  0
   -0.0105   -6.3168    2.3081 C   0  0  0  0  0  0  0  0  0  0  0  0
    0.1465  -10.2446    3.6981 C   0  0  2  0  0  0  0  0  0  0  0  0
    1.2433  -10.8239    4.0166 C   0  0  0  0  0  0  0  0  0  0  0  0
    1.6493  -11.8557    3.2298 C   0  0  0  0  0  0  0  0  0  0  0  0
    0.4418  -12.6279    2.8482 C   0  0  1  0  0  0  0  0  0  0  0  0
   -0.6360  -11.9577    2.6276 C   0  0  0  0  0  0  0  0  0  0  0  0
   -0.9542  -10.8989    3.2746 C   0  0  0  0  0  0  0  0  0  0  0  0
    0.9061  -13.7719    2.0541 C   0  0  1  0  0  0  0  0  0  0  0  0
    1.7279  -14.7516    2.5404 C   0  0  0  0  0  0  0  0  0  0  0  0
   -0.0388   -4.7892    1.8369 F   0  0  0  0  0  0  0  0  0  0  0  0
    1.8425  -15.9557    1.8787 C   0  0  0  0  0  0  0  0  0  0  0  0
    1.1274  -16.9560    2.2710 C   0  0  0  0  0  0  0  0  0  0  0  0
    0.8305  -17.9208    1.4814 C   0  0  0  0  0  0  0  0  0  0  0  0
    0.3305  -13.9666    0.8668 C   0  0  0  0  0  0  0  0  0  0  0  0
  7  3  1  6
  7  8  1  0
  8  9  1  0
 10  9  1  6
 10 11  1  0
  7 12  1  0
 11 12  1  0
 10 13  1  0
 13 14  1  0
  6 15  1  0
 14 16  1  0
 16 17  1  0
 17 18  1  0
 13 19  1  1
  1  2  2  0
  2  6  1  0
  5  6  2  0
  4  5  1  0
  3  4  2  0
  1  3  1  0
M  END

$$$$
No_2958-/export/home/yangzhenyu/potential_scad_32_flow//YTHDC2/2024-12-06-03-22-00/
     RDKit          3D

 18 18  0  0  0  0  0  0  0  0999 V2000
    1.1787   -8.0297    3.5154 C   0  0  0  0  0  0  0  0  0  0  0  0
    1.1048   -9.2215    3.2892 C   0  0  0  0  0  0  0  0  0  0  0  0
    1.3627  -10.1721    4.3044 C   0  0  0  0  0  0  0  0  0  0  0  0
    1.7354  -11.4730    3.9023 C   0  0  0  0  0  0  0  0  0  0  0  0
    1.8080  -11.8127    2.7216 C   0  0  0  0  0  0  0  0  0  0  0  0
    1.5854  -11.0021    1.7249 C   0  0  0  0  0  0  0  0  0  0  0  0
    1.3573   -9.7389    1.9287 C   0  0  0  0  0  0  0  0  0  0  0  0
    1.1102   -8.8712    0.9017 C   0  0  0  0  0  0  0  0  0  0  0  0
    0.5299   -7.6926    1.0325 O   0  0  0  0  0  0  0  0  0  0  0  0
    1.3970   -9.2634   -0.4035 N   0  0  0  0  0  0  0  0  0  0  0  0
    2.1122  -13.2004    2.3256 C   0  0  0  0  0  0  0  0  0  0  0  0
    1.9001  -14.2511    3.1162 O   0  0  0  0  0  0  0  0  0  0  0  0
    2.5276  -13.4707    1.0736 O   0  0  0  0  0  0  0  0  0  0  0  0
    2.4912   -7.3478    3.5209 O   0  0  0  0  0  0  0  0  0  0  0  0
    0.1645   -7.2139    3.4043 O   0  0  0  0  0  0  0  0  0  0  0  0
    1.5607   -8.6154   -1.4867 O   0  0  0  0  0  0  0  0  0  0  0  0
    1.4981  -15.4433    2.5970 C   0  0  0  0  0  0  0  0  0  0  0  0
    0.0796  -15.5632    2.5284 C   0  0  0  0  0  0  0  0  0  0  0  0
  1  2  1  0
  7  8  1  0
  8  9  2  0
  8 10  1  0
  5 11  1  0
 11 12  1  0
 11 13  2  0
  1 14  2  0
  1 15  1  0
 10 16  2  0
 12 17  1  0
 17 18  1  0
  2  3  2  0
  3  4  1  0
  4  5  2  0
  5  6  1  0
  6  7  2  0
  2  7  1  0
M  END

$$$$
No_2959-/export/home/yangzhenyu/potential_scad_32_flow//YTHDC2/2024-12-06-03-22-00/
     RDKit          3D

 18 19  0  0  0  0  0  0  0  0999 V2000
    1.1787   -8.0297    3.5154 N   0  0  0  0  0  0  0  0  0  0  0  0
    1.0818   -9.0751    3.2053 C   0  0  0  0  0  0  0  0  0  0  0  0
    0.7576   -9.3725    1.9159 C   0  0  0  0  0  0  0  0  0  0  0  0
    0.7445  -10.8746    1.6491 C   0  0  0  0  0  0  0  0  0  0  0  0
    0.9910  -11.7526    2.6067 C   0  0  0  0  0  0  0  0  0  0  0  0
    1.4405  -11.4331    3.8064 C   0  0  0  0  0  0  0  0  0  0  0  0
    1.4304  -10.0463    4.1669 C   0  0  0  0  0  0  0  0  0  0  0  0
    1.1410   -6.8244    2.7961 C   0  0  0  0  0  0  0  0  0  0  0  0
    1.2730   -7.1327    1.3540 N   0  0  0  0  0  0  0  0  0  0  0  0
    1.4341   -6.1090    0.4894 C   0  0  0  0  0  0  0  0  0  0  0  0
    0.9547  -13.2121    2.3455 C   0  0  0  0  0  0  0  0  0  0  0  0
   -0.2694  -13.6611    1.9464 C   0  0  0  0  0  0  0  0  0  0  0  0
   -0.2744  -15.1261    1.7651 C   0  0  0  0  0  0  0  0  0  0  0  0
    0.9366  -15.9048    2.1092 C   0  0  0  0  0  0  0  0  0  0  0  0
    2.0889  -15.3355    2.4465 C   0  0  0  0  0  0  0  0  0  0  0  0
    2.1221  -13.9146    2.6391 C   0  0  0  0  0  0  0  0  0  0  0  0
    1.4760   -5.5189    3.2291 N   0  0  0  0  0  0  0  0  0  0  0  0
    0.7404   -4.9304    1.2040 C   0  0  0  0  0  0  0  0  0  0  0  0
  1  2  1  0
  1  8  2  3
  8  9  1  0
  9 10  1  0
  5 11  1  0
  8 17  1  0
 10 18  1  0
 11 12  2  0
 12 13  1  0
 13 14  2  0
 14 15  1  0
 15 16  2  0
 11 16  1  0
  2  3  2  0
  3  4  1  0
  4  5  2  0
  5  6  1  0
  6  7  2  0
  2  7  1  0
M  END

$$$$
No_2960-/export/home/yangzhenyu/potential_scad_32_flow//YTHDC2/2024-12-06-03-22-00/
     RDKit          3D

 19 20  0  0  1  0  0  0  0  0999 V2000
    1.1787   -8.0297    3.5154 C   0  0  0  0  0  0  0  0  0  0  0  0
    1.1048   -9.2215    3.2892 C   0  0  0  0  0  0  0  0  0  0  0  0
    1.3627  -10.1721    4.3044 C   0  0  0  0  0  0  0  0  0  0  0  0
    1.7354  -11.4730    3.9023 C   0  0  0  0  0  0  0  0  0  0  0  0
    1.8080  -11.8127    2.7216 C   0  0  0  0  0  0  0  0  0  0  0  0
    1.5854  -11.0021    1.7249 C   0  0  0  0  0  0  0  0  0  0  0  0
    1.3573   -9.7389    1.9287 C   0  0  0  0  0  0  0  0  0  0  0  0
    1.1102   -8.8712    0.9017 C   0  0  1  0  0  0  0  0  0  0  0  0
    1.5724   -9.1697   -0.3048 Br  0  0  0  0  0  0  0  0  0  0  0  0
   -0.2374   -8.3064    0.9372 C   0  0  0  0  0  0  0  0  0  0  0  0
   -1.4296   -8.9194    1.0698 C   0  0  0  0  0  0  0  0  0  0  0  0
   -2.4089   -8.5125    0.6630 C   0  0  0  0  0  0  0  0  0  0  0  0
   -2.5910   -7.2149    0.2310 C   0  0  0  0  0  0  0  0  0  0  0  0
   -1.4651   -6.4046    0.1012 C   0  0  0  0  0  0  0  0  0  0  0  0
   -0.2646   -6.9606    0.4330 C   0  0  0  0  0  0  0  0  0  0  0  0
    2.1560  -13.2288    2.4066 O   0  0  0  0  0  0  0  0  0  0  0  0
    1.4115  -14.0978    1.7964 C   0  0  0  0  0  0  0  0  0  0  0  0
    0.5983  -14.7198    2.6004 C   0  0  0  0  0  0  0  0  0  0  0  0
   -0.5328  -14.6526    2.5159 O   0  0  0  0  0  0  0  0  0  0  0  0
  1  2  1  0
  7  8  1  0
  8  9  1  6
  8 10  1  0
  5 16  1  0
 16 17  1  0
 17 18  1  0
 18 19  2  0
  2  3  2  0
  3  4  1  0
  4  5  2  0
  5  6  1  0
  6  7  2  0
  2  7  1  0
 10 11  2  0
 11 12  1  0
 12 13  2  0
 13 14  1  0
 14 15  2  0
 10 15  1  0
M  END

$$$$
No_2961-/export/home/yangzhenyu/potential_scad_32_flow//YTHDC2/2024-12-06-03-22-00/
     RDKit          3D

 20 20  0  0  1  0  0  0  0  0999 V2000
    1.1787   -8.0297    3.5154 C   0  0  0  0  0  0  0  0  0  0  0  0
    1.0491   -6.8434    2.9820 C   0  0  0  0  0  0  0  0  0  0  0  0
    1.9985   -8.9840    2.8958 C   0  0  1  0  0  0  0  0  0  0  0  0
    1.9135  -10.3404    3.6266 C   0  0  0  0  0  0  0  0  0  0  0  0
    1.3291  -11.3908    3.0222 C   0  0  1  0  0  0  0  0  0  0  0  0
    1.0344  -11.3281    1.7959 C   0  0  0  0  0  0  0  0  0  0  0  0
    0.5050   -6.6553    1.7492 C   0  0  0  0  0  0  0  0  0  0  0  0
    1.6364  -10.2524    0.9337 C   0  0  0  0  0  0  0  0  0  0  0  0
    1.7369   -9.0242    1.6103 C   0  0  0  0  0  0  0  0  0  0  0  0
    0.9461   -5.5965    0.9838 Cl  0  0  0  0  0  0  0  0  0  0  0  0
    1.2567  -12.5230    3.7054 C   0  0  0  0  0  0  0  0  0  0  0  0
    1.1213  -13.6656    2.8464 O   0  0  0  0  0  0  0  0  0  0  0  0
    1.5421  -10.3767   -0.2999 O   0  0  0  0  0  0  0  0  0  0  0  0
   -0.5907   -7.2653    1.3332 O   0  0  0  0  0  0  0  0  0  0  0  0
    0.9779  -14.7608    3.0991 C   0  0  0  0  0  0  0  0  0  0  0  0
    0.7494  -15.4108    4.1461 S   0  0  0  0  0  0  0  0  0  0  0  0
    1.5865  -15.6016    1.8949 C   0  0  0  0  0  0  0  0  0  0  0  0
    1.9985  -14.9782    0.8776 O   0  0  0  0  0  0  0  0  0  0  0  0
    1.8904  -16.9247    1.9120 O   0  0  0  0  0  0  0  0  0  0  0  0
    2.6723  -10.3172    4.7126 O   0  0  0  0  0  0  0  0  0  0  0  0
  1  2  1  0
  3  1  1  1
  3  4  1  0
  4  5  1  0
  5  6  1  0
  2  7  1  0
  6  8  1  0
  3  9  1  0
  8  9  1  0
  7 10  1  0
  5 11  1  6
 11 12  1  0
  8 13  2  0
  7 14  2  0
 12 15  1  0
 15 16  2  0
 15 17  1  0
 17 18  2  0
 17 19  1  0
  4 20  2  0
M  END

$$$$
No_2962-/export/home/yangzhenyu/potential_scad_32_flow//YTHDC2/2024-12-06-03-22-00/
     RDKit          3D

 18 19  0  0  1  0  0  0  0  0999 V2000
    1.1787   -8.0297    3.5154 C   0  0  0  0  0  0  0  0  0  0  0  0
    1.1048   -9.2215    3.2892 C   0  0  0  0  0  0  0  0  0  0  0  0
    1.3627  -10.1721    4.3044 C   0  0  0  0  0  0  0  0  0  0  0  0
    1.0682  -11.5187    4.0618 C   0  0  0  0  0  0  0  0  0  0  0  0
    0.6332  -11.9655    2.9682 C   0  0  0  0  0  0  0  0  0  0  0  0
    0.4776  -11.1308    1.9203 C   0  0  0  0  0  0  0  0  0  0  0  0
    0.7470   -9.8274    2.0368 C   0  0  0  0  0  0  0  0  0  0  0  0
    0.5535   -7.1314    2.6861 C   0  0  0  0  0  0  0  0  0  0  0  0
    0.2950   -7.6000    1.3275 C   0  0  0  0  0  0  0  0  0  0  0  0
    0.2692   -8.8631    1.0973 C   0  0  1  0  0  0  0  0  0  0  0  0
   -0.0070   -6.7080    0.3888 O   0  0  0  0  0  0  0  0  0  0  0  0
    0.4773  -13.6209    2.7227 C   0  0  0  0  0  0  0  0  0  0  0  0
    1.5327  -14.3822    3.1595 C   0  0  0  0  0  0  0  0  0  0  0  0
    2.4340  -14.6293    2.5119 C   0  0  0  0  0  0  0  0  0  0  0  0
    2.7137  -16.0114    2.2473 N   0  0  0  0  0  0  0  0  0  0  0  0
    0.0202   -9.3111   -0.1869 C   0  0  0  0  0  0  0  0  0  0  0  0
    0.8244   -9.2972   -1.2390 C   0  0  0  0  0  0  0  0  0  0  0  0
    2.1177  -16.7300    2.6326 H   0  0  0  0  0  0  0  0  0  0  0  0
  1  2  1  0
  8  9  1  0
  7 10  1  0
  9 10  1  0
  9 11  2  0
  5 12  1  0
 12 13  1  0
 13 14  1  0
 14 15  2  0
 10 16  1  6
 16 17  1  0
  1  8  1  0
  2  3  2  0
  3  4  1  0
  4  5  2  0
  5  6  1  0
  6  7  2  0
  2  7  1  0
 15 18  1  0
M  END

$$$$
No_2963-/export/home/yangzhenyu/potential_scad_32_flow//YTHDC2/2024-12-06-03-22-00/
     RDKit          3D

 19 19  0  0  1  0  0  0  0  0999 V2000
    1.1787   -8.0297    3.5154 N   0  0  0  0  0  0  0  0  0  0  0  0
    1.0818   -9.0751    3.2053 C   0  0  2  0  0  0  0  0  0  0  0  0
    0.7576   -9.3725    1.9159 C   0  0  0  0  0  0  0  0  0  0  0  0
    0.8823   -8.4917    1.0547 C   0  0  1  0  0  0  0  0  0  0  0  0
    1.4631   -7.3107    1.2451 C   0  0  0  0  0  0  0  0  0  0  0  0
    1.6470   -6.9326    2.5669 C   0  0  0  0  0  0  0  0  0  0  0  0
    1.0024  -10.2234    4.2810 C   0  0  2  0  0  0  0  0  0  0  0  0
    1.9594  -11.1450    4.2734 C   0  0  0  0  0  0  0  0  0  0  0  0
    0.8156   -8.8963   -0.4084 C   0  0  0  0  0  0  0  0  0  0  0  0
    1.6824   -8.8094   -1.2489 O   0  0  0  0  0  0  0  0  0  0  0  0
   -0.3635   -9.4824   -0.7556 O   0  0  0  0  0  0  0  0  0  0  0  0
    3.0670  -10.8077    4.5006 C   0  0  0  0  0  0  0  0  0  0  0  0
    4.1362  -11.1917    4.0929 O   0  0  0  0  0  0  0  0  0  0  0  0
    3.3837  -10.0245    5.7658 O   0  0  0  0  0  0  0  0  0  0  0  0
    1.7598   -5.6478    3.0798 O   0  0  0  0  0  0  0  0  0  0  0  0
   -0.2838  -10.2473    4.8889 C   0  0  0  0  0  0  0  0  0  0  0  0
   -1.4500  -10.2455    4.2111 C   0  0  0  0  0  0  0  0  0  0  0  0
   -1.6910  -11.2824    3.2191 C   0  0  0  0  0  0  0  0  0  0  0  0
   -2.5422   -9.4798    4.5983 C   0  0  0  0  0  0  0  0  0  0  0  0
  1  2  1  0
  3  4  1  0
  1  6  1  0
  5  6  1  0
  2  7  1  0
  7  8  1  6
  4  9  1  6
  9 10  2  0
  9 11  1  0
  8 12  1  0
 12 13  2  0
 12 14  1  0
  6 15  2  0
  7 16  1  0
 16 17  1  0
 17 18  1  0
 17 19  1  0
  2  3  1  1
  4  5  1  0
M  END

$$$$
No_2964-/export/home/yangzhenyu/potential_scad_32_flow//YTHDC2/2024-12-06-03-22-00/
     RDKit          3D

 19 19  0  0  1  0  0  0  0  0999 V2000
    1.1787   -8.0297    3.5154 C   0  0  0  0  0  0  0  0  0  0  0  0
    1.0491   -6.8434    2.9820 C   0  0  0  0  0  0  0  0  0  0  0  0
    1.9985   -8.9840    2.8958 C   0  0  0  0  0  0  0  0  0  0  0  0
    1.9135  -10.3404    3.6266 N   0  0  0  0  0  0  0  0  0  0  0  0
    0.6179   -6.7382    1.6818 C   0  0  0  0  0  0  0  0  0  0  0  0
    0.1732   -5.5316    1.2884 C   0  0  0  0  0  0  0  0  0  0  0  0
    1.0457  -11.0336    3.7756 C   0  0  1  0  0  0  0  0  0  0  0  0
    0.4394   -4.3565    2.0985 C   0  0  0  0  0  0  0  0  0  0  0  0
    0.9878   -4.4921    3.3791 C   0  0  0  0  0  0  0  0  0  0  0  0
    1.3440   -5.7663    3.8020 C   0  0  0  0  0  0  0  0  0  0  0  0
    1.3081  -12.4220    4.0016 C   0  0  0  0  0  0  0  0  0  0  0  0
    2.1781  -13.0579    3.1881 C   0  0  0  0  0  0  0  0  0  0  0  0
    1.7797  -14.4522    2.8120 C   0  0  0  0  0  0  0  0  0  0  0  0
    2.6401  -15.1800    2.0303 C   0  0  0  0  0  0  0  0  0  0  0  0
    2.3715  -16.5916    1.9783 O   0  0  0  0  0  0  0  0  0  0  0  0
    2.3832   -9.1762    1.6800 O   0  0  0  0  0  0  0  0  0  0  0  0
    3.2146  -14.8168    1.0809 O   0  0  0  0  0  0  0  0  0  0  0  0
    0.0125   -3.0672    1.6463 Cl  0  0  0  0  0  0  0  0  0  0  0  0
   -0.2387  -10.5972    3.8650 Br  0  0  0  0  0  0  0  0  0  0  0  0
  1  2  1  0
  1  3  1  0
  3  4  1  0
  4  7  1  0
  7 11  1  0
 11 12  1  0
 12 13  1  0
 13 14  1  0
 14 15  1  0
  3 16  2  0
 14 17  2  0
  8 18  1  0
  7 19  1  1
  2  5  2  0
  5  6  1  0
  6  8  2  0
  8  9  1  0
  9 10  2  0
  2 10  1  0
M  END

$$$$
No_2965-/export/home/yangzhenyu/potential_scad_32_flow//YTHDC2/2024-12-06-03-22-00/
     RDKit          3D

 19 21  0  0  0  0  0  0  0  0999 V2000
    1.1787   -8.0297    3.5154 C   0  0  0  0  0  0  0  0  0  0  0  0
    1.0491   -6.8434    2.9820 C   0  0  0  0  0  0  0  0  0  0  0  0
    0.0950   -8.8404    3.2292 C   0  0  0  0  0  0  0  0  0  0  0  0
   -0.9173   -8.4596    2.5152 C   0  0  0  0  0  0  0  0  0  0  0  0
   -1.0331   -7.2162    2.0653 C   0  0  0  0  0  0  0  0  0  0  0  0
   -0.0105   -6.3168    2.3081 C   0  0  0  0  0  0  0  0  0  0  0  0
    0.0485   -4.9783    1.8782 C   0  0  0  0  0  0  0  0  0  0  0  0
   -0.6974   -4.6139    0.8644 C   0  0  0  0  0  0  0  0  0  0  0  0
   -0.9180   -3.5193    0.5673 C   0  0  0  0  0  0  0  0  0  0  0  0
   -0.1429   -2.4115    1.0656 C   0  0  0  0  0  0  0  0  0  0  0  0
    0.7432   -2.6592    1.9795 C   0  0  0  0  0  0  0  0  0  0  0  0
    0.8890   -3.9997    2.3855 C   0  0  0  0  0  0  0  0  0  0  0  0
    0.1075  -10.2415    3.7148 C   0  0  0  0  0  0  0  0  0  0  0  0
    1.2183  -10.8885    4.0885 C   0  0  0  0  0  0  0  0  0  0  0  0
    1.1170  -12.3089    4.0007 C   0  0  0  0  0  0  0  0  0  0  0  0
    0.0125  -12.9036    3.6851 C   0  0  0  0  0  0  0  0  0  0  0  0
   -1.0384  -12.2534    3.2476 C   0  0  0  0  0  0  0  0  0  0  0  0
   -1.0228  -10.8615    3.2821 C   0  0  0  0  0  0  0  0  0  0  0  0
    0.0741  -14.3153    3.6888 O   0  0  0  0  0  0  0  0  0  0  0  0
  6  7  1  0
  3 13  1  0
 16 19  1  0
 13 14  2  0
 14 15  1  0
 15 16  2  0
 16 17  1  0
 17 18  2  0
 13 18  1  0
  1  2  2  0
  2  6  1  0
  5  6  2  0
  4  5  1  0
  3  4  2  0
  1  3  1  0
  7  8  2  0
  8  9  1  0
  9 10  2  0
 10 11  1  0
 11 12  2  0
  7 12  1  0
M  END

$$$$
No_2966-/export/home/yangzhenyu/potential_scad_32_flow//YTHDC2/2024-12-06-03-22-00/
     RDKit          3D

 19 20  0  0  1  0  0  0  0  0999 V2000
    1.1787   -8.0297    3.5154 C   0  0  0  0  0  0  0  0  0  0  0  0
    1.0491   -6.8434    2.9820 C   0  0  0  0  0  0  0  0  0  0  0  0
    0.9905   -9.0774    2.6527 C   0  0  0  0  0  0  0  0  0  0  0  0
    0.7897   -8.9519    1.3691 C   0  0  0  0  0  0  0  0  0  0  0  0
    0.7018   -7.7198    0.7892 C   0  0  0  0  0  0  0  0  0  0  0  0
    0.8918   -6.5957    1.6117 C   0  0  0  0  0  0  0  0  0  0  0  0
    1.0998  -10.4710    3.2437 C   0  0  1  0  0  0  0  0  0  0  0  0
    0.0471  -11.2546    3.3963 C   0  0  0  0  0  0  0  0  0  0  0  0
   -1.1989  -10.6161    3.7011 C   0  0  0  0  0  0  0  0  0  0  0  0
    0.8603   -5.2612    1.2139 C   0  0  0  0  0  0  0  0  0  0  0  0
   -1.3482   -9.7365    4.8109 C   0  0  0  0  0  0  0  0  0  0  0  0
   -2.4223   -9.0519    5.0617 C   0  0  0  0  0  0  0  0  0  0  0  0
   -3.5043   -9.2373    4.3112 C   0  0  0  0  0  0  0  0  0  0  0  0
   -3.5009  -10.0861    3.2832 C   0  0  0  0  0  0  0  0  0  0  0  0
   -2.3713  -10.8408    2.9632 C   0  0  0  0  0  0  0  0  0  0  0  0
    0.2127  -12.5366    3.4266 N   0  0  0  0  0  0  0  0  0  0  0  0
    2.4077  -10.9662    3.3850 C   0  0  0  0  0  0  0  0  0  0  0  0
    2.4701  -12.3725    3.6049 C   0  0  0  0  0  0  0  0  0  0  0  0
   -0.5745  -13.1434    3.6064 H   0  0  0  0  0  0  0  0  0  0  0  0
  3  7  1  0
  7  8  1  0
  8  9  1  0
  6 10  1  0
  8 16  2  0
  7 17  1  6
 17 18  1  0
  1  2  2  0
  2  6  1  0
  5  6  2  0
  4  5  1  0
  3  4  2  0
  1  3  1  0
  9 11  2  0
 11 12  1  0
 12 13  2  0
 13 14  1  0
 14 15  2  0
  9 15  1  0
 16 19  1  0
M  END

$$$$
No_2967-/export/home/yangzhenyu/potential_scad_32_flow//YTHDC2/2024-12-06-03-22-00/
     RDKit          3D

 18 19  0  0  1  0  0  0  0  0999 V2000
    1.1787   -8.0297    3.5154 C   0  0  0  0  0  0  0  0  0  0  0  0
    1.1048   -9.2215    3.2892 C   0  0  0  0  0  0  0  0  0  0  0  0
    1.4683  -10.2314    4.1915 C   0  0  0  0  0  0  0  0  0  0  0  0
    0.8445   -6.9865    2.5175 C   0  0  0  0  0  0  0  0  0  0  0  0
    0.3587   -7.3973    1.3953 C   0  0  0  0  0  0  0  0  0  0  0  0
    0.1901   -8.6971    1.0711 C   0  0  0  0  0  0  0  0  0  0  0  0
   -0.2481   -9.0184   -0.2764 C   0  0  0  0  0  0  0  0  0  0  0  0
    0.5993   -9.7155    1.9143 C   0  0  0  0  0  0  0  0  0  0  0  0
    1.8373  -11.5724    3.6364 N   0  0  0  0  0  0  0  0  0  0  0  0
   -1.4782   -8.9568   -0.4883 N   0  0  0  0  0  0  0  0  0  0  0  0
    0.7115  -10.9449    1.6787 C   0  0  0  0  0  0  0  0  0  0  0  0
    1.3673  -11.9591    2.6282 C   0  0  1  0  0  0  0  0  0  0  0  0
    1.5574  -13.2310    2.2223 C   0  0  0  0  0  0  0  0  0  0  0  0
    1.5639  -14.2925    3.0762 C   0  0  0  0  0  0  0  0  0  0  0  0
   -1.9620   -8.8883   -1.7274 C   0  0  0  0  0  0  0  0  0  0  0  0
   -2.9538   -8.9480   -2.0662 C   0  0  0  0  0  0  0  0  0  0  0  0
   -3.9403   -9.0086   -1.0918 C   0  0  0  0  0  0  0  0  0  0  0  0
   -3.6873   -9.0031    0.2254 C   0  0  0  0  0  0  0  0  0  0  0  0
  2  3  1  0
  6  7  1  0
  3  9  1  0
  7 10  1  0
  8 11  1  0
  9 12  1  0
 11 12  1  0
 12 13  1  6
 13 14  1  0
 10 15  1  0
 15 16  2  3
 16 17  1  0
 17 18  2  0
  1  2  2  0
  2  8  1  0
  6  8  2  0
  5  6  1  0
  4  5  2  0
  1  4  1  0
M  END

$$$$
No_2968-/export/home/yangzhenyu/potential_scad_32_flow//YTHDC2/2024-12-06-03-22-00/
     RDKit          3D

 19 20  0  0  1  0  0  0  0  0999 V2000
    1.1787   -8.0297    3.5154 C   0  0  0  0  0  0  0  0  0  0  0  0
    1.1048   -9.2215    3.2892 C   0  0  0  0  0  0  0  0  0  0  0  0
    1.2339   -9.7611    2.0189 C   0  0  0  0  0  0  0  0  0  0  0  0
    1.3583   -9.0036    0.9764 C   0  0  0  0  0  0  0  0  0  0  0  0
    1.5996   -7.6362    1.1311 C   0  0  0  0  0  0  0  0  0  0  0  0
    1.4830   -7.0928    2.3626 C   0  0  0  0  0  0  0  0  0  0  0  0
    1.1008  -11.2372    1.8542 C   0  0  0  0  0  0  0  0  0  0  0  0
    0.5178  -11.9759    2.3445 C   0  0  0  0  0  0  0  0  0  0  0  0
   -0.4557  -11.5167    3.4352 C   0  0  0  0  0  0  0  0  0  0  0  0
    0.2605  -13.4149    2.0553 C   0  0  2  0  0  0  0  0  0  0  0  0
    1.3575  -14.2791    2.5715 C   0  0  0  0  0  0  0  0  0  0  0  0
    1.5953  -15.4071    2.1147 C   0  0  0  0  0  0  0  0  0  0  0  0
    0.8008  -15.9826    1.2755 C   0  0  0  0  0  0  0  0  0  0  0  0
   -0.2631  -15.3469    0.8026 C   0  0  0  0  0  0  0  0  0  0  0  0
   -0.5011  -13.9657    1.2583 C   0  0  0  0  0  0  0  0  0  0  0  0
    1.5685   -5.6641    2.6244 N   0  0  0  0  0  0  0  0  0  0  0  0
    2.1885  -13.7144    3.6003 O   0  0  0  0  0  0  0  0  0  0  0  0
    1.0898   -4.7048    1.8984 C   0  0  0  0  0  0  0  0  0  0  0  0
    1.4529   -3.3903    2.1390 Cl  0  0  0  0  0  0  0  0  0  0  0  0
  3  7  1  0
  7  8  2  3
  8  9  1  0
  8 10  1  0
 10 11  1  0
 11 12  1  0
 13 14  1  0
 10 15  1  6
  6 16  1  0
 11 17  2  0
 16 18  1  0
 18 19  1  0
 14 15  1  0
 12 13  1  0
  1  2  2  0
  2  3  1  0
  3  4  2  0
  4  5  1  0
  5  6  2  0
  1  6  1  0
M  END

$$$$
No_2969-/export/home/yangzhenyu/potential_scad_32_flow//YTHDC2/2024-12-06-03-22-00/
     RDKit          3D

 17 19  0  0  0  0  0  0  0  0999 V2000
    1.1787   -8.0297    3.5154 C   0  0  0  0  0  0  0  0  0  0  0  0
    1.0491   -6.8434    2.9820 C   0  0  0  0  0  0  0  0  0  0  0  0
    0.0950   -8.8404    3.2292 C   0  0  0  0  0  0  0  0  0  0  0  0
   -0.9173   -8.4596    2.5152 C   0  0  0  0  0  0  0  0  0  0  0  0
   -1.0331   -7.2162    2.0653 C   0  0  0  0  0  0  0  0  0  0  0  0
   -0.0105   -6.3168    2.3081 C   0  0  0  0  0  0  0  0  0  0  0  0
    0.1465  -10.2446    3.6981 C   0  0  0  0  0  0  0  0  0  0  0  0
    0.1907  -11.3369    2.8651 C   0  0  0  0  0  0  0  0  0  0  0  0
    0.7661  -12.5788    3.2923 C   0  0  0  0  0  0  0  0  0  0  0  0
    0.7707  -13.6301    2.4861 C   0  0  0  0  0  0  0  0  0  0  0  0
    0.3777  -13.6646    1.3267 C   0  0  0  0  0  0  0  0  0  0  0  0
    0.5818  -14.7323    0.4257 C   0  0  0  0  0  0  0  0  0  0  0  0
    0.2114  -12.2367    0.8119 C   0  0  0  0  0  0  0  0  0  0  0  0
   -0.2300  -12.1621   -0.6181 C   0  0  0  0  0  0  0  0  0  0  0  0
   -0.3407  -13.4050   -1.2203 C   0  0  0  0  0  0  0  0  0  0  0  0
   -0.0163  -14.5055   -0.8368 C   0  0  0  0  0  0  0  0  0  0  0  0
   -0.0155  -11.1796    1.6088 N   0  0  0  0  0  0  0  0  0  0  0  0
  3  7  1  0
  7  8  1  0
 11 12  1  0
 12 16  2  0
 15 16  1  0
 14 15  2  0
 13 14  1  0
  1  2  2  0
  2  6  1  0
  5  6  2  0
  4  5  1  0
  3  4  2  0
  1  3  1  0
  8  9  2  0
  9 10  1  0
 10 11  2  0
 11 13  1  0
 13 17  2  0
  8 17  1  0
M  END

$$$$
No_2970-/export/home/yangzhenyu/potential_scad_32_flow//YTHDC2/2024-12-06-03-22-00/
     RDKit          3D

 20 22  0  0  0  0  0  0  0  0999 V2000
    1.1787   -8.0297    3.5154 C   0  0  0  0  0  0  0  0  0  0  0  0
    1.1048   -9.2215    3.2892 C   0  0  0  0  0  0  0  0  0  0  0  0
    1.3627  -10.1721    4.3044 C   0  0  0  0  0  0  0  0  0  0  0  0
    1.0682  -11.5187    4.0618 C   0  0  0  0  0  0  0  0  0  0  0  0
    0.7653  -11.7320    2.7387 C   0  0  0  0  0  0  0  0  0  0  0  0
    0.5661  -10.9730    1.8367 C   0  0  0  0  0  0  0  0  0  0  0  0
    0.7745   -9.6758    2.0361 C   0  0  0  0  0  0  0  0  0  0  0  0
    1.2131   -6.9952    2.4858 C   0  0  0  0  0  0  0  0  0  0  0  0
    1.0372   -7.3618    1.2450 C   0  0  0  0  0  0  0  0  0  0  0  0
    0.8884   -8.7092    0.9459 C   0  0  0  0  0  0  0  0  0  0  0  0
    0.4710   -9.0926   -0.2605 C   0  0  0  0  0  0  0  0  0  0  0  0
    1.1311   -9.1982   -1.3049 O   0  0  0  0  0  0  0  0  0  0  0  0
   -0.9609   -9.0273   -0.5149 O   0  0  0  0  0  0  0  0  0  0  0  0
    0.5158  -13.5471    2.4997 C   0  0  0  0  0  0  0  0  0  0  0  0
   -0.5708  -13.8213    2.1096 C   0  0  0  0  0  0  0  0  0  0  0  0
    1.7112  -14.2731    2.3159 C   0  0  0  0  0  0  0  0  0  0  0  0
   -0.8280  -15.1085    1.7455 C   0  0  0  0  0  0  0  0  0  0  0  0
    1.6346  -15.5023    2.0764 C   0  0  0  0  0  0  0  0  0  0  0  0
    0.3611  -15.9519    1.6887 C   0  0  0  0  0  0  0  0  0  0  0  0
    1.4322   -5.5622    2.7998 O   0  0  0  0  0  0  0  0  0  0  0  0
 10 11  1  0
 11 12  2  0
 11 13  1  0
  5 14  1  0
  8 20  1  0
  2  3  1  0
  3  4  2  0
  4  5  1  0
  5  6  2  0
  6  7  1  0
  1  2  2  0
  2  7  1  0
  7 10  2  0
  9 10  1  0
  8  9  2  0
  1  8  1  0
 14 15  2  0
 15 17  1  0
 17 19  2  0
 18 19  1  0
 16 18  2  0
 14 16  1  0
M  END

$$$$
No_2971-/export/home/yangzhenyu/potential_scad_32_flow//YTHDC2/2024-12-06-03-22-00/
     RDKit          3D

 18 20  0  0  0  0  0  0  0  0999 V2000
    1.1787   -8.0297    3.5154 C   0  0  0  0  0  0  0  0  0  0  0  0
    1.1048   -9.2215    3.2892 C   0  0  0  0  0  0  0  0  0  0  0  0
    1.3627  -10.1721    4.3044 C   0  0  0  0  0  0  0  0  0  0  0  0
    1.0682  -11.5187    4.0618 C   0  0  0  0  0  0  0  0  0  0  0  0
    0.6332  -11.9655    2.9682 C   0  0  0  0  0  0  0  0  0  0  0  0
    0.4776  -11.1308    1.9203 C   0  0  0  0  0  0  0  0  0  0  0  0
    0.7470   -9.8274    2.0368 C   0  0  0  0  0  0  0  0  0  0  0  0
    0.5536   -7.1314    2.6861 C   0  0  0  0  0  0  0  0  0  0  0  0
    0.2950   -7.6000    1.3275 C   0  0  0  0  0  0  0  0  0  0  0  0
    0.2693   -8.8631    1.0973 C   0  0  0  0  0  0  0  0  0  0  0  0
    0.4648  -13.6251    2.7005 C   0  0  0  0  0  0  0  0  0  0  0  0
    1.4678  -14.4103    3.1602 C   0  0  0  0  0  0  0  0  0  0  0  0
    1.1703  -15.7576    2.9804 C   0  0  0  0  0  0  0  0  0  0  0  0
    0.1415  -16.2149    2.4418 C   0  0  0  0  0  0  0  0  0  0  0  0
   -0.7410  -15.3681    1.8628 C   0  0  0  0  0  0  0  0  0  0  0  0
   -0.5381  -14.0196    2.0493 C   0  0  0  0  0  0  0  0  0  0  0  0
   -0.1255   -9.2764   -0.1998 O   0  0  0  0  0  0  0  0  0  0  0  0
    0.7787   -5.6486    2.7917 O   0  0  0  0  0  0  0  0  0  0  0  0
  5 11  1  0
 10 17  1  0
  8 18  1  0
 11 12  2  0
 12 13  1  0
 13 14  2  0
 14 15  1  0
 15 16  2  0
 11 16  1  0
  2  3  1  0
  3  4  2  0
  4  5  1  0
  5  6  2  0
  6  7  1  0
  1  2  2  0
  2  7  1  0
  7 10  2  0
  9 10  1  0
  8  9  2  0
  1  8  1  0
M  END

$$$$
No_2972-/export/home/yangzhenyu/potential_scad_32_flow//YTHDC2/2024-12-06-03-22-00/
     RDKit          3D

 18 18  0  0  0  0  0  0  0  0999 V2000
    1.1787   -8.0297    3.5154 C   0  0  0  0  0  0  0  0  0  0  0  0
    1.0491   -6.8434    2.9820 C   0  0  0  0  0  0  0  0  0  0  0  0
    0.0950   -8.8404    3.2292 C   0  0  0  0  0  0  0  0  0  0  0  0
   -0.9173   -8.4596    2.5152 C   0  0  0  0  0  0  0  0  0  0  0  0
   -1.0331   -7.2162    2.0653 C   0  0  0  0  0  0  0  0  0  0  0  0
   -0.0105   -6.3168    2.3081 C   0  0  0  0  0  0  0  0  0  0  0  0
    0.1150   -4.9910    1.8495 C   0  0  0  0  0  0  0  0  0  0  0  0
   -0.1376   -4.7952    0.5550 O   0  0  0  0  0  0  0  0  0  0  0  0
    0.8481   -4.0195    2.5027 O   0  0  0  0  0  0  0  0  0  0  0  0
    0.1536  -10.2904    3.6390 S   0  0  0  0  0  0  0  0  0  0  0  0
    1.3667  -10.7794    4.2574 C   0  0  0  0  0  0  0  0  0  0  0  0
    2.5430  -10.2633    4.1589 C   0  0  0  0  0  0  0  0  0  0  0  0
    3.6374  -10.9217    4.8442 C   0  0  0  0  0  0  0  0  0  0  0  0
    3.8011  -10.7311    6.1935 O   0  0  0  0  0  0  0  0  0  0  0  0
    4.7404  -11.2887    4.4770 O   0  0  0  0  0  0  0  0  0  0  0  0
   -0.3154  -11.1474    2.5272 O   0  0  0  0  0  0  0  0  0  0  0  0
   -1.0284  -10.5481    4.6771 O   0  0  0  0  0  0  0  0  0  0  0  0
    0.8508   -2.6574    2.2758 C   0  0  0  0  0  0  0  0  0  0  0  0
  6  7  1  0
  7  8  2  0
  7  9  1  0
  3 10  1  0
 10 11  1  0
 11 12  2  3
 12 13  1  0
 13 14  1  0
 13 15  2  0
 10 16  2  0
 10 17  2  0
  9 18  1  0
  1  2  2  0
  2  6  1  0
  5  6  2  0
  4  5  1  0
  3  4  2  0
  1  3  1  0
M  END

$$$$
No_2973-/export/home/yangzhenyu/potential_scad_32_flow//YTHDC2/2024-12-06-03-22-00/
     RDKit          3D

 18 19  0  0  1  0  0  0  0  0999 V2000
    1.1787   -8.0297    3.5154 C   0  0  0  0  0  0  0  0  0  0  0  0
    1.1048   -9.2215    3.2892 C   0  0  0  0  0  0  0  0  0  0  0  0
    1.0239   -9.7790    2.0239 C   0  0  0  0  0  0  0  0  0  0  0  0
    1.1393   -9.0211    0.9686 C   0  0  0  0  0  0  0  0  0  0  0  0
    1.4051   -7.6500    1.1251 C   0  0  0  0  0  0  0  0  0  0  0  0
    1.4868   -7.1041    2.3534 C   0  0  0  0  0  0  0  0  0  0  0  0
    0.9659  -10.1420    4.4543 Br  0  0  0  0  0  0  0  0  0  0  0  0
    0.8039  -11.1534    1.8352 C   0  0  0  0  0  0  0  0  0  0  0  0
   -0.3419  -11.5593    1.3501 C   0  0  2  0  0  0  0  0  0  0  0  0
   -1.4521  -10.8111    1.1778 C   0  0  0  0  0  0  0  0  0  0  0  0
   -0.7629  -12.8713    1.9771 C   0  0  1  0  0  0  0  0  0  0  0  0
    0.1497  -13.7610    2.2162 C   0  0  0  0  0  0  0  0  0  0  0  0
    1.0371  -13.6364    3.2179 C   0  0  0  0  0  0  0  0  0  0  0  0
   -2.3550  -10.3962    2.1244 C   0  0  0  0  0  0  0  0  0  0  0  0
   -2.9672  -11.1813    2.7859 C   0  0  0  0  0  0  0  0  0  0  0  0
   -2.7844  -12.5932    2.9493 C   0  0  0  0  0  0  0  0  0  0  0  0
   -1.8439  -13.3488    2.6468 C   0  0  0  0  0  0  0  0  0  0  0  0
   -2.0614  -14.6541    2.9039 O   0  0  0  0  0  0  0  0  0  0  0  0
  2  7  1  0
  3  8  1  0
  9  8  1  1
  9 10  1  0
  9 11  1  0
 11 12  1  1
 12 13  1  0
 10 14  1  0
 14 15  2  0
 15 16  1  0
 11 17  1  0
 16 17  1  0
 17 18  2  0
  1  2  2  0
  2  3  1  0
  3  4  2  0
  4  5  1  0
  5  6  2  0
  1  6  1  0
M  END

$$$$
No_2974-/export/home/yangzhenyu/potential_scad_32_flow//YTHDC2/2024-12-06-03-22-00/
     RDKit          3D

 15 16  0  0  1  0  0  0  0  0999 V2000
    1.1787   -8.0297    3.5154 C   0  0  0  0  0  0  0  0  0  0  0  0
    1.1048   -9.2215    3.2892 C   0  0  0  0  0  0  0  0  0  0  0  0
    1.2339   -9.7611    2.0189 C   0  0  0  0  0  0  0  0  0  0  0  0
    1.3583   -9.0036    0.9764 C   0  0  0  0  0  0  0  0  0  0  0  0
    1.5996   -7.6362    1.1311 C   0  0  0  0  0  0  0  0  0  0  0  0
    1.4830   -7.0928    2.3626 C   0  0  0  0  0  0  0  0  0  0  0  0
    1.1008  -11.2372    1.8542 C   0  0  1  0  0  0  0  0  0  0  0  0
    0.4812  -11.6084    0.6459 C   0  0  0  0  0  0  0  0  0  0  0  0
    0.5134  -13.0269    0.4830 C   0  0  0  0  0  0  0  0  0  0  0  0
    1.2057  -13.8685    1.2734 C   0  0  0  0  0  0  0  0  0  0  0  0
    1.9819  -13.3990    2.3594 C   0  0  0  0  0  0  0  0  0  0  0  0
    1.8610  -12.0988    2.6716 C   0  0  0  0  0  0  0  0  0  0  0  0
    2.4163  -11.5839    3.7861 O   0  0  0  0  0  0  0  0  0  0  0  0
    1.5574   -5.6480    2.6418 N   0  0  0  0  0  0  0  0  0  0  0  0
    1.0373   -4.7018    1.8912 O   0  0  0  0  0  0  0  0  0  0  0  0
  7  3  1  6
  7  8  1  0
  9 10  1  0
  7 12  1  0
 11 12  1  0
 12 13  2  0
  6 14  1  0
 14 15  2  0
  8  9  1  0
 10 11  1  0
  1  2  2  0
  2  3  1  0
  3  4  2  0
  4  5  1  0
  5  6  2  0
  1  6  1  0
M  END

$$$$
No_2975-/export/home/yangzhenyu/potential_scad_32_flow//YTHDC2/2024-12-06-03-22-00/
     RDKit          3D

 19 21  0  0  0  0  0  0  0  0999 V2000
    1.1787   -8.0297    3.5154 C   0  0  0  0  0  0  0  0  0  0  0  0
    1.1048   -9.2215    3.2892 C   0  0  0  0  0  0  0  0  0  0  0  0
    1.3627  -10.1721    4.3044 C   0  0  0  0  0  0  0  0  0  0  0  0
    1.0682  -11.5187    4.0618 C   0  0  0  0  0  0  0  0  0  0  0  0
    0.6332  -11.9655    2.9682 C   0  0  0  0  0  0  0  0  0  0  0  0
    0.4776  -11.1308    1.9203 C   0  0  0  0  0  0  0  0  0  0  0  0
    0.7470   -9.8274    2.0368 C   0  0  0  0  0  0  0  0  0  0  0  0
    1.0387   -7.0301    2.5175 C   0  0  0  0  0  0  0  0  0  0  0  0
    0.9130   -7.5288    1.2013 C   0  0  0  0  0  0  0  0  0  0  0  0
    0.7893   -8.7979    0.9542 C   0  0  0  0  0  0  0  0  0  0  0  0
    0.5241   -9.2578   -0.2817 C   0  0  0  0  0  0  0  0  0  0  0  0
   -0.1121   -8.6523   -1.0898 O   0  0  0  0  0  0  0  0  0  0  0  0
    0.4916  -13.3676    2.6814 C   0  0  0  0  0  0  0  0  0  0  0  0
    1.3297  -14.3056    3.1403 C   0  0  0  0  0  0  0  0  0  0  0  0
    1.1670  -15.6693    2.9693 C   0  0  0  0  0  0  0  0  0  0  0  0
    0.3412  -16.1235    2.1149 C   0  0  0  0  0  0  0  0  0  0  0  0
   -0.4894  -15.2376    1.4775 C   0  0  0  0  0  0  0  0  0  0  0  0
   -0.3401  -13.8972    1.7483 C   0  0  0  0  0  0  0  0  0  0  0  0
    1.0958  -10.2423   -0.7954 O   0  0  0  0  0  0  0  0  0  0  0  0
 10 11  1  0
 11 12  2  0
  5 13  1  0
 11 19  1  0
  2  3  1  0
  3  4  2  0
  4  5  1  0
  5  6  2  0
  6  7  1  0
 13 14  2  0
 14 15  1  0
 15 16  2  0
 16 17  1  0
 17 18  2  0
 13 18  1  0
  1  2  2  0
  2  7  1  0
  7 10  2  0
  9 10  1  0
  8  9  2  0
  1  8  1  0
M  END

$$$$
No_2976-/export/home/yangzhenyu/potential_scad_32_flow//YTHDC2/2024-12-06-03-22-00/
     RDKit          3D

 19 20  0  0  0  0  0  0  0  0999 V2000
    1.1787   -8.0297    3.5154 C   0  0  0  0  0  0  0  0  0  0  0  0
    1.1048   -9.2215    3.2892 C   0  0  0  0  0  0  0  0  0  0  0  0
    1.2339   -9.7611    2.0189 C   0  0  0  0  0  0  0  0  0  0  0  0
    1.1954  -11.2312    1.8661 C   0  0  0  0  0  0  0  0  0  0  0  0
    1.5546  -12.1691    2.7931 C   0  0  0  0  0  0  0  0  0  0  0  0
    0.9527   -7.0669    2.3918 C   0  0  0  0  0  0  0  0  0  0  0  0
    1.0618   -7.6392    1.0692 C   0  0  0  0  0  0  0  0  0  0  0  0
    1.2060   -8.9530    0.8578 C   0  0  0  0  0  0  0  0  0  0  0  0
    1.5110  -13.5006    2.3856 C   0  0  0  0  0  0  0  0  0  0  0  0
    1.1461  -13.9087    1.2014 C   0  0  0  0  0  0  0  0  0  0  0  0
    0.9324  -13.0660    0.2177 C   0  0  0  0  0  0  0  0  0  0  0  0
    0.9275  -11.6786    0.5224 C   0  0  0  0  0  0  0  0  0  0  0  0
    1.0094   -5.6129    2.4729 C   0  0  0  0  0  0  0  0  0  0  0  0
    0.3087   -4.8927    1.6394 C   0  0  0  0  0  0  0  0  0  0  0  0
    0.4262   -3.4921    1.7774 C   0  0  0  0  0  0  0  0  0  0  0  0
    1.9704  -14.5522    3.5971 O   0  0  0  0  0  0  0  0  0  0  0  0
   -0.0092   -2.7127    0.7949 C   0  0  0  0  0  0  0  0  0  0  0  0
   -0.6899   -3.2977   -0.3305 C   0  0  0  0  0  0  0  0  0  0  0  0
   -0.8953   -4.6015   -0.3994 C   0  0  0  0  0  0  0  0  0  0  0  0
  3  4  1  0
  6 13  1  0
 13 14  2  3
 14 15  1  0
  9 16  1  0
 15 17  2  3
 17 18  1  0
 18 19  2  0
  1  2  2  0
  2  3  1  0
  3  8  2  0
  7  8  1  0
  6  7  2  0
  1  6  1  0
  4  5  2  0
  5  9  1  0
  9 10  2  0
 10 11  1  0
 11 12  2  0
  4 12  1  0
M  END

$$$$
No_2977-/export/home/yangzhenyu/potential_scad_32_flow//YTHDC2/2024-12-06-03-22-00/
     RDKit          3D

 18 19  0  0  0  0  0  0  0  0999 V2000
    1.1787   -8.0297    3.5154 C   0  0  0  0  0  0  0  0  0  0  0  0
    1.1048   -9.2215    3.2892 C   0  0  0  0  0  0  0  0  0  0  0  0
    1.3627  -10.1721    4.3044 C   0  0  0  0  0  0  0  0  0  0  0  0
    1.0682  -11.5187    4.0618 C   0  0  0  0  0  0  0  0  0  0  0  0
    0.6332  -11.9655    2.9682 C   0  0  0  0  0  0  0  0  0  0  0  0
    0.4776  -11.1308    1.9203 C   0  0  0  0  0  0  0  0  0  0  0  0
    0.7470   -9.8274    2.0368 C   0  0  0  0  0  0  0  0  0  0  0  0
    0.5535   -7.1314    2.6861 C   0  0  0  0  0  0  0  0  0  0  0  0
    0.2950   -7.6000    1.3275 C   0  0  0  0  0  0  0  0  0  0  0  0
    0.2693   -8.8631    1.0973 C   0  0  0  0  0  0  0  0  0  0  0  0
   -0.0069   -6.7080    0.3888 C   0  0  0  0  0  0  0  0  0  0  0  0
   -0.2106   -5.3958    0.7330 O   0  0  0  0  0  0  0  0  0  0  0  0
   -0.3568   -6.9043   -0.7542 O   0  0  0  0  0  0  0  0  0  0  0  0
    0.4919  -13.3896    2.7224 O   0  0  0  0  0  0  0  0  0  0  0  0
    0.8983  -13.9962    1.7000 C   0  0  0  0  0  0  0  0  0  0  0  0
    1.5349  -15.1612    2.0120 C   0  0  0  0  0  0  0  0  0  0  0  0
    2.7998  -15.2974    2.1365 C   0  0  0  0  0  0  0  0  0  0  0  0
    3.3316  -16.6303    2.3516 C   0  0  0  0  0  0  0  0  0  0  0  0
  9 11  1  0
 11 12  1  0
 11 13  2  0
  5 14  1  0
 14 15  1  0
 15 16  1  0
 16 17  1  0
 17 18  2  0
  2  3  1  0
  3  4  2  0
  4  5  1  0
  5  6  2  0
  6  7  1  0
  1  2  2  0
  2  7  1  0
  7 10  2  0
  9 10  1  0
  8  9  2  0
  1  8  1  0
M  END

$$$$
No_2978-/export/home/yangzhenyu/potential_scad_32_flow//YTHDC2/2024-12-06-03-22-00/
     RDKit          3D

 19 19  0  0  0  0  0  0  0  0999 V2000
    1.1787   -8.0297    3.5154 C   0  0  0  0  0  0  0  0  0  0  0  0
    1.0491   -6.8434    2.9820 C   0  0  0  0  0  0  0  0  0  0  0  0
    0.9905   -9.0774    2.6527 C   0  0  0  0  0  0  0  0  0  0  0  0
    0.7897   -8.9519    1.3691 C   0  0  0  0  0  0  0  0  0  0  0  0
    0.8824   -7.5617    0.9293 C   0  0  0  0  0  0  0  0  0  0  0  0
    1.0828   -6.5260    1.6856 C   0  0  0  0  0  0  0  0  0  0  0  0
    0.9482  -10.4875    3.1638 N   0  0  0  0  0  0  0  0  0  0  0  0
    1.9915  -11.0970    3.5442 C   0  0  0  0  0  0  0  0  0  0  0  0
    3.0016  -10.3606    4.1551 O   0  0  0  0  0  0  0  0  0  0  0  0
    1.8416  -12.4710    3.9979 N   0  0  0  0  0  0  0  0  0  0  0  0
    1.0268   -5.2233    1.1453 O   0  0  0  0  0  0  0  0  0  0  0  0
   -0.1126   -4.4285    1.2895 C   0  0  0  0  0  0  0  0  0  0  0  0
    0.7401   -9.9770    0.3695 C   0  0  0  0  0  0  0  0  0  0  0  0
   -0.3136  -10.1220   -0.2118 O   0  0  0  0  0  0  0  0  0  0  0  0
    1.7864  -10.7425    0.1955 O   0  0  0  0  0  0  0  0  0  0  0  0
    0.8279  -13.1760    3.3231 C   0  0  0  0  0  0  0  0  0  0  0  0
    1.2834  -14.1729    2.5639 C   0  0  0  0  0  0  0  0  0  0  0  0
    2.5988  -14.4899    2.5019 C   0  0  0  0  0  0  0  0  0  0  0  0
    0.6744  -14.9611    1.8910 C   0  0  0  0  0  0  0  0  0  0  0  0
  3  7  1  0
  7  8  1  0
  8  9  2  0
  8 10  1  0
  6 11  1  0
 11 12  1  0
  4 13  1  0
 13 14  1  0
 13 15  2  0
 10 16  1  0
 16 17  1  0
 17 18  1  0
 17 19  1  0
  1  2  2  0
  2  6  1  0
  5  6  2  0
  4  5  1  0
  3  4  2  0
  1  3  1  0
M  END

$$$$
No_2979-/export/home/yangzhenyu/potential_scad_32_flow//YTHDC2/2024-12-06-03-22-00/
     RDKit          3D

 20 22  0  0  0  0  0  0  0  0999 V2000
    1.1787   -8.0297    3.5154 C   0  0  0  0  0  0  0  0  0  0  0  0
    1.1048   -9.2215    3.2892 C   0  0  0  0  0  0  0  0  0  0  0  0
    1.2339   -9.7611    2.0189 C   0  0  0  0  0  0  0  0  0  0  0  0
    1.3583   -9.0036    0.9764 C   0  0  0  0  0  0  0  0  0  0  0  0
    1.5996   -7.6362    1.1311 N   0  0  0  0  0  0  0  0  0  0  0  0
    1.4814   -7.1248    2.3118 C   0  0  0  0  0  0  0  0  0  0  0  0
    0.9200  -10.2804    4.5160 C   0  0  0  0  0  0  0  0  0  0  0  0
    0.7283  -11.7378    3.9572 C   0  0  0  0  0  0  0  0  0  0  0  0
    0.9017  -12.1022    2.8007 C   0  0  0  0  0  0  0  0  0  0  0  0
    1.1739  -11.1534    1.7555 C   0  0  0  0  0  0  0  0  0  0  0  0
    0.8865  -13.4180    2.4899 C   0  0  0  0  0  0  0  0  0  0  0  0
    1.5942  -14.3515    3.0773 C   0  0  0  0  0  0  0  0  0  0  0  0
    1.3482  -15.7730    2.6977 C   0  0  0  0  0  0  0  0  0  0  0  0
    0.6619  -16.1549    1.8424 C   0  0  0  0  0  0  0  0  0  0  0  0
   -0.0494  -15.2335    1.0442 C   0  0  0  0  0  0  0  0  0  0  0  0
    0.0373  -13.9085    1.4273 C   0  0  0  0  0  0  0  0  0  0  0  0
    1.3943  -11.5685    0.5426 O   0  0  0  0  0  0  0  0  0  0  0  0
    1.4902   -5.6610    2.5520 Br  0  0  0  0  0  0  0  0  0  0  0  0
   -0.8895  -12.9804    0.9332 C   0  0  0  0  0  0  0  0  0  0  0  0
   -1.1240  -12.9823   -0.3937 O   0  0  0  0  0  0  0  0  0  0  0  0
  2  7  1  0
  8  9  1  0
  3 10  1  0
  9 10  1  0
  9 11  1  0
 10 17  2  0
  6 18  1  0
 16 19  1  0
 19 20  2  0
  7  8  1  0
 11 12  2  0
 12 13  1  0
 13 14  2  0
 14 15  1  0
 15 16  2  0
 11 16  1  0
  1  2  2  0
  2  3  1  0
  3  4  2  0
  4  5  1  0
  5  6  2  0
  1  6  1  0
M  END

$$$$
No_2980-/export/home/yangzhenyu/potential_scad_32_flow//YTHDC2/2024-12-06-03-22-00/
     RDKit          3D

 18 18  0  0  1  0  0  0  0  0999 V2000
    1.1787   -8.0297    3.5154 C   0  0  0  0  0  0  0  0  0  0  0  0
    1.1048   -9.2215    3.2892 C   0  0  0  0  0  0  0  0  0  0  0  0
    1.2339   -9.7611    2.0189 C   0  0  0  0  0  0  0  0  0  0  0  0
    1.3583   -9.0036    0.9764 C   0  0  0  0  0  0  0  0  0  0  0  0
    1.5996   -7.6362    1.1311 C   0  0  0  0  0  0  0  0  0  0  0  0
    1.4830   -7.0928    2.3626 C   0  0  0  0  0  0  0  0  0  0  0  0
    1.5395   -5.7300    2.6182 C   0  0  0  0  0  0  0  0  0  0  0  0
    1.1969  -11.3760    1.8433 C   0  0  0  0  0  0  0  0  0  0  0  0
    1.0771  -11.6644    0.5388 O   0  0  0  0  0  0  0  0  0  0  0  0
    1.0315  -12.1193    2.7418 N   0  0  0  0  0  0  0  0  0  0  0  0
    1.0857  -13.4762    2.6408 C   0  0  0  0  0  0  0  0  0  0  0  0
   -0.2016  -14.1757    2.6247 C   0  0  0  0  0  0  0  0  0  0  0  0
   -1.2387  -13.4586    2.4202 C   0  0  0  0  0  0  0  0  0  0  0  0
   -0.0602  -15.5955    2.5364 C   0  0  1  0  0  0  0  0  0  0  0  0
    1.2234  -16.2374    2.7437 C   0  0  0  0  0  0  0  0  0  0  0  0
   -1.0705  -16.3793    2.5362 C   0  0  0  0  0  0  0  0  0  0  0  0
    1.2696   -4.8011    1.7068 Cl  0  0  0  0  0  0  0  0  0  0  0  0
    2.2454  -16.0454    2.1957 C   0  0  0  0  0  0  0  0  0  0  0  0
  6  7  1  0
  3  8  1  0
  8  9  2  0
  8 10  1  0
 10 11  1  0
 11 12  1  0
 12 13  2  0
 12 14  1  0
 14 15  1  0
 14 16  1  1
  7 17  1  0
 15 18  1  0
  1  2  2  0
  2  3  1  0
  3  4  2  0
  4  5  1  0
  5  6  2  0
  1  6  1  0
M  END

$$$$
No_2981-/export/home/yangzhenyu/potential_scad_32_flow//YTHDC2/2024-12-06-03-22-00/
     RDKit          3D

 18 18  0  0  0  0  0  0  0  0999 V2000
    1.1787   -8.0297    3.5154 C   0  0  0  0  0  0  0  0  0  0  0  0
    1.1048   -9.2215    3.2892 C   0  0  0  0  0  0  0  0  0  0  0  0
    1.2339   -9.7611    2.0189 C   0  0  0  0  0  0  0  0  0  0  0  0
    1.3583   -9.0036    0.9764 C   0  0  0  0  0  0  0  0  0  0  0  0
    1.5996   -7.6362    1.1311 C   0  0  0  0  0  0  0  0  0  0  0  0
    1.4830   -7.0928    2.3626 C   0  0  0  0  0  0  0  0  0  0  0  0
    1.4898   -5.7274    2.6199 C   0  0  0  0  0  0  0  0  0  0  0  0
    1.1681  -11.2222    1.8390 C   0  0  0  0  0  0  0  0  0  0  0  0
    0.7145  -11.5870    0.5424 N   0  0  0  0  0  0  0  0  0  0  0  0
    2.3210  -11.9404    2.2144 O   0  0  0  0  0  0  0  0  0  0  0  0
    1.2462   -4.8564    1.6296 O   0  0  0  0  0  0  0  0  0  0  0  0
    1.7675   -5.1430    3.8018 O   0  0  0  0  0  0  0  0  0  0  0  0
    0.6396  -12.9973    0.2903 C   0  0  0  0  0  0  0  0  0  0  0  0
   -0.6783  -13.4754    0.0225 C   0  0  0  0  0  0  0  0  0  0  0  0
   -0.7629  -14.8018   -0.1389 C   0  0  0  0  0  0  0  0  0  0  0  0
   -1.0910  -15.2906   -1.3338 C   0  0  0  0  0  0  0  0  0  0  0  0
   -2.0481  -14.5780   -2.0520 C   0  0  0  0  0  0  0  0  0  0  0  0
   -2.1877  -13.1552   -1.7436 C   0  0  0  0  0  0  0  0  0  0  0  0
  6  7  1  0
  3  8  1  0
  8  9  1  0
  8 10  2  0
  7 11  2  0
  7 12  1  0
  9 13  1  0
 13 14  1  0
 14 15  1  0
 15 16  2  3
 16 17  1  0
 17 18  2  0
  1  2  2  0
  2  3  1  0
  3  4  2  0
  4  5  1  0
  5  6  2  0
  1  6  1  0
M  END

$$$$
No_2982-/export/home/yangzhenyu/potential_scad_32_flow//YTHDC2/2024-12-06-03-22-00/
     RDKit          3D

 16 17  0  0  0  0  0  0  0  0999 V2000
    1.1787   -8.0297    3.5154 C   0  0  0  0  0  0  0  0  0  0  0  0
    1.1048   -9.2215    3.2892 C   0  0  0  0  0  0  0  0  0  0  0  0
    1.2339   -9.7611    2.0189 C   0  0  0  0  0  0  0  0  0  0  0  0
    1.3583   -9.0036    0.9764 C   0  0  0  0  0  0  0  0  0  0  0  0
    1.5996   -7.6362    1.1311 C   0  0  0  0  0  0  0  0  0  0  0  0
    1.4830   -7.0928    2.3626 C   0  0  0  0  0  0  0  0  0  0  0  0
    1.3121   -5.7497    2.5440 C   0  0  0  0  0  0  0  0  0  0  0  0
    1.1998  -11.2296    1.8484 C   0  0  0  0  0  0  0  0  0  0  0  0
    0.5667  -11.9521    2.1899 C   0  0  0  0  0  0  0  0  0  0  0  0
    0.5480  -13.3850    1.9692 C   0  0  0  0  0  0  0  0  0  0  0  0
   -0.5010  -14.1475    2.1891 C   0  0  0  0  0  0  0  0  0  0  0  0
   -0.3201  -15.5542    2.6813 N   0  0  0  0  0  0  0  0  0  0  0  0
    0.9599  -15.9611    2.6087 C   0  0  0  0  0  0  0  0  0  0  0  0
    2.0744  -15.2220    2.4429 C   0  0  0  0  0  0  0  0  0  0  0  0
    1.8667  -13.8992    2.1222 C   0  0  0  0  0  0  0  0  0  0  0  0
    0.6976   -4.9656    1.6521 C   0  0  0  0  0  0  0  0  0  0  0  0
  6  7  1  0
  3  8  1  0
  8  9  2  3
  9 10  1  0
  7 16  2  0
  1  2  2  0
  2  3  1  0
  3  4  2  0
  4  5  1  0
  5  6  2  0
  1  6  1  0
 10 11  2  0
 11 12  1  0
 12 13  2  0
 13 14  1  0
 14 15  2  0
 10 15  1  0
M  END

$$$$
No_2983-/export/home/yangzhenyu/potential_scad_32_flow//YTHDC2/2024-12-06-03-22-00/
     RDKit          3D

 19 20  0  0  1  0  0  0  0  0999 V2000
    1.1787   -8.0297    3.5154 C   0  0  0  0  0  0  0  0  0  0  0  0
    1.0491   -6.8434    2.9820 C   0  0  0  0  0  0  0  0  0  0  0  0
    0.9905   -9.0774    2.6527 C   0  0  0  0  0  0  0  0  0  0  0  0
    0.7897   -8.9519    1.3691 C   0  0  0  0  0  0  0  0  0  0  0  0
    0.7018   -7.7198    0.7892 C   0  0  0  0  0  0  0  0  0  0  0  0
    0.8918   -6.5957    1.6117 C   0  0  0  0  0  0  0  0  0  0  0  0
    1.0998  -10.4710    3.2437 C   0  0  0  0  0  0  0  0  0  0  0  0
    0.0472  -11.2546    3.3963 C   0  0  0  0  0  0  0  0  0  0  0  0
    0.1622  -12.5732    3.4140 C   0  0  0  0  0  0  0  0  0  0  0  0
    1.4182  -13.1957    3.4048 C   0  0  0  0  0  0  0  0  0  0  0  0
    2.5550  -12.3947    3.0877 C   0  0  0  0  0  0  0  0  0  0  0  0
    2.4166  -11.0849    2.9699 C   0  0  0  0  0  0  0  0  0  0  0  0
    0.8666   -5.2662    1.1708 C   0  0  0  0  0  0  0  0  0  0  0  0
    1.4169  -14.5629    3.3676 O   0  0  0  0  0  0  0  0  0  0  0  0
    0.2036   -4.2248    1.9144 C   0  0  2  0  0  0  0  0  0  0  0  0
   -1.1533   -4.3366    1.8691 C   0  0  0  0  0  0  0  0  0  0  0  0
   -1.7742   -3.5714    2.1636 C   0  0  0  0  0  0  0  0  0  0  0  0
    0.8031   -3.2014    2.3156 C   0  0  0  0  0  0  0  0  0  0  0  0
   -1.2782   -2.3243    2.7683 C   0  0  0  0  0  0  0  0  0  0  0  0
  3  7  1  0
  6 13  1  0
 10 14  1  0
 13 15  1  0
 15 16  1  0
 16 17  2  3
 15 18  1  6
 17 19  1  0
  1  2  2  0
  2  6  1  0
  5  6  2  0
  4  5  1  0
  3  4  2  0
  1  3  1  0
  7  8  2  0
  8  9  1  0
  9 10  2  0
 10 11  1  0
 11 12  2  0
  7 12  1  0
M  END

$$$$
No_2984-/export/home/yangzhenyu/potential_scad_32_flow//YTHDC2/2024-12-06-03-22-00/
     RDKit          3D

 18 19  0  0  1  0  0  0  0  0999 V2000
    1.1787   -8.0297    3.5154 O   0  0  0  0  0  0  0  0  0  0  0  0
    0.6747   -7.4019    2.7838 C   0  0  0  0  0  0  0  0  0  0  0  0
    0.5570   -6.0797    2.8560 C   0  0  0  0  0  0  0  0  0  0  0  0
    1.1189   -5.2588    2.0517 C   0  0  0  0  0  0  0  0  0  0  0  0
    1.5632   -5.9381    0.9725 C   0  0  0  0  0  0  0  0  0  0  0  0
    1.7798   -7.2538    0.7416 C   0  0  0  0  0  0  0  0  0  0  0  0
    1.4082   -8.0900    1.7486 C   0  0  0  0  0  0  0  0  0  0  0  0
    1.7459   -9.3201    1.7206 C   0  0  0  0  0  0  0  0  0  0  0  0
    2.0894   -9.9087    0.4388 O   0  0  0  0  0  0  0  0  0  0  0  0
    1.8837  -10.1671    2.7028 C   0  0  1  0  0  0  0  0  0  0  0  0
    1.3976   -9.4621    3.9727 C   0  0  0  0  0  0  0  0  0  0  0  0
    1.1248   -3.6582    2.2223 C   0  0  0  0  0  0  0  0  0  0  0  0
    2.2248  -11.3591    2.9284 C   0  0  0  0  0  0  0  0  0  0  0  0
    1.4617  -12.3040    2.2228 C   0  0  0  0  0  0  0  0  0  0  0  0
    2.0643  -13.5270    1.7908 C   0  0  0  0  0  0  0  0  0  0  0  0
    1.3071  -14.4568    1.0812 C   0  0  0  0  0  0  0  0  0  0  0  0
    0.0193  -14.3027    0.9264 C   0  0  0  0  0  0  0  0  0  0  0  0
   -0.6125  -13.0945    1.3174 C   0  0  0  0  0  0  0  0  0  0  0  0
  1  2  1  0
  7  8  1  0
  8  9  2  0
  8 10  1  0
  1 11  1  0
 10 11  1  0
  4 12  1  0
 10 13  1  6
 13 14  1  0
 14 15  1  0
 15 16  2  3
 16 17  1  0
 17 18  2  0
  2  3  2  0
  3  4  1  0
  4  5  2  0
  5  6  1  0
  6  7  2  0
  2  7  1  0
M  END

$$$$
No_2985-/export/home/yangzhenyu/potential_scad_32_flow//YTHDC2/2024-12-06-03-22-00/
     RDKit          3D

 20 21  0  0  1  0  0  0  0  0999 V2000
    1.1787   -8.0297    3.5154 O   0  0  0  0  0  0  0  0  0  0  0  0
    0.6747   -7.4019    2.7838 C   0  0  1  0  0  0  0  0  0  0  0  0
    0.5570   -6.0797    2.8560 C   0  0  0  0  0  0  0  0  0  0  0  0
   -0.2158   -5.3007    2.0284 N   0  0  0  0  0  0  0  0  0  0  0  0
    0.2659   -7.9712    1.5851 C   0  0  0  0  0  0  0  0  0  0  0  0
   -0.4774   -7.1924    0.7181 C   0  0  0  0  0  0  0  0  0  0  0  0
   -0.8787   -7.9405   -0.4219 C   0  0  0  0  0  0  0  0  0  0  0  0
   -0.6477   -5.8836    0.9798 C   0  0  0  0  0  0  0  0  0  0  0  0
   -0.6316   -9.3011   -0.5974 C   0  0  0  0  0  0  0  0  0  0  0  0
    0.1365  -10.0155    0.3734 C   0  0  0  0  0  0  0  0  0  0  0  0
    0.6501   -9.3589    1.4764 C   0  0  0  0  0  0  0  0  0  0  0  0
   -1.4223   -5.1534    0.1114 O   0  0  0  0  0  0  0  0  0  0  0  0
    1.3025   -5.2820    3.7379 O   0  0  0  0  0  0  0  0  0  0  0  0
    0.4717  -11.3646    0.0822 C   0  0  0  0  0  0  0  0  0  0  0  0
   -0.0561  -12.2944    0.8952 C   0  0  0  0  0  0  0  0  0  0  0  0
   -1.2571  -12.5562    1.0005 N   0  0  0  0  0  0  0  0  0  0  0  0
   -1.6671  -13.6795    1.6093 C   0  0  0  0  0  0  0  0  0  0  0  0
   -2.8812  -14.0774    1.9323 C   0  0  0  0  0  0  0  0  0  0  0  0
   -3.8112  -12.9605    2.2022 C   0  0  0  0  0  0  0  0  0  0  0  0
   -4.9748  -13.3707    2.7890 C   0  0  0  0  0  0  0  0  0  0  0  0
  2  1  1  6
  2  3  1  0
  3  4  1  0
  2  5  1  0
  4  8  1  0
  6  8  1  0
  8 12  2  0
  3 13  2  0
 10 14  1  0
 14 15  1  0
 15 16  1  0
 16 17  2  3
 17 18  1  0
 18 19  2  3
 19 20  1  0
  5 11  2  0
 10 11  1  0
  9 10  2  0
  7  9  1  0
  6  7  2  0
  5  6  1  0
M  END

$$$$
No_2986-/export/home/yangzhenyu/potential_scad_32_flow//YTHDC2/2024-12-06-03-22-00/
     RDKit          3D

 19 20  0  0  0  0  0  0  0  0999 V2000
    1.1787   -8.0297    3.5154 C   0  0  0  0  0  0  0  0  0  0  0  0
    1.0491   -6.8434    2.9820 C   0  0  0  0  0  0  0  0  0  0  0  0
    0.0950   -8.8404    3.2292 C   0  0  0  0  0  0  0  0  0  0  0  0
   -0.9173   -8.4596    2.5152 C   0  0  0  0  0  0  0  0  0  0  0  0
   -1.0331   -7.2162    2.0653 C   0  0  0  0  0  0  0  0  0  0  0  0
   -0.0105   -6.3168    2.3081 C   0  0  0  0  0  0  0  0  0  0  0  0
    0.0485   -4.9783    1.8782 Cl  0  0  0  0  0  0  0  0  0  0  0  0
    0.1243  -10.2782    3.6609 C   0  0  0  0  0  0  0  0  0  0  0  0
    1.1804  -10.9302    4.1104 C   0  0  0  0  0  0  0  0  0  0  0  0
    1.4893  -12.1007    3.6112 C   0  0  0  0  0  0  0  0  0  0  0  0
    0.8476  -12.6555    2.6683 C   0  0  0  0  0  0  0  0  0  0  0  0
   -0.4119  -12.0194    2.2861 C   0  0  0  0  0  0  0  0  0  0  0  0
   -0.7007  -10.8393    2.7082 C   0  0  0  0  0  0  0  0  0  0  0  0
    1.0336  -14.0754    2.3371 Cl  0  0  0  0  0  0  0  0  0  0  0  0
   -2.1951   -6.7558    1.4457 O   0  0  0  0  0  0  0  0  0  0  0  0
   -3.1013   -6.2080    1.8051 C   0  0  0  0  0  0  0  0  0  0  0  0
   -3.2378   -5.0248    1.5283 C   0  0  0  0  0  0  0  0  0  0  0  0
   -3.2935   -4.5804    0.2198 C   0  0  0  0  0  0  0  0  0  0  0  0
   -3.2607   -3.1534   -0.1073 C   0  0  0  0  0  0  0  0  0  0  0  0
  6  7  1  0
  3  8  1  0
 11 14  1  0
  5 15  1  0
 15 16  1  0
 16 17  1  0
 17 18  2  3
 18 19  1  0
  1  2  2  0
  2  6  1  0
  5  6  2  0
  4  5  1  0
  3  4  2  0
  1  3  1  0
  8  9  2  0
  9 10  1  0
 10 11  2  0
 11 12  1  0
 12 13  2  0
  8 13  1  0
M  END

$$$$
No_2987-/export/home/yangzhenyu/potential_scad_32_flow//YTHDC2/2024-12-06-03-22-00/
     RDKit          3D

 18 18  0  0  1  0  0  0  0  0999 V2000
    1.1787   -8.0297    3.5154 C   0  0  0  0  0  0  0  0  0  0  0  0
    1.1048   -9.2215    3.2892 C   0  0  0  0  0  0  0  0  0  0  0  0
    1.2339   -9.7611    2.0189 C   0  0  0  0  0  0  0  0  0  0  0  0
    1.3583   -9.0036    0.9764 C   0  0  0  0  0  0  0  0  0  0  0  0
    1.5996   -7.6362    1.1311 C   0  0  0  0  0  0  0  0  0  0  0  0
    1.4830   -7.0928    2.3626 C   0  0  0  0  0  0  0  0  0  0  0  0
    1.5395   -5.7300    2.6182 C   0  0  0  0  0  0  0  0  0  0  0  0
    1.1775  -11.2233    1.8407 C   0  0  0  0  0  0  0  0  0  0  0  0
    0.5085  -11.9762    2.1989 N   0  0  0  0  0  0  0  0  0  0  0  0
    0.6085  -13.2314    2.4145 C   0  0  1  0  0  0  0  0  0  0  0  0
    1.7770  -13.6701    3.0225 C   0  0  0  0  0  0  0  0  0  0  0  0
    1.9710  -15.1447    3.0790 Cl  0  0  0  0  0  0  0  0  0  0  0  0
    2.2707  -11.6202    0.9849 O   0  0  0  0  0  0  0  0  0  0  0  0
    1.2597   -4.8027    1.7148 O   0  0  0  0  0  0  0  0  0  0  0  0
    2.1054   -5.1082    3.7200 O   0  0  0  0  0  0  0  0  0  0  0  0
   -0.3711  -14.1376    2.3285 C   0  0  0  0  0  0  0  0  0  0  0  0
   -1.5274  -13.9694    3.2834 O   0  0  0  0  0  0  0  0  0  0  0  0
   -0.5627  -14.9643    1.3443 N   0  0  0  0  0  0  0  0  0  0  0  0
  6  7  1  0
  3  8  1  0
  8  9  1  0
  9 10  1  0
 10 11  1  1
 11 12  1  0
  8 13  2  0
  7 14  2  0
  7 15  1  0
 10 16  1  0
 16 17  2  0
 16 18  1  0
  1  2  2  0
  2  3  1  0
  3  4  2  0
  4  5  1  0
  5  6  2  0
  1  6  1  0
M  END

$$$$
No_2988-/export/home/yangzhenyu/potential_scad_32_flow//YTHDC2/2024-12-06-03-22-00/
     RDKit          3D

 17 17  0  0  0  0  0  0  0  0999 V2000
    1.1787   -8.0297    3.5154 C   0  0  0  0  0  0  0  0  0  0  0  0
    1.1048   -9.2215    3.2892 C   0  0  0  0  0  0  0  0  0  0  0  0
    1.3627  -10.1721    4.3044 C   0  0  0  0  0  0  0  0  0  0  0  0
    1.7354  -11.4730    3.9023 C   0  0  0  0  0  0  0  0  0  0  0  0
    1.8080  -11.8127    2.7216 C   0  0  0  0  0  0  0  0  0  0  0  0
    1.5854  -11.0021    1.7249 C   0  0  0  0  0  0  0  0  0  0  0  0
    1.3573   -9.7389    1.9287 C   0  0  0  0  0  0  0  0  0  0  0  0
    1.2865   -8.8078    0.9161 C   0  0  0  0  0  0  0  0  0  0  0  0
    0.9210   -7.5140    1.1674 O   0  0  0  0  0  0  0  0  0  0  0  0
    1.4288   -9.1781   -0.4279 N   0  0  0  0  0  0  0  0  0  0  0  0
    2.0931  -13.2002    2.3123 C   0  0  0  0  0  0  0  0  0  0  0  0
    1.1669  -14.0262    1.6413 O   0  0  0  0  0  0  0  0  0  0  0  0
    3.1358  -13.8354    2.6522 O   0  0  0  0  0  0  0  0  0  0  0  0
    0.1105   -7.2223    3.6977 O   0  0  0  0  0  0  0  0  0  0  0  0
    2.3002   -7.1597    3.7544 O   0  0  0  0  0  0  0  0  0  0  0  0
    1.3799   -8.3262   -1.4862 O   0  0  0  0  0  0  0  0  0  0  0  0
    3.1422  -15.1945    2.3516 C   0  0  0  0  0  0  0  0  0  0  0  0
  1  2  1  0
  7  8  1  0
  8  9  2  0
  8 10  1  0
  5 11  1  0
 11 12  2  0
 11 13  1  0
  1 14  1  0
  1 15  2  0
 10 16  2  0
 13 17  1  0
  2  3  2  0
  3  4  1  0
  4  5  2  0
  5  6  1  0
  6  7  2  0
  2  7  1  0
M  END

$$$$
No_2989-/export/home/yangzhenyu/potential_scad_32_flow//YTHDC2/2024-12-06-03-22-00/
     RDKit          3D

 19 20  0  0  1  0  0  0  0  0999 V2000
    1.1787   -8.0297    3.5154 C   0  0  0  0  0  0  0  0  0  0  0  0
    1.0491   -6.8434    2.9820 C   0  0  0  0  0  0  0  0  0  0  0  0
    1.9985   -8.9840    2.8958 C   0  0  0  0  0  0  0  0  0  0  0  0
    1.9135  -10.3404    3.6266 C   0  0  0  0  0  0  0  0  0  0  0  0
    0.7479  -10.9191    3.7202 O   0  0  0  0  0  0  0  0  0  0  0  0
    0.2791   -6.7222    1.8234 C   0  0  0  0  0  0  0  0  0  0  0  0
    0.0421   -7.6392    1.1318 C   0  0  0  0  0  0  0  0  0  0  0  0
   -0.1401   -5.4139    1.6032 C   0  0  0  0  0  0  0  0  0  0  0  0
    0.4017  -11.9897    3.0243 C   0  0  0  0  0  0  0  0  0  0  0  0
    1.2523  -13.1351    3.2968 C   0  0  0  0  0  0  0  0  0  0  0  0
    0.7758  -14.3545    2.7441 C   0  0  0  0  0  0  0  0  0  0  0  0
   -0.3166  -14.4376    2.1074 C   0  0  0  0  0  0  0  0  0  0  0  0
   -1.0152  -13.3754    1.8301 C   0  0  0  0  0  0  0  0  0  0  0  0
   -0.6969  -12.1589    2.3620 C   0  0  0  0  0  0  0  0  0  0  0  0
   -1.0830   -5.1731    0.6960 C   0  0  0  0  0  0  0  0  0  0  0  0
   -1.4942   -6.2465   -0.1090 C   0  0  2  0  0  0  0  0  0  0  0  0
   -0.9593   -7.4691    0.0773 C   0  0  0  0  0  0  0  0  0  0  0  0
   -1.3418   -8.4552   -0.8332 O   0  0  0  0  0  0  0  0  0  0  0  0
   -2.3348   -5.9692   -1.1537 C   0  0  0  0  0  0  0  0  0  0  0  0
  1  2  1  0
  1  3  1  0
  3  4  1  0
  4  5  1  0
  2  6  1  0
  6  7  1  0
  6  8  1  0
  5  9  1  0
 15 16  1  0
  7 17  1  0
 16 17  1  0
 17 18  2  0
 16 19  1  6
  8 15  1  0
  9 10  2  0
 10 11  1  0
 11 12  2  0
 12 13  1  0
 13 14  2  0
  9 14  1  0
M  END

$$$$
No_2990-/export/home/yangzhenyu/potential_scad_32_flow//YTHDC2/2024-12-06-03-22-00/
     RDKit          3D

 20 21  0  0  1  0  0  0  0  0999 V2000
    1.1787   -8.0297    3.5154 C   0  0  0  0  0  0  0  0  0  0  0  0
    1.1048   -9.2215    3.2892 C   0  0  0  0  0  0  0  0  0  0  0  0
    1.2339   -9.7611    2.0189 C   0  0  0  0  0  0  0  0  0  0  0  0
    1.3583   -9.0036    0.9764 C   0  0  0  0  0  0  0  0  0  0  0  0
    1.5996   -7.6362    1.1311 C   0  0  0  0  0  0  0  0  0  0  0  0
    1.4830   -7.0928    2.3626 C   0  0  0  0  0  0  0  0  0  0  0  0
    1.1171  -11.3311    1.8661 C   0  0  2  0  0  0  0  0  0  0  0  0
    1.9975  -12.1095    2.2478 C   0  0  0  0  0  0  0  0  0  0  0  0
    1.5366  -13.3685    2.6023 C   0  0  0  0  0  0  0  0  0  0  0  0
    0.7347  -14.0716    1.7416 C   0  0  0  0  0  0  0  0  0  0  0  0
   -0.3349  -13.2084    1.2819 C   0  0  1  0  0  0  0  0  0  0  0  0
    0.0998  -11.8049    0.9718 N   0  0  0  0  0  0  0  0  0  0  0  0
   -1.1967  -13.6746    0.3397 C   0  0  0  0  0  0  0  0  0  0  0  0
   -2.0431  -12.8195   -0.3265 C   0  0  0  0  0  0  0  0  0  0  0  0
   -2.0474  -11.3977    0.0306 C   0  0  0  0  0  0  0  0  0  0  0  0
   -2.0151  -11.0203    1.2378 C   0  0  0  0  0  0  0  0  0  0  0  0
   -2.8292  -11.4798    2.2564 C   0  0  0  0  0  0  0  0  0  0  0  0
   -2.5150  -11.1258    3.5933 C   0  0  0  0  0  0  0  0  0  0  0  0
   -3.1121  -11.7591    4.6533 C   0  0  0  0  0  0  0  0  0  0  0  0
   -4.2044  -12.3644    4.4471 C   0  0  0  0  0  0  0  0  0  0  0  0
  7  3  1  6
  7  8  1  0
  8  9  1  0
  9 10  1  0
 11 10  1  6
  7 12  1  0
 11 12  1  0
 11 13  1  0
 13 14  2  3
 14 15  1  0
 15 16  2  3
 16 17  1  0
 17 18  2  3
 18 19  1  0
 19 20  2  0
  1  2  2  0
  2  3  1  0
  3  4  2  0
  4  5  1  0
  5  6  2  0
  1  6  1  0
M  END

$$$$
No_2991-/export/home/yangzhenyu/potential_scad_32_flow//YTHDC2/2024-12-06-03-22-00/
     RDKit          3D

 20 22  0  0  0  0  0  0  0  0999 V2000
    1.1787   -8.0297    3.5154 C   0  0  0  0  0  0  0  0  0  0  0  0
    1.0491   -6.8434    2.9820 C   0  0  0  0  0  0  0  0  0  0  0  0
    0.0950   -8.8404    3.2292 C   0  0  0  0  0  0  0  0  0  0  0  0
   -0.9173   -8.4596    2.5152 C   0  0  0  0  0  0  0  0  0  0  0  0
   -1.0331   -7.2162    2.0653 C   0  0  0  0  0  0  0  0  0  0  0  0
   -0.0105   -6.3168    2.3081 C   0  0  0  0  0  0  0  0  0  0  0  0
    0.1465  -10.2446    3.6981 C   0  0  0  0  0  0  0  0  0  0  0  0
    0.1907  -11.3369    2.8651 C   0  0  0  0  0  0  0  0  0  0  0  0
    1.0128  -11.8996    2.5974 C   0  0  0  0  0  0  0  0  0  0  0  0
    1.2328  -13.0891    1.8129 C   0  0  0  0  0  0  0  0  0  0  0  0
    0.1831  -13.5436    1.2817 C   0  0  0  0  0  0  0  0  0  0  0  0
   -0.9583  -12.9140    1.3153 C   0  0  0  0  0  0  0  0  0  0  0  0
   -1.0325  -11.7940    2.1538 C   0  0  0  0  0  0  0  0  0  0  0  0
    0.0368   -4.7927    1.8437 C   0  0  0  0  0  0  0  0  0  0  0  0
   -0.5609   -4.5881    0.7526 C   0  0  0  0  0  0  0  0  0  0  0  0
   -1.0666   -3.4634    0.6099 C   0  0  0  0  0  0  0  0  0  0  0  0
   -0.5088   -2.3340    1.2812 C   0  0  0  0  0  0  0  0  0  0  0  0
    0.3286   -2.5494    2.2402 C   0  0  0  0  0  0  0  0  0  0  0  0
    0.5627   -3.8875    2.6330 C   0  0  0  0  0  0  0  0  0  0  0  0
   -0.6728  -10.3968    4.8519 O   0  0  0  0  0  0  0  0  0  0  0  0
  3  7  1  0
  7  8  1  0
  6 14  1  0
  7 20  2  0
 14 15  2  0
 15 16  1  0
 16 17  2  0
 17 18  1  0
 18 19  2  0
 14 19  1  0
  1  2  2  0
  2  6  1  0
  5  6  2  0
  4  5  1  0
  3  4  2  0
  1  3  1  0
  8  9  2  0
  9 10  1  0
 10 11  2  0
 11 12  1  0
 12 13  2  0
  8 13  1  0
M  END

$$$$
No_2992-/export/home/yangzhenyu/potential_scad_32_flow//YTHDC2/2024-12-06-03-22-00/
     RDKit          3D

 19 21  0  0  0  0  0  0  0  0999 V2000
    1.1787   -8.0297    3.5154 C   0  0  0  0  0  0  0  0  0  0  0  0
    1.1048   -9.2215    3.2892 C   0  0  0  0  0  0  0  0  0  0  0  0
    1.3627  -10.1721    4.3044 C   0  0  0  0  0  0  0  0  0  0  0  0
    1.0682  -11.5187    4.0618 C   0  0  0  0  0  0  0  0  0  0  0  0
    0.6332  -11.9655    2.9682 C   0  0  0  0  0  0  0  0  0  0  0  0
    0.4776  -11.1308    1.9203 C   0  0  0  0  0  0  0  0  0  0  0  0
    0.7470   -9.8274    2.0368 C   0  0  0  0  0  0  0  0  0  0  0  0
    0.5535   -7.1314    2.6861 N   0  0  0  0  0  0  0  0  0  0  0  0
    0.8107   -5.6615    2.8397 C   0  0  0  0  0  0  0  0  0  0  0  0
    0.4049   -4.7863    1.8175 C   0  0  0  0  0  0  0  0  0  0  0  0
    0.9180   -3.5104    1.7850 C   0  0  0  0  0  0  0  0  0  0  0  0
    0.7483   -8.9100    0.9723 C   0  0  0  0  0  0  0  0  0  0  0  0
    0.4805   -7.5009    1.2558 C   0  0  0  0  0  0  0  0  0  0  0  0
    0.4215  -13.6088    2.7184 Cl  0  0  0  0  0  0  0  0  0  0  0  0
    1.8918   -3.1893    2.7583 C   0  0  0  0  0  0  0  0  0  0  0  0
    2.2025   -4.0188    3.8537 C   0  0  0  0  0  0  0  0  0  0  0  0
    1.7408   -5.2829    3.7727 C   0  0  0  0  0  0  0  0  0  0  0  0
    0.9301   -9.2279   -0.2906 C   0  0  0  0  0  0  0  0  0  0  0  0
    2.1057   -9.5718   -0.8121 Br  0  0  0  0  0  0  0  0  0  0  0  0
  1  2  1  0
  1  8  1  0
  8  9  1  0
  7 12  1  0
  8 13  1  0
 12 13  1  0
  5 14  1  0
 12 18  1  0
 18 19  1  0
  9 10  2  0
 10 11  1  0
 11 15  2  0
 15 16  1  0
 16 17  2  0
  9 17  1  0
  2  3  2  0
  3  4  1  0
  4  5  2  0
  5  6  1  0
  6  7  2  0
  2  7  1  0
M  END

$$$$
No_2993-/export/home/yangzhenyu/potential_scad_32_flow//YTHDC2/2024-12-06-03-22-00/
     RDKit          3D

 18 18  0  0  1  0  0  0  0  0999 V2000
    1.1787   -8.0297    3.5154 C   0  0  0  0  0  0  0  0  0  0  0  0
    1.1048   -9.2215    3.2892 C   0  0  0  0  0  0  0  0  0  0  0  0
    1.2339   -9.7611    2.0189 C   0  0  0  0  0  0  0  0  0  0  0  0
    1.3583   -9.0036    0.9764 C   0  0  0  0  0  0  0  0  0  0  0  0
    1.5996   -7.6362    1.1311 C   0  0  0  0  0  0  0  0  0  0  0  0
    1.4830   -7.0928    2.3626 C   0  0  0  0  0  0  0  0  0  0  0  0
    1.1008  -11.2372    1.8542 N   0  0  0  0  0  0  0  0  0  0  0  0
    1.9253  -12.1082    2.1966 C   0  0  0  0  0  0  0  0  0  0  0  0
    1.4037  -13.3123    2.6564 C   0  0  1  0  0  0  0  0  0  0  0  0
    0.1648  -13.2032    3.2839 C   0  0  0  0  0  0  0  0  0  0  0  0
    2.0270  -14.5657    2.4130 C   0  0  0  0  0  0  0  0  0  0  0  0
    3.1149  -14.6044    1.6241 C   0  0  0  0  0  0  0  0  0  0  0  0
    1.5823  -15.5905    3.1174 O   0  0  0  0  0  0  0  0  0  0  0  0
    1.5524   -5.6603    2.6792 C   0  0  0  0  0  0  0  0  0  0  0  0
    0.6264   -4.8480    2.6644 O   0  0  0  0  0  0  0  0  0  0  0  0
   -0.4129   -5.0519    1.9676 C   0  0  0  0  0  0  0  0  0  0  0  0
   -1.3862   -4.0642    2.0591 C   0  0  0  0  0  0  0  0  0  0  0  0
   -0.9761   -2.8690    1.6702 C   0  0  0  0  0  0  0  0  0  0  0  0
  3  7  1  0
  7  8  1  0
  8  9  1  0
  9 10  1  6
  9 11  1  0
 11 12  1  0
 11 13  2  0
  6 14  1  0
 14 15  1  0
 15 16  1  0
 16 17  1  0
 17 18  1  0
  1  2  2  0
  2  3  1  0
  3  4  2  0
  4  5  1  0
  5  6  2  0
  1  6  1  0
M  END

$$$$
No_2994-/export/home/yangzhenyu/potential_scad_32_flow//YTHDC2/2024-12-06-03-22-00/
     RDKit          3D

 19 20  0  0  0  0  0  0  0  0999 V2000
    1.1787   -8.0297    3.5154 C   0  0  0  0  0  0  0  0  0  0  0  0
    1.0491   -6.8434    2.9820 C   0  0  0  0  0  0  0  0  0  0  0  0
    0.9905   -9.0774    2.6527 C   0  0  0  0  0  0  0  0  0  0  0  0
    0.7897   -8.9519    1.3691 C   0  0  0  0  0  0  0  0  0  0  0  0
    0.7018   -7.7198    0.7892 C   0  0  0  0  0  0  0  0  0  0  0  0
    0.8918   -6.5957    1.6117 C   0  0  0  0  0  0  0  0  0  0  0  0
    1.0998  -10.4710    3.2437 C   0  0  0  0  0  0  0  0  0  0  0  0
    0.0471  -11.2546    3.3963 C   0  0  0  0  0  0  0  0  0  0  0  0
    0.1622  -12.5732    3.4140 C   0  0  0  0  0  0  0  0  0  0  0  0
    1.4182  -13.1957    3.4048 C   0  0  0  0  0  0  0  0  0  0  0  0
    2.1789  -12.8763    2.7170 C   0  0  0  0  0  0  0  0  0  0  0  0
    2.2524  -11.2965    2.5835 C   0  0  0  0  0  0  0  0  0  0  0  0
    0.8657   -5.2443    1.2186 O   0  0  0  0  0  0  0  0  0  0  0  0
    1.2215  -14.7519    3.3750 Cl  0  0  0  0  0  0  0  0  0  0  0  0
   -1.0942  -10.5402    3.8745 C   0  0  0  0  0  0  0  0  0  0  0  0
   -2.2406  -10.5477    3.1865 N   0  0  0  0  0  0  0  0  0  0  0  0
   -1.2087   -9.8306    5.1323 O   0  0  0  0  0  0  0  0  0  0  0  0
   -2.1412   -8.8792    5.0562 C   0  0  0  0  0  0  0  0  0  0  0  0
   -2.2966  -11.0352    2.3037 H   0  0  0  0  0  0  0  0  0  0  0  0
  1  2  1  0
  3  4  1  0
  2  6  1  0
  5  6  1  0
  3  7  1  0
  6 13  2  0
 10 14  1  0
  8 15  1  0
 15 16  2  0
 15 17  1  0
 17 18  1  0
  1  3  1  0
  4  5  1  0
  7  8  2  0
  8  9  1  0
  9 10  2  0
 10 11  1  0
 11 12  2  0
  7 12  1  0
 16 19  1  0
M  END

$$$$
No_2995-/export/home/yangzhenyu/potential_scad_32_flow//YTHDC2/2024-12-06-03-22-00/
     RDKit          3D

 15 15  0  0  0  0  0  0  0  0999 V2000
    1.1787   -8.0297    3.5154 C   0  0  0  0  0  0  0  0  0  0  0  0
    1.0491   -6.8434    2.9820 C   0  0  0  0  0  0  0  0  0  0  0  0
    0.0950   -8.8404    3.2292 C   0  0  0  0  0  0  0  0  0  0  0  0
   -0.9173   -8.4596    2.5152 C   0  0  0  0  0  0  0  0  0  0  0  0
   -1.0331   -7.2162    2.0653 C   0  0  0  0  0  0  0  0  0  0  0  0
   -0.0105   -6.3168    2.3081 C   0  0  0  0  0  0  0  0  0  0  0  0
    0.1150   -4.9910    1.8495 C   0  0  0  0  0  0  0  0  0  0  0  0
   -0.5774   -4.1593    2.0596 N   0  0  0  0  0  0  0  0  0  0  0  0
    0.1680  -10.2877    3.7012 S   0  0  0  0  0  0  0  0  0  0  0  0
   -1.1083  -10.7288    4.2420 N   0  0  0  0  0  0  0  0  0  0  0  0
    0.6870  -11.3217    2.7715 O   0  0  0  0  0  0  0  0  0  0  0  0
    1.1430  -10.4500    4.9835 O   0  0  0  0  0  0  0  0  0  0  0  0
   -1.6885   -4.1403    2.1769 C   0  0  0  0  0  0  0  0  0  0  0  0
   -2.4977   -3.6083    2.4718 C   0  0  0  0  0  0  0  0  0  0  0  0
    1.1011   -4.8549    0.7761 O   0  0  0  0  0  0  0  0  0  0  0  0
  6  7  1  0
  7  8  1  0
  3  9  1  0
  9 10  1  0
  9 11  2  0
  9 12  2  0
  8 13  2  3
 13 14  1  0
  7 15  2  0
  1  2  2  0
  2  6  1  0
  5  6  2  0
  4  5  1  0
  3  4  2  0
  1  3  1  0
M  END

$$$$
No_2996-/export/home/yangzhenyu/potential_scad_32_flow//YTHDC2/2024-12-06-03-22-00/
     RDKit          3D

 17 17  0  0  0  0  0  0  0  0999 V2000
    1.1787   -8.0297    3.5154 C   0  0  0  0  0  0  0  0  0  0  0  0
    1.1048   -9.2215    3.2892 C   0  0  0  0  0  0  0  0  0  0  0  0
    1.2339   -9.7611    2.0189 C   0  0  0  0  0  0  0  0  0  0  0  0
    1.4306   -8.9466    1.1170 C   0  0  0  0  0  0  0  0  0  0  0  0
    1.7533   -9.5159   -0.2897 C   0  0  0  0  0  0  0  0  0  0  0  0
    1.4215   -7.0791    2.4025 C   0  0  0  0  0  0  0  0  0  0  0  0
    1.5409   -7.5780    1.1516 C   0  0  0  0  0  0  0  0  0  0  0  0
    2.0997   -8.7639   -1.2659 O   0  0  0  0  0  0  0  0  0  0  0  0
    1.2756  -10.6183   -0.4587 O   0  0  0  0  0  0  0  0  0  0  0  0
    0.9912  -10.1918    4.4035 C   0  0  0  0  0  0  0  0  0  0  0  0
    0.4655  -11.5308    3.8130 O   0  0  0  0  0  0  0  0  0  0  0  0
    1.4154  -12.5919    4.0168 C   0  0  0  0  0  0  0  0  0  0  0  0
    1.4153   -5.4112    2.7525 Br  0  0  0  0  0  0  0  0  0  0  0  0
    1.0788  -13.7933    3.2127 C   0  0  0  0  0  0  0  0  0  0  0  0
   -0.1382  -13.8160    2.7161 C   0  0  0  0  0  0  0  0  0  0  0  0
   -0.1023  -14.9508    1.7354 C   0  0  0  0  0  0  0  0  0  0  0  0
    0.8378  -15.8538    1.6210 C   0  0  0  0  0  0  0  0  0  0  0  0
  4  5  1  0
  5  8  1  0
  5  9  2  0
  2 10  1  0
 10 11  1  0
 11 12  1  0
  6 13  1  0
 12 14  1  0
 14 15  1  0
 15 16  2  3
 16 17  1  0
  1  2  2  0
  2  3  1  0
  3  4  2  0
  4  7  1  0
  6  7  2  0
  1  6  1  0
M  END

$$$$
No_2997-/export/home/yangzhenyu/potential_scad_32_flow//YTHDC2/2024-12-06-03-22-00/
     RDKit          3D

 17 17  0  0  1  0  0  0  0  0999 V2000
    1.1787   -8.0297    3.5154 C   0  0  0  0  0  0  0  0  0  0  0  0
    1.1048   -9.2215    3.2892 C   0  0  0  0  0  0  0  0  0  0  0  0
    1.2339   -9.7611    2.0189 C   0  0  0  0  0  0  0  0  0  0  0  0
    1.3583   -9.0036    0.9764 C   0  0  0  0  0  0  0  0  0  0  0  0
    1.7077   -9.6100   -0.3010 C   0  0  0  0  0  0  0  0  0  0  0  0
    1.3637   -7.1087    2.3226 C   0  0  0  0  0  0  0  0  0  0  0  0
    1.4257   -7.6645    1.0231 C   0  0  0  0  0  0  0  0  0  0  0  0
    1.6722  -10.7840   -0.4044 O   0  0  0  0  0  0  0  0  0  0  0  0
    1.4862   -8.9147   -1.4018 O   0  0  0  0  0  0  0  0  0  0  0  0
    1.1383  -10.1804    4.3877 C   0  0  2  0  0  0  0  0  0  0  0  0
    1.9382  -11.5205    4.1144 O   0  0  0  0  0  0  0  0  0  0  0  0
    1.2543   -5.4142    2.6329 Cl  0  0  0  0  0  0  0  0  0  0  0  0
   -0.2945  -10.7254    4.6680 O   0  0  0  0  0  0  0  0  0  0  0  0
   -1.2266   -9.7397    4.6704 C   0  0  0  0  0  0  0  0  0  0  0  0
   -2.4240  -10.1372    4.1126 C   0  0  0  0  0  0  0  0  0  0  0  0
   -3.5078   -9.2829    4.3830 C   0  0  0  0  0  0  0  0  0  0  0  0
   -3.2686   -7.9650    4.8631 C   0  0  0  0  0  0  0  0  0  0  0  0
  4  5  1  0
  5  8  2  0
  5  9  1  0
  2 10  1  0
 10 11  1  6
  6 12  1  0
 10 13  1  0
 13 14  1  0
 14 15  1  0
 15 16  2  3
 16 17  1  0
  1  2  2  0
  2  3  1  0
  3  4  2  0
  4  7  1  0
  6  7  2  0
  1  6  1  0
M  END

$$$$
No_2998-/export/home/yangzhenyu/potential_scad_32_flow//YTHDC2/2024-12-06-03-22-00/
     RDKit          3D

 20 21  0  0  1  0  0  0  0  0999 V2000
    1.1787   -8.0297    3.5154 C   0  0  0  0  0  0  0  0  0  0  0  0
    1.1048   -9.2215    3.2892 O   0  0  0  0  0  0  0  0  0  0  0  0
    1.0717   -9.7272    2.0537 C   0  0  2  0  0  0  0  0  0  0  0  0
    1.1174   -8.7649    1.1692 C   0  0  0  0  0  0  0  0  0  0  0  0
    1.3892   -7.7971    1.1885 C   0  0  0  0  0  0  0  0  0  0  0  0
    1.4335   -7.0669    2.4628 C   0  0  1  0  0  0  0  0  0  0  0  0
    0.8429  -11.0615    2.0083 C   0  0  2  0  0  0  0  0  0  0  0  0
    1.4227  -12.0196    2.6762 C   0  0  0  0  0  0  0  0  0  0  0  0
    1.2958  -13.3766    2.3197 C   0  0  2  0  0  0  0  0  0  0  0  0
    0.4456  -13.7704    1.4041 C   0  0  1  0  0  0  0  0  0  0  0  0
   -0.2415  -12.9104    0.6430 C   0  0  1  0  0  0  0  0  0  0  0  0
    0.0161  -11.5215    0.8753 C   0  0  0  0  0  0  0  0  0  0  0  0
    1.5278   -5.7367    2.7851 C   0  0  0  0  0  0  0  0  0  0  0  0
    2.0277  -14.3854    3.1348 Cl  0  0  0  0  0  0  0  0  0  0  0  0
    1.3458   -4.8026    1.7479 O   0  0  0  0  0  0  0  0  0  0  0  0
    2.2373   -5.2402    3.7091 O   0  0  0  0  0  0  0  0  0  0  0  0
   -0.6878  -10.6736    0.1473 O   0  0  0  0  0  0  0  0  0  0  0  0
    0.2413  -15.0974    1.0060 Cl  0  0  0  0  0  0  0  0  0  0  0  0
   -1.0352  -13.2597   -0.4607 O   0  0  0  0  0  0  0  0  0  0  0  0
   -2.1076  -13.1974   -0.5038 C   0  0  0  0  0  0  0  0  0  0  0  0
  1  2  1  0
  3  2  1  1
  3  4  1  0
  4  5  2  0
  1  6  1  0
  5  6  1  0
  3  7  1  0
  7  8  1  6
  9 10  1  0
  7 12  1  0
 11 12  1  0
  6 13  1  6
  9 14  1  1
 13 15  1  0
 13 16  2  0
 12 17  2  0
 10 18  1  6
 11 19  1  6
 19 20  1  0
  8  9  1  0
 10 11  1  0
M  END

$$$$
No_2999-/export/home/yangzhenyu/potential_scad_32_flow//YTHDC2/2024-12-06-03-22-00/
     RDKit          3D

 19 20  0  0  1  0  0  0  0  0999 V2000
    1.1787   -8.0297    3.5154 C   0  0  0  0  0  0  0  0  0  0  0  0
    1.0491   -6.8434    2.9820 C   0  0  0  0  0  0  0  0  0  0  0  0
    0.0950   -8.8404    3.2292 C   0  0  0  0  0  0  0  0  0  0  0  0
   -0.9173   -8.4596    2.5152 C   0  0  0  0  0  0  0  0  0  0  0  0
   -1.0331   -7.2162    2.0653 C   0  0  0  0  0  0  0  0  0  0  0  0
   -0.0105   -6.3168    2.3081 C   0  0  0  0  0  0  0  0  0  0  0  0
    0.1935  -10.3737    3.7416 O   0  0  0  0  0  0  0  0  0  0  0  0
    0.0314   -4.9579    1.9274 O   0  0  0  0  0  0  0  0  0  0  0  0
    0.6969  -11.3547    3.1777 C   0  0  1  0  0  0  0  0  0  0  0  0
    1.8344  -11.7827    3.7448 C   0  0  0  0  0  0  0  0  0  0  0  0
   -0.2729  -12.4321    2.9046 C   0  0  0  0  0  0  0  0  0  0  0  0
   -1.4296  -12.1154    2.5426 C   0  0  0  0  0  0  0  0  0  0  0  0
    0.3484  -13.6362    2.8432 C   0  0  0  0  0  0  0  0  0  0  0  0
   -0.4640  -14.7434    2.5769 C   0  0  0  0  0  0  0  0  0  0  0  0
   -1.8241  -14.4738    2.3094 C   0  0  0  0  0  0  0  0  0  0  0  0
   -2.2614  -13.2373    2.2473 C   0  0  0  0  0  0  0  0  0  0  0  0
   -0.1686   -3.9701    2.4560 C   0  0  0  0  0  0  0  0  0  0  0  0
   -2.6422  -15.6084    1.9325 C   0  0  0  0  0  0  0  0  0  0  0  0
   -3.2312  -15.7115    0.7611 C   0  0  0  0  0  0  0  0  0  0  0  0
  3  7  1  0
  6  8  1  0
  7  9  1  0
  9 10  1  1
  9 11  1  0
  8 17  1  0
 15 18  1  0
 18 19  2  0
 11 12  2  0
 12 16  1  0
 15 16  2  0
 14 15  1  0
 13 14  2  0
 11 13  1  0
  1  2  2  0
  2  6  1  0
  5  6  2  0
  4  5  1  0
  3  4  2  0
  1  3  1  0
M  END

$$$$
No_3000-/export/home/yangzhenyu/potential_scad_32_flow//YTHDC2/2024-12-06-03-22-00/
     RDKit          3D

 18 19  0  0  0  0  0  0  0  0999 V2000
    1.1787   -8.0297    3.5154 C   0  0  0  0  0  0  0  0  0  0  0  0
    1.0491   -6.8434    2.9820 C   0  0  0  0  0  0  0  0  0  0  0  0
    0.0950   -8.8404    3.2292 C   0  0  0  0  0  0  0  0  0  0  0  0
   -0.9173   -8.4596    2.5152 C   0  0  0  0  0  0  0  0  0  0  0  0
   -1.0331   -7.2162    2.0653 C   0  0  0  0  0  0  0  0  0  0  0  0
   -0.0105   -6.3168    2.3081 C   0  0  0  0  0  0  0  0  0  0  0  0
    0.1150   -4.9910    1.8495 C   0  0  0  0  0  0  0  0  0  0  0  0
   -0.5774   -4.1593    2.0596 C   0  0  0  0  0  0  0  0  0  0  0  0
   -0.5028   -2.7328    1.5284 C   0  0  0  0  0  0  0  0  0  0  0  0
    0.1510  -10.2710    3.6783 C   0  0  0  0  0  0  0  0  0  0  0  0
    0.1733  -11.3320    2.9439 C   0  0  0  0  0  0  0  0  0  0  0  0
    1.1917  -12.3560    3.2158 C   0  0  0  0  0  0  0  0  0  0  0  0
    1.2122  -13.5105    2.4911 C   0  0  0  0  0  0  0  0  0  0  0  0
    0.4971  -13.7228    1.5109 C   0  0  0  0  0  0  0  0  0  0  0  0
   -0.3271  -12.7279    1.0030 C   0  0  0  0  0  0  0  0  0  0  0  0
   -0.5022  -11.5809    1.7621 C   0  0  0  0  0  0  0  0  0  0  0  0
    2.1501  -14.5589    2.9681 Cl  0  0  0  0  0  0  0  0  0  0  0  0
    0.4689   -2.6198    0.5752 C   0  0  0  0  0  0  0  0  0  0  0  0
  6  7  1  0
  7  8  2  3
  8  9  1  0
  3 10  1  0
 10 11  1  0
 13 17  1  0
  9 18  2  0
 11 12  2  0
 12 13  1  0
 13 14  2  0
 14 15  1  0
 15 16  2  0
 11 16  1  0
  1  2  2  0
  2  6  1  0
  5  6  2  0
  4  5  1  0
  3  4  2  0
  1  3  1  0
M  END

$$$$
No_3001-/export/home/yangzhenyu/potential_scad_32_flow//YTHDC2/2024-12-06-03-22-00/
     RDKit          3D

 18 18  0  0  1  0  0  0  0  0999 V2000
    1.1787   -8.0297    3.5154 Cl  0  0  0  0  0  0  0  0  0  0  0  0
    0.6986   -7.2038    2.6409 C   0  0  2  0  0  0  0  0  0  0  0  0
    0.9133   -7.4941    1.2402 C   0  0  0  0  0  0  0  0  0  0  0  0
    0.6150   -8.7672    0.9128 C   0  0  2  0  0  0  0  0  0  0  0  0
    1.0037   -9.2000   -0.1197 C   0  0  0  0  0  0  0  0  0  0  0  0
    1.7866   -8.6473   -1.1643 O   0  0  0  0  0  0  0  0  0  0  0  0
    1.0172  -10.4748   -0.5054 O   0  0  0  0  0  0  0  0  0  0  0  0
    1.3052   -5.5853    2.8439 C   0  0  0  0  0  0  0  0  0  0  0  0
    1.6646   -5.3433    4.0536 O   0  0  0  0  0  0  0  0  0  0  0  0
    1.2526   -4.7940    1.9337 O   0  0  0  0  0  0  0  0  0  0  0  0
   -0.3640   -9.3698    1.5228 C   0  0  2  0  0  0  0  0  0  0  0  0
   -0.3330  -10.4956    2.2381 C   0  0  0  0  0  0  0  0  0  0  0  0
   -1.2505  -11.4930    2.3663 C   0  0  0  0  0  0  0  0  0  0  0  0
   -2.5241  -11.1477    2.1706 C   0  0  1  0  0  0  0  0  0  0  0  0
   -2.8339   -9.9937    1.5596 C   0  0  0  0  0  0  0  0  0  0  0  0
   -1.8318   -9.1223    1.2074 C   0  0  0  0  0  0  0  0  0  0  0  0
   -3.5614  -12.0199    2.4449 Cl  0  0  0  0  0  0  0  0  0  0  0  0
   -2.0996   -7.9106    0.4447 O   0  0  0  0  0  0  0  0  0  0  0  0
  2  1  1  1
  2  3  1  0
  4  3  1  6
  4  5  1  0
  5  6  2  0
  5  7  1  0
  2  8  1  0
  8  9  1  0
  8 10  2  0
  4 11  1  0
 11 12  1  6
 13 14  1  0
 11 16  1  0
 15 16  1  0
 14 17  1  6
 16 18  2  0
 12 13  1  0
 14 15  1  0
M  END

$$$$
No_3002-/export/home/yangzhenyu/potential_scad_32_flow//YTHDC2/2024-12-06-03-22-00/
     RDKit          3D

 17 18  0  0  0  0  0  0  0  0999 V2000
    1.1787   -8.0297    3.5154 C   0  0  0  0  0  0  0  0  0  0  0  0
    1.1048   -9.2215    3.2892 C   0  0  0  0  0  0  0  0  0  0  0  0
    1.2339   -9.7611    2.0189 C   0  0  0  0  0  0  0  0  0  0  0  0
    1.3583   -9.0036    0.9764 C   0  0  0  0  0  0  0  0  0  0  0  0
    1.5996   -7.6362    1.1311 C   0  0  0  0  0  0  0  0  0  0  0  0
    1.4830   -7.0928    2.3626 C   0  0  0  0  0  0  0  0  0  0  0  0
    1.1171  -11.3311    1.8661 C   0  0  0  0  0  0  0  0  0  0  0  0
    0.5042  -11.9974    2.3631 C   0  0  0  0  0  0  0  0  0  0  0  0
    0.4547  -13.3874    2.1599 C   0  0  0  0  0  0  0  0  0  0  0  0
    1.6053  -14.2337    2.6336 C   0  0  0  0  0  0  0  0  0  0  0  0
    1.6405  -15.5635    2.4227 C   0  0  0  0  0  0  0  0  0  0  0  0
    0.5328  -16.1828    1.9320 C   0  0  0  0  0  0  0  0  0  0  0  0
   -0.4545  -15.5158    1.3547 C   0  0  0  0  0  0  0  0  0  0  0  0
   -0.5125  -14.1019    1.5567 C   0  0  0  0  0  0  0  0  0  0  0  0
    1.5687   -5.6632    2.6483 O   0  0  0  0  0  0  0  0  0  0  0  0
    1.5159   -9.3777   -0.3849 C   0  0  0  0  0  0  0  0  0  0  0  0
    2.5116   -9.5908   -0.9509 O   0  0  0  0  0  0  0  0  0  0  0  0
  3  7  1  0
  7  8  2  3
  8  9  1  0
  6 15  1  0
  4 16  1  0
 16 17  2  0
  1  2  2  0
  2  3  1  0
  3  4  2  0
  4  5  1  0
  5  6  2  0
  1  6  1  0
  9 10  2  0
 10 11  1  0
 11 12  2  0
 12 13  1  0
 13 14  2  0
  9 14  1  0
M  END

$$$$
No_3003-/export/home/yangzhenyu/potential_scad_32_flow//YTHDC2/2024-12-06-03-22-00/
     RDKit          3D

 18 19  0  0  1  0  0  0  0  0999 V2000
    1.1787   -8.0297    3.5154 C   0  0  0  0  0  0  0  0  0  0  0  0
    1.1048   -9.2215    3.2892 C   0  0  0  0  0  0  0  0  0  0  0  0
    1.2339   -9.7611    2.0189 C   0  0  0  0  0  0  0  0  0  0  0  0
    1.3583   -9.0036    0.9764 C   0  0  0  0  0  0  0  0  0  0  0  0
    1.5996   -7.6362    1.1311 C   0  0  0  0  0  0  0  0  0  0  0  0
    1.4830   -7.0928    2.3626 C   0  0  0  0  0  0  0  0  0  0  0  0
    1.4898   -5.7274    2.6199 C   0  0  0  0  0  0  0  0  0  0  0  0
    1.1681  -11.2222    1.8390 C   0  0  0  0  0  0  0  0  0  0  0  0
    1.9047  -12.1147    2.3357 C   0  0  0  0  0  0  0  0  0  0  0  0
    1.6844  -13.4555    2.0602 C   0  0  2  0  0  0  0  0  0  0  0  0
    0.6977  -13.8514    1.3046 C   0  0  0  0  0  0  0  0  0  0  0  0
   -0.0354  -12.4957    0.8309 C   0  0  1  0  0  0  0  0  0  0  0  0
    0.1660  -11.5133    0.9665 C   0  0  0  0  0  0  0  0  0  0  0  0
    0.6781   -4.9837    2.7309 I   0  0  0  0  0  0  0  0  0  0  0  0
    2.4810  -14.4570    2.7558 Cl  0  0  0  0  0  0  0  0  0  0  0  0
   -0.7133  -10.5890    0.4693 O   0  0  0  0  0  0  0  0  0  0  0  0
   -1.1200  -13.1384   -0.1823 O   0  0  0  0  0  0  0  0  0  0  0  0
   -1.3399  -13.2228   -1.1728 C   0  0  0  0  0  0  0  0  0  0  0  0
  6  7  1  0
  3  8  1  0
  8  9  1  0
 10 11  1  0
  8 13  1  0
 12 13  1  0
  7 14  1  0
 10 15  1  1
 13 16  2  0
 12 17  1  6
 17 18  1  0
  9 10  1  0
 11 12  1  0
  1  2  2  0
  2  3  1  0
  3  4  2  0
  4  5  1  0
  5  6  2  0
  1  6  1  0
M  END

$$$$
No_3004-/export/home/yangzhenyu/potential_scad_32_flow//YTHDC2/2024-12-06-03-22-00/
     RDKit          3D

 17 18  0  0  0  0  0  0  0  0999 V2000
    1.1787   -8.0297    3.5154 C   0  0  0  0  0  0  0  0  0  0  0  0
    1.0491   -6.8434    2.9820 C   0  0  0  0  0  0  0  0  0  0  0  0
    0.0950   -8.8404    3.2292 C   0  0  0  0  0  0  0  0  0  0  0  0
   -0.9173   -8.4596    2.5152 C   0  0  0  0  0  0  0  0  0  0  0  0
   -1.0331   -7.2162    2.0653 C   0  0  0  0  0  0  0  0  0  0  0  0
   -0.0105   -6.3168    2.3081 C   0  0  0  0  0  0  0  0  0  0  0  0
    0.1465  -10.2446    3.6981 C   0  0  0  0  0  0  0  0  0  0  0  0
    0.1907  -11.3369    2.8651 C   0  0  0  0  0  0  0  0  0  0  0  0
    0.7661  -12.5788    3.2923 C   0  0  0  0  0  0  0  0  0  0  0  0
    1.3881  -13.3018    2.4169 C   0  0  0  0  0  0  0  0  0  0  0  0
    1.4359  -13.1470    1.1819 C   0  0  0  0  0  0  0  0  0  0  0  0
    0.7647  -11.7488    0.8627 C   0  0  0  0  0  0  0  0  0  0  0  0
    0.3100  -10.9665    1.6252 N   0  0  0  0  0  0  0  0  0  0  0  0
    1.9239  -14.7237    2.8477 C   0  0  0  0  0  0  0  0  0  0  0  0
   -0.0572   -4.8175    1.8151 Cl  0  0  0  0  0  0  0  0  0  0  0  0
    1.1713  -15.6367    3.3868 Cl  0  0  0  0  0  0  0  0  0  0  0  0
   -0.2212  -10.4376    5.0683 O   0  0  0  0  0  0  0  0  0  0  0  0
  3  7  1  0
  7  8  1  0
 10 14  1  0
  6 15  1  0
 14 16  1  0
  7 17  2  0
  1  2  2  0
  2  6  1  0
  5  6  2  0
  4  5  1  0
  3  4  2  0
  1  3  1  0
  8  9  2  0
  9 10  1  0
 10 11  2  0
 11 12  1  0
 12 13  2  0
  8 13  1  0
M  END

$$$$
No_3005-/export/home/yangzhenyu/potential_scad_32_flow//YTHDC2/2024-12-06-03-22-00/
     RDKit          3D

 18 19  0  0  0  0  0  0  0  0999 V2000
    1.1787   -8.0297    3.5154 C   0  0  0  0  0  0  0  0  0  0  0  0
    1.0491   -6.8434    2.9820 C   0  0  0  0  0  0  0  0  0  0  0  0
    0.9905   -9.0774    2.6527 C   0  0  0  0  0  0  0  0  0  0  0  0
    0.7897   -8.9519    1.3691 C   0  0  0  0  0  0  0  0  0  0  0  0
    0.7018   -7.7198    0.7892 C   0  0  0  0  0  0  0  0  0  0  0  0
    0.8918   -6.5957    1.6117 C   0  0  0  0  0  0  0  0  0  0  0  0
    1.0600  -10.5680    3.3321 C   0  0  0  0  0  0  0  0  0  0  0  0
   -0.1041  -11.1772    3.5150 O   0  0  0  0  0  0  0  0  0  0  0  0
    0.9390   -5.2580    1.1790 C   0  0  0  0  0  0  0  0  0  0  0  0
    2.1501  -11.0853    3.7061 O   0  0  0  0  0  0  0  0  0  0  0  0
   -0.1693   -4.7324    0.7350 C   0  0  0  0  0  0  0  0  0  0  0  0
   -0.2599   -3.3809    0.3389 C   0  0  0  0  0  0  0  0  0  0  0  0
   -0.7779   -2.9844   -0.7552 C   0  0  0  0  0  0  0  0  0  0  0  0
   -0.4454   -1.5408   -1.2112 C   0  0  0  0  0  0  0  0  0  0  0  0
    0.1052   -0.7452   -0.3345 C   0  0  0  0  0  0  0  0  0  0  0  0
    0.6859   -1.1661    0.8245 C   0  0  0  0  0  0  0  0  0  0  0  0
    0.5565   -2.4609    1.2070 C   0  0  0  0  0  0  0  0  0  0  0  0
   -1.0958   -1.1949   -2.4054 N   0  0  0  0  0  0  0  0  0  0  0  0
  3  7  1  0
  7  8  1  0
  6  9  1  0
  7 10  2  0
  9 11  2  3
 11 12  1  0
 14 18  1  0
 12 13  2  0
 13 14  1  0
 14 15  2  0
 15 16  1  0
 16 17  2  0
 12 17  1  0
  1  2  2  0
  2  6  1  0
  5  6  2  0
  4  5  1  0
  3  4  2  0
  1  3  1  0
M  END

$$$$
No_3006-/export/home/yangzhenyu/potential_scad_32_flow//YTHDC2/2024-12-06-03-22-00/
     RDKit          3D

 18 18  0  0  1  0  0  0  0  0999 V2000
    1.1787   -8.0297    3.5154 C   0  0  0  0  0  0  0  0  0  0  0  0
    1.1048   -9.2215    3.2892 C   0  0  0  0  0  0  0  0  0  0  0  0
    1.2339   -9.7611    2.0189 C   0  0  0  0  0  0  0  0  0  0  0  0
    1.3583   -9.0036    0.9764 C   0  0  0  0  0  0  0  0  0  0  0  0
    1.5996   -7.6362    1.1311 C   0  0  0  0  0  0  0  0  0  0  0  0
    1.4830   -7.0928    2.3626 C   0  0  0  0  0  0  0  0  0  0  0  0
    1.1008  -11.2372    1.8542 C   0  0  0  0  0  0  0  0  0  0  0  0
    0.5178  -11.9759    2.3445 C   0  0  0  0  0  0  0  0  0  0  0  0
    0.4575  -13.3705    2.1281 C   0  0  2  0  0  0  0  0  0  0  0  0
   -0.4455  -13.9844    1.5572 C   0  0  0  0  0  0  0  0  0  0  0  0
    1.5167  -14.2109    2.7555 C   0  0  0  0  0  0  0  0  0  0  0  0
    1.5780   -5.6523    2.6404 C   0  0  0  0  0  0  0  0  0  0  0  0
    1.4821  -15.5980    2.6243 C   0  0  0  0  0  0  0  0  0  0  0  0
    0.6419  -16.3477    3.4726 O   0  0  0  0  0  0  0  0  0  0  0  0
   -1.7730  -14.1052    1.9413 Cl  0  0  0  0  0  0  0  0  0  0  0  0
    2.5510  -16.3279    2.1938 O   0  0  0  0  0  0  0  0  0  0  0  0
    1.2576   -4.7787    1.6513 O   0  0  0  0  0  0  0  0  0  0  0  0
    1.8287   -5.0863    3.7545 O   0  0  0  0  0  0  0  0  0  0  0  0
  3  7  1  0
  7  8  2  3
  8  9  1  0
  9 10  1  1
  9 11  1  0
  6 12  1  0
 11 13  1  0
 13 14  1  0
 10 15  1  0
 13 16  2  0
 12 17  2  0
 12 18  1  0
  1  2  2  0
  2  3  1  0
  3  4  2  0
  4  5  1  0
  5  6  2  0
  1  6  1  0
M  END

$$$$
No_3007-/export/home/yangzhenyu/potential_scad_32_flow//YTHDC2/2024-12-06-03-22-00/
     RDKit          3D

 18 18  0  0  1  0  0  0  0  0999 V2000
    1.1787   -8.0297    3.5154 C   0  0  0  0  0  0  0  0  0  0  0  0
    1.1048   -9.2215    3.2892 C   0  0  0  0  0  0  0  0  0  0  0  0
    1.2339   -9.7611    2.0189 C   0  0  0  0  0  0  0  0  0  0  0  0
    1.3583   -9.0036    0.9764 C   0  0  0  0  0  0  0  0  0  0  0  0
    1.5996   -7.6362    1.1311 C   0  0  0  0  0  0  0  0  0  0  0  0
    1.4830   -7.0928    2.3626 C   0  0  0  0  0  0  0  0  0  0  0  0
    1.5395   -5.7300    2.6182 C   0  0  0  0  0  0  0  0  0  0  0  0
    1.1969  -11.3760    1.8433 C   0  0  2  0  0  0  0  0  0  0  0  0
    1.0771  -11.6644    0.5388 C   0  0  0  0  0  0  0  0  0  0  0  0
    0.3802  -11.2716   -0.2699 O   0  0  0  0  0  0  0  0  0  0  0  0
    1.4797  -13.0571    0.4235 O   0  0  0  0  0  0  0  0  0  0  0  0
    1.2571   -4.8070    1.7368 C   0  0  0  0  0  0  0  0  0  0  0  0
    1.2190   -3.3785    1.9541 C   0  0  0  0  0  0  0  0  0  0  0  0
    0.8195  -11.9404    2.9159 C   0  0  0  0  0  0  0  0  0  0  0  0
    1.8269  -12.6503    3.7711 C   0  0  0  0  0  0  0  0  0  0  0  0
    1.8371  -14.0367    3.3669 C   0  0  0  0  0  0  0  0  0  0  0  0
    0.5905  -14.7351    3.6257 C   0  0  0  0  0  0  0  0  0  0  0  0
    0.8268  -16.1142    3.1620 C   0  0  0  0  0  0  0  0  0  0  0  0
  6  7  1  0
  3  8  1  0
  8  9  1  0
  9 10  2  0
  9 11  1  0
  7 12  2  3
 12 13  1  0
  8 14  1  1
 14 15  1  0
 15 16  1  0
 16 17  2  3
 17 18  1  0
  1  2  2  0
  2  3  1  0
  3  4  2  0
  4  5  1  0
  5  6  2  0
  1  6  1  0
M  END

$$$$
No_3008-/export/home/yangzhenyu/potential_scad_32_flow//YTHDC2/2024-12-06-03-22-00/
     RDKit          3D

 19 19  0  0  0  0  0  0  0  0999 V2000
    1.1787   -8.0297    3.5154 O   0  0  0  0  0  0  0  0  0  0  0  0
    0.9969   -8.9689    3.0048 C   0  0  0  0  0  0  0  0  0  0  0  0
    1.3055  -10.1056    3.6616 C   0  0  0  0  0  0  0  0  0  0  0  0
    1.1249  -11.3503    3.0941 C   0  0  0  0  0  0  0  0  0  0  0  0
    0.8216  -11.1570    1.7342 C   0  0  0  0  0  0  0  0  0  0  0  0
    0.7571  -10.1445    1.0354 C   0  0  0  0  0  0  0  0  0  0  0  0
    0.9105   -8.9825    1.6539 C   0  0  0  0  0  0  0  0  0  0  0  0
    0.7426   -7.6682    1.1178 C   0  0  0  0  0  0  0  0  0  0  0  0
    1.7540   -6.8696    1.1572 O   0  0  0  0  0  0  0  0  0  0  0  0
   -0.3029   -7.3460    0.4313 O   0  0  0  0  0  0  0  0  0  0  0  0
    1.1620  -12.8077    3.8038 F   0  0  0  0  0  0  0  0  0  0  0  0
    0.6395  -12.5849    0.9855 C   0  0  0  0  0  0  0  0  0  0  0  0
    1.7241  -13.4975    0.9282 O   0  0  0  0  0  0  0  0  0  0  0  0
   -0.4529  -13.0215    0.6208 O   0  0  0  0  0  0  0  0  0  0  0  0
    0.5733  -10.1962   -0.3904 C   0  0  0  0  0  0  0  0  0  0  0  0
    1.4364   -9.7101   -1.2433 N   0  0  0  0  0  0  0  0  0  0  0  0
   -0.6413  -10.6135   -0.8478 O   0  0  0  0  0  0  0  0  0  0  0  0
    1.7373  -10.2547    5.0960 O   0  0  0  0  0  0  0  0  0  0  0  0
    3.1205  -10.7803    5.1984 C   0  0  0  0  0  0  0  0  0  0  0  0
  1  2  1  0
  7  8  1  0
  8  9  1  0
  8 10  2  0
  4 11  1  0
  5 12  1  0
 12 13  1  0
 12 14  2  0
  6 15  1  0
 15 16  1  0
 15 17  2  0
  3 18  1  0
 18 19  1  0
  2  3  2  0
  3  4  1  0
  4  5  2  0
  5  6  1  0
  6  7  2  0
  2  7  1  0
M  END

$$$$
No_3009-/export/home/yangzhenyu/potential_scad_32_flow//YTHDC2/2024-12-06-03-22-00/
     RDKit          3D

 18 19  0  0  0  0  0  0  0  0999 V2000
    1.1787   -8.0297    3.5154 C   0  0  0  0  0  0  0  0  0  0  0  0
    1.0491   -6.8434    2.9820 C   0  0  0  0  0  0  0  0  0  0  0  0
    1.9985   -8.9840    2.8958 C   0  0  0  0  0  0  0  0  0  0  0  0
    1.9135  -10.3404    3.6266 C   0  0  0  0  0  0  0  0  0  0  0  0
    0.7479  -10.9191    3.7202 C   0  0  0  0  0  0  0  0  0  0  0  0
    1.8085   -5.7988    3.2380 C   0  0  0  0  0  0  0  0  0  0  0  0
    0.6998  -12.3189    3.4968 C   0  0  0  0  0  0  0  0  0  0  0  0
   -0.2265  -12.7751    2.6305 C   0  0  0  0  0  0  0  0  0  0  0  0
   -1.2269  -11.9968    2.2701 C   0  0  0  0  0  0  0  0  0  0  0  0
   -1.2602  -10.6669    2.6312 C   0  0  0  0  0  0  0  0  0  0  0  0
   -0.3235  -10.1362    3.3931 C   0  0  0  0  0  0  0  0  0  0  0  0
    1.4818   -4.6409    2.4846 C   0  0  0  0  0  0  0  0  0  0  0  0
    0.5613   -4.6939    1.3840 C   0  0  0  0  0  0  0  0  0  0  0  0
   -0.0971   -5.8329    1.1170 C   0  0  0  0  0  0  0  0  0  0  0  0
   -1.0900   -5.8763    0.1855 C   0  0  0  0  0  0  0  0  0  0  0  0
    0.1841   -6.9331    1.8566 C   0  0  0  0  0  0  0  0  0  0  0  0
   -1.1912   -6.9986   -0.5509 N   0  0  0  0  0  0  0  0  0  0  0  0
   -0.5466   -7.7614   -0.4001 H   0  0  0  0  0  0  0  0  0  0  0  0
  1  2  1  0
  1  3  1  0
  3  4  1  0
  4  5  1  0
 14 15  1  0
 15 17  2  0
  5  7  2  0
  7  8  1  0
  8  9  2  0
  9 10  1  0
 10 11  2  0
  5 11  1  0
  2  6  2  0
  6 12  1  0
 12 13  2  0
 13 14  1  0
 14 16  2  0
  2 16  1  0
 17 18  1  0
M  END

$$$$
No_3010-/export/home/yangzhenyu/potential_scad_32_flow//YTHDC2/2024-12-06-03-22-00/
     RDKit          3D

 19 21  0  0  0  0  0  0  0  0999 V2000
    1.1787   -8.0297    3.5154 C   0  0  0  0  0  0  0  0  0  0  0  0
    1.0491   -6.8434    2.9820 C   0  0  0  0  0  0  0  0  0  0  0  0
    0.9905   -9.0774    2.6527 C   0  0  0  0  0  0  0  0  0  0  0  0
    0.7897   -8.9519    1.3691 C   0  0  0  0  0  0  0  0  0  0  0  0
    0.7018   -7.7198    0.7892 C   0  0  0  0  0  0  0  0  0  0  0  0
    0.8918   -6.5957    1.6117 C   0  0  0  0  0  0  0  0  0  0  0  0
    1.0711  -10.4814    3.2282 C   0  0  0  0  0  0  0  0  0  0  0  0
   -0.1055  -11.1328    3.5223 C   0  0  0  0  0  0  0  0  0  0  0  0
   -0.1824  -12.4513    3.3816 C   0  0  0  0  0  0  0  0  0  0  0  0
    0.9472  -13.2655    3.1726 C   0  0  0  0  0  0  0  0  0  0  0  0
    2.1715  -12.6012    2.9116 C   0  0  0  0  0  0  0  0  0  0  0  0
    2.2064  -11.2741    2.8264 C   0  0  0  0  0  0  0  0  0  0  0  0
    0.8996  -14.6381    3.2447 C   0  0  0  0  0  0  0  0  0  0  0  0
   -0.1167  -15.3378    3.6297 N   0  0  0  0  0  0  0  0  0  0  0  0
    2.0410  -15.4059    3.2175 N   0  0  0  0  0  0  0  0  0  0  0  0
    0.8425   -5.2771    1.1105 Cl  0  0  0  0  0  0  0  0  0  0  0  0
    1.6611  -16.7158    3.0872 N   0  0  0  0  0  0  0  0  0  0  0  0
    0.2895  -16.6978    3.5269 C   0  0  0  0  0  0  0  0  0  0  0  0
    2.5720  -17.7769    2.9468 C   0  0  0  0  0  0  0  0  0  0  0  0
  3  7  1  0
 10 13  1  0
 13 14  1  0
 13 15  2  0
  6 16  1  0
 15 17  1  0
 14 18  2  0
 17 18  1  0
 17 19  1  0
  1  2  2  0
  2  6  1  0
  5  6  2  0
  4  5  1  0
  3  4  2  0
  1  3  1  0
  7  8  2  0
  8  9  1  0
  9 10  2  0
 10 11  1  0
 11 12  2  0
  7 12  1  0
M  END

$$$$
No_3011-/export/home/yangzhenyu/potential_scad_32_flow//YTHDC2/2024-12-06-03-22-00/
     RDKit          3D

 18 20  0  0  0  0  0  0  0  0999 V2000
    1.1787   -8.0297    3.5154 C   0  0  0  0  0  0  0  0  0  0  0  0
    1.0491   -6.8434    2.9820 C   0  0  0  0  0  0  0  0  0  0  0  0
    0.0950   -8.8404    3.2292 C   0  0  0  0  0  0  0  0  0  0  0  0
   -0.9173   -8.4596    2.5152 C   0  0  0  0  0  0  0  0  0  0  0  0
   -1.0331   -7.2162    2.0653 C   0  0  0  0  0  0  0  0  0  0  0  0
   -0.0105   -6.3168    2.3081 C   0  0  0  0  0  0  0  0  0  0  0  0
    0.1465  -10.2446    3.6981 C   0  0  0  0  0  0  0  0  0  0  0  0
    1.2433  -10.8239    4.0166 C   0  0  0  0  0  0  0  0  0  0  0  0
    1.1033  -12.2936    4.0346 C   0  0  0  0  0  0  0  0  0  0  0  0
    0.0220  -12.9035    3.7006 C   0  0  0  0  0  0  0  0  0  0  0  0
   -1.0373  -12.2681    3.2608 C   0  0  0  0  0  0  0  0  0  0  0  0
   -1.0058  -10.9076    3.2655 C   0  0  0  0  0  0  0  0  0  0  0  0
   -0.1246   -5.0088    1.8408 C   0  0  0  0  0  0  0  0  0  0  0  0
   -0.7451   -4.1726    2.2343 C   0  0  0  0  0  0  0  0  0  0  0  0
   -0.7859   -2.7757    1.7514 C   0  0  0  0  0  0  0  0  0  0  0  0
    0.3724   -2.3892    0.9586 C   0  0  0  0  0  0  0  0  0  0  0  0
    1.1676   -3.3119    0.5094 C   0  0  0  0  0  0  0  0  0  0  0  0
    1.1230   -4.6144    0.9692 C   0  0  0  0  0  0  0  0  0  0  0  0
  3  7  1  0
  6 13  1  0
 13 14  2  0
 14 15  1  0
 15 16  2  0
 16 17  1  0
 17 18  2  0
 13 18  1  0
  1  2  2  0
  2  6  1  0
  5  6  2  0
  4  5  1  0
  3  4  2  0
  1  3  1  0
  7  8  2  0
  8  9  1  0
  9 10  2  0
 10 11  1  0
 11 12  2  0
  7 12  1  0
M  END

$$$$
No_3012-/export/home/yangzhenyu/potential_scad_32_flow//YTHDC2/2024-12-06-03-22-00/
     RDKit          3D

 19 20  0  0  1  0  0  0  0  0999 V2000
    1.1787   -8.0297    3.5154 C   0  0  0  0  0  0  0  0  0  0  0  0
    1.0491   -6.8434    2.9820 C   0  0  1  0  0  0  0  0  0  0  0  0
    0.9905   -9.0774    2.6527 C   0  0  1  0  0  0  0  0  0  0  0  0
    0.7897   -8.9519    1.3691 C   0  0  0  0  0  0  0  0  0  0  0  0
    0.7018   -7.7198    0.7892 C   0  0  0  0  0  0  0  0  0  0  0  0
    1.4312   -5.5794    3.7443 C   0  0  0  0  0  0  0  0  0  0  0  0
    0.9426   -6.6664    1.5322 C   0  0  0  0  0  0  0  0  0  0  0  0
    0.9192   -5.4040    1.0793 O   0  0  0  0  0  0  0  0  0  0  0  0
    1.1057  -10.5084    3.1751 C   0  0  0  0  0  0  0  0  0  0  0  0
    1.2822  -11.5415    2.4753 C   0  0  0  0  0  0  0  0  0  0  0  0
    1.4371  -12.8265    3.1069 C   0  0  0  0  0  0  0  0  0  0  0  0
    1.3415  -14.0397    2.4221 C   0  0  2  0  0  0  0  0  0  0  0  0
    0.9790  -15.2145    3.1227 C   0  0  0  0  0  0  0  0  0  0  0  0
    1.1181  -16.4269    2.6000 C   0  0  0  0  0  0  0  0  0  0  0  0
    1.5672  -16.5558    1.2901 C   0  0  0  0  0  0  0  0  0  0  0  0
    1.9928  -14.3784    1.2250 C   0  0  0  0  0  0  0  0  0  0  0  0
    1.9860  -15.5444    0.7208 N   0  0  0  0  0  0  0  0  0  0  0  0
    1.6665  -17.8009    0.8989 O   0  0  0  0  0  0  0  0  0  0  0  0
    2.3728  -13.2656    0.4740 O   0  0  0  0  0  0  0  0  0  0  0  0
  1  2  1  0
  3  4  1  6
  2  6  1  6
  2  7  1  0
  5  7  1  0
  7  8  2  0
  3  9  1  0
  9 10  2  3
 10 11  1  0
 12 11  1  1
 12 13  1  0
 14 15  1  0
 12 16  1  0
 15 17  1  0
 16 17  1  0
 15 18  2  0
 16 19  2  0
  1  3  1  0
  4  5  1  0
 13 14  1  0
M  END

$$$$
No_3013-/export/home/yangzhenyu/potential_scad_32_flow//YTHDC2/2024-12-06-03-22-00/
     RDKit          3D

 20 22  0  0  0  0  0  0  0  0999 V2000
    1.1787   -8.0297    3.5154 C   0  0  0  0  0  0  0  0  0  0  0  0
    1.1048   -9.2215    3.2892 C   0  0  0  0  0  0  0  0  0  0  0  0
    1.3627  -10.1721    4.3044 C   0  0  0  0  0  0  0  0  0  0  0  0
    1.0682  -11.5187    4.0618 C   0  0  0  0  0  0  0  0  0  0  0  0
    0.6332  -11.9655    2.9682 C   0  0  0  0  0  0  0  0  0  0  0  0
    0.4776  -11.1308    1.9203 C   0  0  0  0  0  0  0  0  0  0  0  0
    0.7470   -9.8274    2.0368 C   0  0  0  0  0  0  0  0  0  0  0  0
    0.5535   -7.1314    2.6862 N   0  0  0  0  0  0  0  0  0  0  0  0
    0.3068   -7.6119    1.3920 C   0  0  0  0  0  0  0  0  0  0  0  0
    0.2578   -8.8240    1.1187 C   0  0  0  0  0  0  0  0  0  0  0  0
   -0.0305   -6.6302    0.5462 C   0  0  0  0  0  0  0  0  0  0  0  0
   -0.1118   -5.3226    0.8834 O   0  0  0  0  0  0  0  0  0  0  0  0
   -0.5812   -6.8600   -0.5441 O   0  0  0  0  0  0  0  0  0  0  0  0
    0.4875  -13.3876    2.7137 C   0  0  0  0  0  0  0  0  0  0  0  0
   -0.6769  -13.8328    2.4288 C   0  0  0  0  0  0  0  0  0  0  0  0
   -0.8811  -15.2339    2.2541 C   0  0  0  0  0  0  0  0  0  0  0  0
    0.0988  -16.1139    2.3754 C   0  0  0  0  0  0  0  0  0  0  0  0
    1.5141  -15.3456    2.8611 C   0  0  0  0  0  0  0  0  0  0  0  0
    1.6176  -14.1178    3.0047 C   0  0  0  0  0  0  0  0  0  0  0  0
    0.1575  -17.4271    2.2458 Cl  0  0  0  0  0  0  0  0  0  0  0  0
  9 11  1  0
 11 12  1  0
 11 13  2  0
  5 14  1  0
 17 20  1  0
  2  3  1  0
  3  4  2  0
  4  5  1  0
  5  6  2  0
  6  7  1  0
  1  2  2  0
  2  7  1  0
  7 10  2  0
  9 10  1  0
  8  9  2  0
  1  8  1  0
 14 15  2  0
 15 16  1  0
 16 17  2  0
 17 18  1  0
 18 19  2  0
 14 19  1  0
M  END

$$$$
No_3014-/export/home/yangzhenyu/potential_scad_32_flow//YTHDC2/2024-12-06-03-22-00/
     RDKit          3D

 20 21  0  0  1  0  0  0  0  0999 V2000
    1.1787   -8.0297    3.5154 C   0  0  0  0  0  0  0  0  0  0  0  0
    1.1048   -9.2215    3.2892 C   0  0  0  0  0  0  0  0  0  0  0  0
    1.2339   -9.7611    2.0189 C   0  0  0  0  0  0  0  0  0  0  0  0
    1.3583   -9.0036    0.9764 C   0  0  0  0  0  0  0  0  0  0  0  0
    1.5996   -7.6362    1.1311 C   0  0  0  0  0  0  0  0  0  0  0  0
    1.4830   -7.0928    2.3626 C   0  0  0  0  0  0  0  0  0  0  0  0
    1.1008  -11.2372    1.8542 C   0  0  1  0  0  0  0  0  0  0  0  0
    0.4812  -11.6084    0.6459 C   0  0  2  0  0  0  0  0  0  0  0  0
   -0.3691  -10.9312    0.0124 N   0  0  0  0  0  0  0  0  0  0  0  0
    0.1071  -13.0326    0.6941 C   0  0  0  0  0  0  0  0  0  0  0  0
   -0.6904  -13.4087   -0.3496 C   0  0  0  0  0  0  0  0  0  0  0  0
   -1.2337  -12.1516   -1.0581 C   0  0  0  0  0  0  0  0  0  0  0  0
    1.9659  -11.9537    2.5385 C   0  0  0  0  0  0  0  0  0  0  0  0
    1.5150   -5.4508    2.6818 O   0  0  0  0  0  0  0  0  0  0  0  0
    1.8155  -11.9568    3.9485 C   0  0  0  0  0  0  0  0  0  0  0  0
    2.5207  -11.1343    4.7102 N   0  0  0  0  0  0  0  0  0  0  0  0
    3.9367  -11.1402    4.6115 C   0  0  0  0  0  0  0  0  0  0  0  0
    4.6110  -11.1886    5.6542 O   0  0  0  0  0  0  0  0  0  0  0  0
    0.7821   -4.7741    1.8985 C   0  0  0  0  0  0  0  0  0  0  0  0
    0.8505  -12.6245    4.4292 O   0  0  0  0  0  0  0  0  0  0  0  0
  3  7  1  0
  7  8  1  0
  8  9  1  0
  8 10  1  1
 10 11  2  0
  9 12  2  0
 11 12  1  0
  7 13  1  6
  6 14  1  0
 13 15  1  0
 15 16  1  0
 16 17  1  0
 17 18  1  0
 14 19  1  0
 15 20  2  0
  1  2  2  0
  2  3  1  0
  3  4  2  0
  4  5  1  0
  5  6  2  0
  1  6  1  0
M  END

$$$$
No_3015-/export/home/yangzhenyu/potential_scad_32_flow//YTHDC2/2024-12-06-03-22-00/
     RDKit          3D

 19 21  0  0  0  0  0  0  0  0999 V2000
    1.1787   -8.0297    3.5154 C   0  0  0  0  0  0  0  0  0  0  0  0
    1.0491   -6.8434    2.9820 C   0  0  0  0  0  0  0  0  0  0  0  0
    0.0950   -8.8404    3.2292 C   0  0  0  0  0  0  0  0  0  0  0  0
    0.0602  -10.1764    3.8231 C   0  0  0  0  0  0  0  0  0  0  0  0
    0.2248   -6.3830    2.0648 C   0  0  0  0  0  0  0  0  0  0  0  0
   -0.6745   -7.2322    1.6857 C   0  0  0  0  0  0  0  0  0  0  0  0
   -0.7374   -8.4992    2.1291 C   0  0  0  0  0  0  0  0  0  0  0  0
   -1.2197  -10.6611    4.0385 C   0  0  0  0  0  0  0  0  0  0  0  0
   -2.2122  -10.2766    3.1435 C   0  0  0  0  0  0  0  0  0  0  0  0
   -2.0039   -9.1685    2.3315 C   0  0  0  0  0  0  0  0  0  0  0  0
   -3.4139  -10.9456    3.1274 C   0  0  0  0  0  0  0  0  0  0  0  0
   -3.4400  -12.2393    2.7367 C   0  0  0  0  0  0  0  0  0  0  0  0
   -2.5152  -12.8569    2.0312 C   0  0  0  0  0  0  0  0  0  0  0  0
   -2.5733  -14.2999    1.9000 C   0  0  0  0  0  0  0  0  0  0  0  0
   -3.6001  -14.9745    2.4428 C   0  0  0  0  0  0  0  0  0  0  0  0
   -4.5483  -14.4227    3.2011 C   0  0  0  0  0  0  0  0  0  0  0  0
   -4.5119  -12.9729    3.3753 C   0  0  0  0  0  0  0  0  0  0  0  0
    0.2933   -5.1796    1.2927 C   0  0  0  0  0  0  0  0  0  0  0  0
   -0.5805   -4.6545    0.6157 C   0  0  0  0  0  0  0  0  0  0  0  0
  9 11  1  0
 11 12  1  0
  5 18  1  0
 18 19  2  0
 12 13  2  0
 13 14  1  0
 14 15  2  0
 15 16  1  0
 16 17  2  0
 12 17  1  0
  1  2  2  0
  2  5  1  0
  5  6  2  0
  6  7  1  0
  1  3  1  0
  3  4  2  0
  4  8  1  0
  8  9  2  0
  9 10  1  0
  7 10  2  0
  3  7  1  0
M  END

$$$$
No_3016-/export/home/yangzhenyu/potential_scad_32_flow//YTHDC2/2024-12-06-03-22-00/
     RDKit          3D

 17 17  0  0  0  0  0  0  0  0999 V2000
    1.1787   -8.0297    3.5154 C   0  0  0  0  0  0  0  0  0  0  0  0
    1.0491   -6.8434    2.9820 C   0  0  0  0  0  0  0  0  0  0  0  0
    1.9985   -8.9840    2.8958 C   0  0  0  0  0  0  0  0  0  0  0  0
    1.7297   -9.2108    1.6335 C   0  0  0  0  0  0  0  0  0  0  0  0
    2.1788  -10.5482    1.1239 C   0  0  0  0  0  0  0  0  0  0  0  0
    0.8226   -6.9903    1.4377 C   0  0  0  0  0  0  0  0  0  0  0  0
    1.5914   -8.1153    0.8208 C   0  0  0  0  0  0  0  0  0  0  0  0
    2.3898  -10.7430   -0.0922 O   0  0  0  0  0  0  0  0  0  0  0  0
    2.2187  -11.6204    1.8822 N   0  0  0  0  0  0  0  0  0  0  0  0
    1.5912  -11.7810    3.0417 C   0  0  0  0  0  0  0  0  0  0  0  0
    0.2877  -12.0566    2.9566 C   0  0  0  0  0  0  0  0  0  0  0  0
   -0.2160  -13.2753    2.6006 C   0  0  0  0  0  0  0  0  0  0  0  0
    0.7033  -14.3985    2.7238 N   0  0  0  0  0  0  0  0  0  0  0  0
   -1.1720  -13.5007    1.8549 O   0  0  0  0  0  0  0  0  0  0  0  0
    0.3351  -15.6657    2.3348 C   0  0  0  0  0  0  0  0  0  0  0  0
    1.4508  -16.5701    2.8070 C   0  0  0  0  0  0  0  0  0  0  0  0
    2.7063  -16.2589    2.6034 C   0  0  0  0  0  0  0  0  0  0  0  0
  1  2  1  0
  1  3  1  0
  3  4  1  0
  4  5  1  0
  2  6  1  0
  4  7  1  0
  6  7  1  0
  5  8  2  0
  5  9  1  0
  9 10  1  0
 10 11  1  0
 11 12  1  0
 12 13  1  0
 12 14  2  0
 13 15  1  0
 15 16  1  0
 16 17  1  0
M  END

$$$$
No_3017-/export/home/yangzhenyu/potential_scad_32_flow//YTHDC2/2024-12-06-03-22-00/
     RDKit          3D

 14 14  0  0  0  0  0  0  0  0999 V2000
    1.1787   -8.0297    3.5154 C   0  0  0  0  0  0  0  0  0  0  0  0
    1.0491   -6.8434    2.9820 C   0  0  0  0  0  0  0  0  0  0  0  0
    0.9905   -9.0774    2.6527 C   0  0  0  0  0  0  0  0  0  0  0  0
    0.7897   -8.9519    1.3691 C   0  0  0  0  0  0  0  0  0  0  0  0
    0.6550  -10.0985    0.4848 C   0  0  0  0  0  0  0  0  0  0  0  0
    0.7849   -6.5836    1.6043 C   0  0  0  0  0  0  0  0  0  0  0  0
    0.6652   -7.6671    0.8008 C   0  0  0  0  0  0  0  0  0  0  0  0
    1.2441  -11.1828    0.5777 O   0  0  0  0  0  0  0  0  0  0  0  0
   -0.1744   -9.9646   -0.6150 N   0  0  0  0  0  0  0  0  0  0  0  0
    1.2260  -10.4366    3.2043 C   0  0  0  0  0  0  0  0  0  0  0  0
    1.2875  -10.7801    4.3162 C   0  0  0  0  0  0  0  0  0  0  0  0
    1.6160  -12.1643    4.6396 C   0  0  0  0  0  0  0  0  0  0  0  0
    1.2108  -13.0702    3.4555 C   0  0  0  0  0  0  0  0  0  0  0  0
    1.0561  -12.6750    2.3107 C   0  0  0  0  0  0  0  0  0  0  0  0
  4  5  1  0
  5  8  2  0
  5  9  1  0
  3 10  1  0
 10 11  2  3
 11 12  1  0
 12 13  2  3
 13 14  1  0
  1  2  2  0
  2  6  1  0
  6  7  2  0
  4  7  1  0
  3  4  2  0
  1  3  1  0
M  END

$$$$
No_3018-/export/home/yangzhenyu/potential_scad_32_flow//YTHDC2/2024-12-06-03-22-00/
     RDKit          3D

 18 18  0  0  0  0  0  0  0  0999 V2000
    1.1787   -8.0297    3.5154 C   0  0  0  0  0  0  0  0  0  0  0  0
    1.0491   -6.8434    2.9820 Cl  0  0  0  0  0  0  0  0  0  0  0  0
    2.1643   -8.9961    3.0118 C   0  0  0  0  0  0  0  0  0  0  0  0
    2.0542  -10.3454    3.7325 C   0  0  0  0  0  0  0  0  0  0  0  0
    1.0539  -10.6340    4.5979 C   0  0  0  0  0  0  0  0  0  0  0  0
   -0.0044   -9.7649    4.6652 C   0  0  0  0  0  0  0  0  0  0  0  0
   -0.0119   -8.5383    4.1066 C   0  0  0  0  0  0  0  0  0  0  0  0
   -1.0182   -7.7174    4.3477 N   0  0  0  0  0  0  0  0  0  0  0  0
    3.2086  -11.1661    3.5657 C   0  0  0  0  0  0  0  0  0  0  0  0
    2.7764  -12.5220    3.6891 O   0  0  0  0  0  0  0  0  0  0  0  0
    4.3249  -10.9776    3.8319 O   0  0  0  0  0  0  0  0  0  0  0  0
   -2.1455   -8.2246    4.9292 C   0  0  0  0  0  0  0  0  0  0  0  0
   -2.7655   -9.2411    4.7256 C   0  0  0  0  0  0  0  0  0  0  0  0
   -3.9088   -9.6095    5.6014 C   0  0  0  0  0  0  0  0  0  0  0  0
   -4.5202  -10.8432    5.2010 C   0  0  0  0  0  0  0  0  0  0  0  0
   -5.6338  -11.2112    5.8604 C   0  0  0  0  0  0  0  0  0  0  0  0
   -6.3070  -12.4340    5.5388 C   0  0  0  0  0  0  0  0  0  0  0  0
   -5.6918  -13.2745    4.9663 C   0  0  0  0  0  0  0  0  0  0  0  0
  1  2  1  0
  4  9  1  0
  9 10  2  0
  9 11  1  0
  8 12  1  0
 12 13  2  3
 13 14  1  0
 14 15  1  0
 15 16  2  3
 16 17  1  0
 17 18  2  0
  7  8  1  0
  1  3  2  0
  3  4  1  0
  4  5  2  0
  5  6  1  0
  6  7  2  0
  1  7  1  0
M  END

$$$$
No_3019-/export/home/yangzhenyu/potential_scad_32_flow//YTHDC2/2024-12-06-03-22-00/
     RDKit          3D

 18 18  0  0  1  0  0  0  0  0999 V2000
    1.1787   -8.0297    3.5154 C   0  0  0  0  0  0  0  0  0  0  0  0
    1.1048   -9.2215    3.2892 C   0  0  0  0  0  0  0  0  0  0  0  0
    1.4683  -10.2314    4.1915 C   0  0  0  0  0  0  0  0  0  0  0  0
    0.8445   -6.9865    2.5175 C   0  0  0  0  0  0  0  0  0  0  0  0
    0.3587   -7.3973    1.3953 C   0  0  0  0  0  0  0  0  0  0  0  0
    0.1901   -8.6971    1.0711 C   0  0  0  0  0  0  0  0  0  0  0  0
    0.5759   -9.6647    1.9442 C   0  0  0  0  0  0  0  0  0  0  0  0
    2.7055  -10.5235    4.4262 N   0  0  0  0  0  0  0  0  0  0  0  0
   -0.3249   -9.1354   -0.1093 C   0  0  0  0  0  0  0  0  0  0  0  0
    0.1086   -8.7528   -1.3288 O   0  0  0  0  0  0  0  0  0  0  0  0
   -1.3678   -9.9024   -0.1167 O   0  0  0  0  0  0  0  0  0  0  0  0
    0.6063  -10.6661    5.0207 O   0  0  0  0  0  0  0  0  0  0  0  0
    0.7158  -10.9631    1.6338 O   0  0  0  0  0  0  0  0  0  0  0  0
    1.0673   -5.5627    2.8115 C   0  0  1  0  0  0  0  0  0  0  0  0
    1.6888   -5.2444    3.9264 C   0  0  0  0  0  0  0  0  0  0  0  0
    0.8996   -4.7661    1.7488 C   0  0  0  0  0  0  0  0  0  0  0  0
    1.5322   -3.5263    1.7396 C   0  0  0  0  0  0  0  0  0  0  0  0
    1.2825   -2.5397    0.7463 Cl  0  0  0  0  0  0  0  0  0  0  0  0
  2  3  1  0
  1  4  1  0
  5  6  1  0
  2  7  1  0
  6  7  1  0
  3  8  1  0
  6  9  1  0
  9 10  1  0
  9 11  2  0
  3 12  2  0
  7 13  2  0
  4 14  1  0
 14 15  1  6
 14 16  1  0
 16 17  2  3
 17 18  1  0
  1  2  1  0
  4  5  1  0
M  END

$$$$
No_3020-/export/home/yangzhenyu/potential_scad_32_flow//YTHDC2/2024-12-06-03-22-00/
     RDKit          3D

 20 21  0  0  1  0  0  0  0  0999 V2000
    1.1787   -8.0297    3.5154 N   0  0  0  0  0  0  0  0  0  0  0  0
    1.0818   -9.0751    3.2053 C   0  0  0  0  0  0  0  0  0  0  0  0
    0.7576   -9.3725    1.9159 C   0  0  0  0  0  0  0  0  0  0  0  0
    0.8823   -8.4917    1.0547 C   0  0  1  0  0  0  0  0  0  0  0  0
    1.4631   -7.3107    1.2451 C   0  0  0  0  0  0  0  0  0  0  0  0
    1.6470   -6.9326    2.5669 C   0  0  0  0  0  0  0  0  0  0  0  0
    1.0024  -10.2234    4.2810 C   0  0  0  0  0  0  0  0  0  0  0  0
   -0.2696  -10.9513    4.3450 C   0  0  0  0  0  0  0  0  0  0  0  0
   -0.7058  -11.2253    3.0084 C   0  0  0  0  0  0  0  0  0  0  0  0
   -0.2475  -10.4717    1.8682 C   0  0  0  0  0  0  0  0  0  0  0  0
    0.7346   -8.8208   -0.4773 C   0  0  0  0  0  0  0  0  0  0  0  0
    1.5964   -9.1268   -1.2331 O   0  0  0  0  0  0  0  0  0  0  0  0
   -0.4894   -8.7702   -1.0021 O   0  0  0  0  0  0  0  0  0  0  0  0
    1.8567   -5.6811    2.9812 O   0  0  0  0  0  0  0  0  0  0  0  0
   -1.4433  -12.3959    2.6520 Br  0  0  0  0  0  0  0  0  0  0  0  0
   -0.8620   -9.2311   -2.2115 C   0  0  2  0  0  0  0  0  0  0  0  0
   -1.3860   -8.5653   -2.9705 C   0  0  0  0  0  0  0  0  0  0  0  0
   -1.5059   -7.3345   -2.9803 O   0  0  0  0  0  0  0  0  0  0  0  0
   -1.4374   -8.9309   -4.3662 O   0  0  0  0  0  0  0  0  0  0  0  0
   -1.8661  -10.4034   -1.8911 Cl  0  0  0  0  0  0  0  0  0  0  0  0
  1  2  1  0
  3  4  1  0
  1  6  1  0
  5  6  1  0
  4 11  1  6
 11 12  2  0
 11 13  1  0
  6 14  2  0
  9 15  1  0
 13 16  1  0
 16 17  1  0
 17 18  1  0
 17 19  2  0
 16 20  1  1
  4  5  1  0
  2  7  2  0
  7  8  1  0
  8  9  2  0
  9 10  1  0
  3 10  2  0
  2  3  1  0
M  END

$$$$
No_3021-/export/home/yangzhenyu/potential_scad_32_flow//YTHDC2/2024-12-06-03-22-00/
     RDKit          3D

 18 19  0  0  0  0  0  0  0  0999 V2000
    1.1787   -8.0297    3.5154 C   0  0  0  0  0  0  0  0  0  0  0  0
    1.0491   -6.8434    2.9820 C   0  0  0  0  0  0  0  0  0  0  0  0
    1.9985   -8.9840    2.8958 C   0  0  0  0  0  0  0  0  0  0  0  0
    1.9135  -10.3404    3.6266 C   0  0  0  0  0  0  0  0  0  0  0  0
    0.7479  -10.9191    3.7202 C   0  0  0  0  0  0  0  0  0  0  0  0
    0.2782   -6.7158    1.8352 C   0  0  0  0  0  0  0  0  0  0  0  0
    0.0493   -5.5581    1.3972 C   0  0  0  0  0  0  0  0  0  0  0  0
   -0.2575  -10.4055    3.7966 C   0  0  0  0  0  0  0  0  0  0  0  0
    0.9187  -12.3351    3.7559 C   0  0  0  0  0  0  0  0  0  0  0  0
    0.7524   -4.4017    1.9547 C   0  0  0  0  0  0  0  0  0  0  0  0
    1.6735   -4.5904    3.0411 C   0  0  0  0  0  0  0  0  0  0  0  0
    1.7044   -5.8444    3.6058 C   0  0  0  0  0  0  0  0  0  0  0  0
    0.0531  -13.0104    2.9477 C   0  0  0  0  0  0  0  0  0  0  0  0
   -1.1992  -12.3952    2.7787 C   0  0  0  0  0  0  0  0  0  0  0  0
   -1.3770  -11.1095    3.1937 C   0  0  0  0  0  0  0  0  0  0  0  0
    0.3091  -14.3834    2.6434 C   0  0  0  0  0  0  0  0  0  0  0  0
    1.5126  -14.9139    2.8221 C   0  0  0  0  0  0  0  0  0  0  0  0
    1.9294  -15.9530    1.9510 C   0  0  0  0  0  0  0  0  0  0  0  0
  1  2  1  0
  1  3  1  0
  3  4  1  0
  4  5  1  0
 13 16  1  0
 16 17  1  0
 17 18  1  0
  2  6  2  0
  6  7  1  0
  7 10  2  0
 10 11  1  0
 11 12  2  0
  2 12  1  0
  5  8  2  0
  8 15  1  0
 14 15  2  0
 13 14  1  0
  9 13  2  0
  5  9  1  0
M  END

$$$$
No_3022-/export/home/yangzhenyu/potential_scad_32_flow//YTHDC2/2024-12-06-03-22-00/
     RDKit          3D

 19 19  0  0  0  0  0  0  0  0999 V2000
    1.1787   -8.0297    3.5154 C   0  0  0  0  0  0  0  0  0  0  0  0
    1.0491   -6.8434    2.9820 C   0  0  0  0  0  0  0  0  0  0  0  0
    0.9905   -9.0774    2.6527 C   0  0  0  0  0  0  0  0  0  0  0  0
    0.7897   -8.9519    1.3691 C   0  0  0  0  0  0  0  0  0  0  0  0
    0.7018   -7.7198    0.7892 C   0  0  0  0  0  0  0  0  0  0  0  0
    0.8918   -6.5957    1.6117 C   0  0  0  0  0  0  0  0  0  0  0  0
    1.0774  -10.6059    3.3145 S   0  0  0  0  0  0  0  0  0  0  0  0
   -0.1729  -11.0474    3.8559 O   0  0  0  0  0  0  0  0  0  0  0  0
    1.5302  -11.6410    2.2476 C   0  0  0  0  0  0  0  0  0  0  0  0
    2.0607  -10.6000    4.4769 O   0  0  0  0  0  0  0  0  0  0  0  0
    1.7300  -11.4156    1.0137 C   0  0  0  0  0  0  0  0  0  0  0  0
    1.4830  -13.0554    2.6654 C   0  0  0  0  0  0  0  0  0  0  0  0
    1.7489  -14.0981    1.9130 C   0  0  0  0  0  0  0  0  0  0  0  0
    1.8912  -15.4408    2.4357 C   0  0  0  0  0  0  0  0  0  0  0  0
    1.0416  -15.9662    3.2841 O   0  0  0  0  0  0  0  0  0  0  0  0
    2.9838  -16.1876    2.2742 O   0  0  0  0  0  0  0  0  0  0  0  0
    0.8199   -5.1634    1.0675 O   0  0  0  0  0  0  0  0  0  0  0  0
    0.3744   -4.1997    1.8527 C   0  0  0  0  0  0  0  0  0  0  0  0
    1.3218   -3.3649    2.2081 C   0  0  0  0  0  0  0  0  0  0  0  0
  3  7  1  0
  7  8  2  0
  7  9  1  0
  7 10  2  0
  9 11  2  0
  9 12  1  0
 12 13  2  3
 13 14  1  0
 14 15  1  0
 14 16  2  0
  6 17  1  0
 17 18  1  0
 18 19  1  0
  1  2  2  0
  2  6  1  0
  5  6  2  0
  4  5  1  0
  3  4  2  0
  1  3  1  0
M  END

$$$$
No_3023-/export/home/yangzhenyu/potential_scad_32_flow//YTHDC2/2024-12-06-03-22-00/
     RDKit          3D

 20 21  0  0  0  0  0  0  0  0999 V2000
    1.1787   -8.0297    3.5154 C   0  0  0  0  0  0  0  0  0  0  0  0
    1.1048   -9.2215    3.2892 C   0  0  0  0  0  0  0  0  0  0  0  0
    1.3627  -10.1721    4.3044 C   0  0  0  0  0  0  0  0  0  0  0  0
    1.7354  -11.4730    3.9023 C   0  0  0  0  0  0  0  0  0  0  0  0
    1.8080  -11.8127    2.7216 C   0  0  0  0  0  0  0  0  0  0  0  0
    1.5854  -11.0021    1.7249 C   0  0  0  0  0  0  0  0  0  0  0  0
    1.3573   -9.7389    1.9287 C   0  0  0  0  0  0  0  0  0  0  0  0
    1.2865   -8.8078    0.9161 C   0  0  0  0  0  0  0  0  0  0  0  0
    0.9210   -7.5140    1.1674 C   0  0  0  0  0  0  0  0  0  0  0  0
    1.0097   -7.0192    2.4369 C   0  0  0  0  0  0  0  0  0  0  0  0
    2.0228  -13.2586    2.4222 O   0  0  0  0  0  0  0  0  0  0  0  0
    0.8526   -5.6034    2.6886 Cl  0  0  0  0  0  0  0  0  0  0  0  0
    2.2580  -13.8767    1.3917 C   0  0  0  0  0  0  0  0  0  0  0  0
    1.4542   -9.2441   -0.4090 C   0  0  0  0  0  0  0  0  0  0  0  0
    2.6375   -9.2556   -0.9301 O   0  0  0  0  0  0  0  0  0  0  0  0
    0.4944   -9.4213   -1.2231 O   0  0  0  0  0  0  0  0  0  0  0  0
    1.6212  -15.0325    1.2556 C   0  0  0  0  0  0  0  0  0  0  0  0
    0.4857  -14.9596    1.7429 C   0  0  0  0  0  0  0  0  0  0  0  0
   -0.1089  -16.1334    1.9673 C   0  0  0  0  0  0  0  0  0  0  0  0
    0.3711  -17.3719    1.7006 C   0  0  0  0  0  0  0  0  0  0  0  0
  5 11  1  0
 10 12  1  0
 11 13  1  0
  8 14  1  0
 14 15  2  0
 14 16  1  0
 13 17  1  0
 17 18  1  0
 18 19  2  3
 19 20  1  0
  1  2  2  0
  7  8  2  0
  8  9  1  0
  9 10  2  0
  1 10  1  0
  2  3  1  0
  3  4  2  0
  4  5  1  0
  5  6  2  0
  6  7  1  0
  2  7  1  0
M  END

$$$$
No_3024-/export/home/yangzhenyu/potential_scad_32_flow//YTHDC2/2024-12-06-03-22-00/
     RDKit          3D

 19 19  0  0  1  0  0  0  0  0999 V2000
    1.1787   -8.0297    3.5154 C   0  0  0  0  0  0  0  0  0  0  0  0
    1.1048   -9.2215    3.2892 C   0  0  0  0  0  0  0  0  0  0  0  0
    1.2339   -9.7611    2.0189 C   0  0  0  0  0  0  0  0  0  0  0  0
    1.3583   -9.0036    0.9764 C   0  0  0  0  0  0  0  0  0  0  0  0
    1.5996   -7.6362    1.1311 C   0  0  0  0  0  0  0  0  0  0  0  0
    1.4830   -7.0928    2.3626 C   0  0  0  0  0  0  0  0  0  0  0  0
    1.1008  -11.2372    1.8542 C   0  0  1  0  0  0  0  0  0  0  0  0
    1.9749  -12.0938    2.2342 C   0  0  0  0  0  0  0  0  0  0  0  0
    1.9628  -12.4543    3.3672 C   0  0  0  0  0  0  0  0  0  0  0  0
    1.1042  -13.5871    3.5407 C   0  0  0  0  0  0  0  0  0  0  0  0
    1.5686  -14.8600    3.0893 C   0  0  0  0  0  0  0  0  0  0  0  0
    0.6799  -15.9927    3.2760 O   0  0  0  0  0  0  0  0  0  0  0  0
    2.5889  -14.9877    2.3043 O   0  0  0  0  0  0  0  0  0  0  0  0
    1.5502   -5.6413    2.6014 Cl  0  0  0  0  0  0  0  0  0  0  0  0
    1.5556   -9.5835   -0.4509 C   0  0  0  0  0  0  0  0  0  0  0  0
    2.5280   -9.8186   -0.8809 O   0  0  0  0  0  0  0  0  0  0  0  0
    0.3882   -9.6947   -1.0492 O   0  0  0  0  0  0  0  0  0  0  0  0
   -0.1978  -11.7819    2.0438 C   0  0  0  0  0  0  0  0  0  0  0  0
   -1.1107  -11.2472    2.9268 C   0  0  0  0  0  0  0  0  0  0  0  0
  3  7  1  0
  7  8  1  1
  8  9  1  0
  9 10  1  0
 10 11  1  0
 11 12  1  0
 11 13  2  0
  6 14  1  0
  4 15  1  0
 15 16  2  0
 15 17  1  0
  7 18  1  0
 18 19  2  0
  1  2  2  0
  2  3  1  0
  3  4  2  0
  4  5  1  0
  5  6  2  0
  1  6  1  0
M  END

$$$$
No_3025-/export/home/yangzhenyu/potential_scad_32_flow//YTHDC2/2024-12-06-03-22-00/
     RDKit          3D

 19 21  0  0  0  0  0  0  0  0999 V2000
    1.1787   -8.0297    3.5154 C   0  0  0  0  0  0  0  0  0  0  0  0
    1.0491   -6.8434    2.9820 C   0  0  0  0  0  0  0  0  0  0  0  0
    0.2462   -8.9560    3.0873 C   0  0  0  0  0  0  0  0  0  0  0  0
    0.3295   -6.5187    1.9069 C   0  0  0  0  0  0  0  0  0  0  0  0
    0.3283  -10.2724    3.7058 C   0  0  0  0  0  0  0  0  0  0  0  0
   -0.4404   -7.4628    1.4400 C   0  0  0  0  0  0  0  0  0  0  0  0
   -0.4655   -8.7076    1.9376 C   0  0  0  0  0  0  0  0  0  0  0  0
   -0.9581  -10.8075    3.9421 C   0  0  0  0  0  0  0  0  0  0  0  0
   -1.1478  -12.0427    3.3677 C   0  0  0  0  0  0  0  0  0  0  0  0
   -0.0596  -12.8035    2.9114 C   0  0  0  0  0  0  0  0  0  0  0  0
    1.2293  -12.1670    2.8224 C   0  0  0  0  0  0  0  0  0  0  0  0
    1.3802  -10.8546    3.2491 C   0  0  0  0  0  0  0  0  0  0  0  0
    0.4117   -5.2808    1.2599 O   0  0  0  0  0  0  0  0  0  0  0  0
   -0.0965  -14.1031    2.5524 C   0  0  0  0  0  0  0  0  0  0  0  0
    0.9460  -14.9588    2.6913 C   0  0  0  0  0  0  0  0  0  0  0  0
    1.0285  -16.3087    2.3188 C   0  0  0  0  0  0  0  0  0  0  0  0
   -0.0629  -16.7774    1.6654 C   0  0  0  0  0  0  0  0  0  0  0  0
   -1.0397  -16.0565    1.2882 C   0  0  0  0  0  0  0  0  0  0  0  0
   -1.0989  -14.7115    1.7755 C   0  0  0  0  0  0  0  0  0  0  0  0
  3  5  1  0
  4 13  1  0
 10 14  1  0
  5  8  2  0
  8  9  1  0
  9 10  2  0
 10 11  1  0
 11 12  2  0
  5 12  1  0
 14 15  2  0
 15 16  1  0
 16 17  2  0
 17 18  1  0
 18 19  2  0
 14 19  1  0
  1  2  2  0
  2  4  1  0
  4  6  2  0
  6  7  1  0
  3  7  2  0
  1  3  1  0
M  END

$$$$
No_3026-/export/home/yangzhenyu/potential_scad_32_flow//YTHDC2/2024-12-06-03-22-00/
     RDKit          3D

 18 19  0  0  0  0  0  0  0  0999 V2000
    1.1787   -8.0297    3.5154 C   0  0  0  0  0  0  0  0  0  0  0  0
    1.1048   -9.2215    3.2892 C   0  0  0  0  0  0  0  0  0  0  0  0
    1.2339   -9.7611    2.0189 C   0  0  0  0  0  0  0  0  0  0  0  0
    1.3583   -9.0036    0.9764 C   0  0  0  0  0  0  0  0  0  0  0  0
    1.5996   -7.6362    1.1311 C   0  0  0  0  0  0  0  0  0  0  0  0
    1.4830   -7.0928    2.3626 C   0  0  0  0  0  0  0  0  0  0  0  0
    1.1008  -11.2372    1.8542 C   0  0  0  0  0  0  0  0  0  0  0  0
    0.4812  -11.6084    0.6459 C   0  0  0  0  0  0  0  0  0  0  0  0
   -0.6166  -12.2864    0.7859 C   0  0  0  0  0  0  0  0  0  0  0  0
   -0.7300  -13.0625    1.9848 C   0  0  0  0  0  0  0  0  0  0  0  0
    0.1540  -12.9133    3.0511 C   0  0  0  0  0  0  0  0  0  0  0  0
    1.1516  -11.9685    2.9361 C   0  0  0  0  0  0  0  0  0  0  0  0
    1.5663   -5.6461    2.6613 Cl  0  0  0  0  0  0  0  0  0  0  0  0
    2.0815  -11.7417    3.9304 C   0  0  0  0  0  0  0  0  0  0  0  0
   -1.5640  -14.2834    2.0644 C   0  0  0  0  0  0  0  0  0  0  0  0
   -2.7256  -13.9772    2.6221 C   0  0  0  0  0  0  0  0  0  0  0  0
   -3.6226  -15.0582    2.8934 C   0  0  0  0  0  0  0  0  0  0  0  0
   -3.3380  -16.2611    2.4597 C   0  0  0  0  0  0  0  0  0  0  0  0
  3  7  1  0
  6 13  1  0
 12 14  1  0
 10 15  1  0
 15 16  2  3
 16 17  1  0
 17 18  2  0
  1  2  2  0
  2  3  1  0
  3  4  2  0
  4  5  1  0
  5  6  2  0
  1  6  1  0
  7  8  2  0
  8  9  1  0
  9 10  2  0
 10 11  1  0
 11 12  2  0
  7 12  1  0
M  END

$$$$
No_3027-/export/home/yangzhenyu/potential_scad_32_flow//YTHDC2/2024-12-06-03-22-00/
     RDKit          3D

 19 21  0  0  1  0  0  0  0  0999 V2000
    1.1787   -8.0297    3.5154 C   0  0  0  0  0  0  0  0  0  0  0  0
    1.1048   -9.2215    3.2892 C   0  0  0  0  0  0  0  0  0  0  0  0
    1.2339   -9.7611    2.0189 C   0  0  0  0  0  0  0  0  0  0  0  0
    1.3583   -9.0036    0.9764 C   0  0  0  0  0  0  0  0  0  0  0  0
    1.5996   -7.6362    1.1311 C   0  0  0  0  0  0  0  0  0  0  0  0
    1.4830   -7.0928    2.3626 C   0  0  0  0  0  0  0  0  0  0  0  0
    1.5395   -5.7300    2.6182 C   0  0  0  0  0  0  0  0  0  0  0  0
    1.1775  -11.2233    1.8407 C   0  0  1  0  0  0  0  0  0  0  0  0
    0.7252  -11.5870    0.5412 C   0  0  0  0  0  0  0  0  0  0  0  0
   -0.5181  -12.2492    0.6137 C   0  0  0  0  0  0  0  0  0  0  0  0
   -1.4841  -11.7416   -0.0226 C   0  0  0  0  0  0  0  0  0  0  0  0
   -2.6910  -12.2584   -0.0955 C   0  0  0  0  0  0  0  0  0  0  0  0
   -2.8948  -13.4446    0.6116 C   0  0  0  0  0  0  0  0  0  0  0  0
   -1.9057  -14.0045    1.3372 C   0  0  0  0  0  0  0  0  0  0  0  0
   -0.6120  -13.4386    1.3252 C   0  0  0  0  0  0  0  0  0  0  0  0
    0.4542  -14.0314    1.9613 C   0  0  0  0  0  0  0  0  0  0  0  0
    1.2266  -13.6080    2.7468 C   0  0  0  0  0  0  0  0  0  0  0  0
    1.7366  -12.1809    2.7081 C   0  0  0  0  0  0  0  0  0  0  0  0
    1.3035   -4.8068    1.6756 O   0  0  0  0  0  0  0  0  0  0  0  0
  6  7  1  0
  8  3  1  6
  8  9  1  0
  9 10  1  0
 15 16  1  0
 16 17  2  0
  8 18  1  0
 17 18  1  0
  7 19  2  0
  1  2  2  0
  2  3  1  0
  3  4  2  0
  4  5  1  0
  5  6  2  0
  1  6  1  0
 10 11  2  0
 11 12  1  0
 12 13  2  0
 13 14  1  0
 14 15  2  0
 10 15  1  0
M  END

$$$$
No_3028-/export/home/yangzhenyu/potential_scad_32_flow//YTHDC2/2024-12-06-03-22-00/
     RDKit          3D

 20 21  0  0  1  0  0  0  0  0999 V2000
    1.1787   -8.0297    3.5154 C   0  0  0  0  0  0  0  0  0  0  0  0
    1.1048   -9.2215    3.2892 C   0  0  0  0  0  0  0  0  0  0  0  0
    1.2339   -9.7611    2.0189 C   0  0  0  0  0  0  0  0  0  0  0  0
    1.3583   -9.0036    0.9764 C   0  0  0  0  0  0  0  0  0  0  0  0
    1.5996   -7.6362    1.1311 C   0  0  0  0  0  0  0  0  0  0  0  0
    1.4830   -7.0928    2.3626 C   0  0  0  0  0  0  0  0  0  0  0  0
    1.1008  -11.2372    1.8542 C   0  0  2  0  0  0  0  0  0  0  0  0
    0.4812  -11.6084    0.6459 C   0  0  0  0  0  0  0  0  0  0  0  0
   -0.6166  -12.2864    0.7859 C   0  0  2  0  0  0  0  0  0  0  0  0
   -0.7300  -13.0625    1.9848 C   0  0  0  0  0  0  0  0  0  0  0  0
   -0.0079  -13.4064    2.7243 C   0  0  0  0  0  0  0  0  0  0  0  0
    1.1366  -12.2470    2.8073 C   0  0  0  0  0  0  0  0  0  0  0  0
    1.5808   -5.6371    2.6477 O   0  0  0  0  0  0  0  0  0  0  0  0
    2.0466  -12.1038    3.7884 O   0  0  0  0  0  0  0  0  0  0  0  0
    1.3274   -5.1285    3.7317 C   0  0  0  0  0  0  0  0  0  0  0  0
   -1.5096  -12.6418   -0.3542 C   0  0  0  0  0  0  0  0  0  0  0  0
   -2.0368  -11.6014   -1.0096 C   0  0  0  0  0  0  0  0  0  0  0  0
   -2.7997  -11.8488   -2.1504 C   0  0  0  0  0  0  0  0  0  0  0  0
   -3.0444  -10.8447   -3.0558 C   0  0  0  0  0  0  0  0  0  0  0  0
   -2.4939   -9.4480   -2.7207 C   0  0  0  0  0  0  0  0  0  0  0  0
  7  3  1  1
  7  8  1  0
  9 10  1  6
  7 12  1  0
 11 12  1  0
  6 13  1  0
 12 14  2  0
 13 15  1  0
  9 16  1  0
 16 17  2  3
 17 18  1  0
 18 19  2  3
 19 20  1  0
  8  9  1  0
 10 11  1  0
  1  2  2  0
  2  3  1  0
  3  4  2  0
  4  5  1  0
  5  6  2  0
  1  6  1  0
M  END

$$$$
No_3029-/export/home/yangzhenyu/potential_scad_32_flow//YTHDC2/2024-12-06-03-22-00/
     RDKit          3D

 18 18  0  0  1  0  0  0  0  0999 V2000
    1.1787   -8.0297    3.5154 C   0  0  0  0  0  0  0  0  0  0  0  0
    1.0491   -6.8434    2.9820 C   0  0  0  0  0  0  0  0  0  0  0  0
    0.9905   -9.0774    2.6527 C   0  0  0  0  0  0  0  0  0  0  0  0
    0.7897   -8.9519    1.3691 C   0  0  0  0  0  0  0  0  0  0  0  0
    0.7018   -7.7198    0.7892 N   0  0  0  0  0  0  0  0  0  0  0  0
    0.8792   -6.6462    1.5874 C   0  0  0  0  0  0  0  0  0  0  0  0
    1.0528  -10.4814    3.2351 C   0  0  1  0  0  0  0  0  0  0  0  0
    2.1284  -11.0125    3.6127 C   0  0  0  0  0  0  0  0  0  0  0  0
    0.8461   -5.3383    1.0422 O   0  0  0  0  0  0  0  0  0  0  0  0
   -0.0986  -10.6654    4.2323 N   0  0  0  0  0  0  0  0  0  0  0  0
    2.1119  -12.3825    3.8908 O   0  0  0  0  0  0  0  0  0  0  0  0
   -1.2704  -10.7708    3.6956 C   0  0  1  0  0  0  0  0  0  0  0  0
   -1.5160  -11.6522    2.6855 C   0  0  0  0  0  0  0  0  0  0  0  0
   -2.2616  -10.0216    4.4256 C   0  0  0  0  0  0  0  0  0  0  0  0
   -2.0214   -9.0945    5.3136 C   0  0  0  0  0  0  0  0  0  0  0  0
   -2.9759   -8.1729    5.7781 C   0  0  0  0  0  0  0  0  0  0  0  0
   -4.2084   -8.5510    5.5279 C   0  0  0  0  0  0  0  0  0  0  0  0
   -4.5988   -9.4657    4.7178 C   0  0  0  0  0  0  0  0  0  0  0  0
  1  2  1  0
  3  4  1  0
  2  6  1  0
  5  6  1  0
  3  7  1  0
  7  8  1  1
  6  9  2  0
  7 10  1  0
  8 11  1  0
 10 12  1  0
 12 13  1  1
 12 14  1  0
 14 15  1  0
 15 16  2  3
 16 17  1  0
 17 18  2  0
  1  3  1  0
  4  5  1  0
M  END

$$$$
No_3030-/export/home/yangzhenyu/potential_scad_32_flow//YTHDC2/2024-12-06-03-22-00/
     RDKit          3D

 16 17  0  0  1  0  0  0  0  0999 V2000
    1.1787   -8.0297    3.5154 C   0  0  0  0  0  0  0  0  0  0  0  0
    1.1048   -9.2215    3.2892 C   0  0  0  0  0  0  0  0  0  0  0  0
    1.2339   -9.7611    2.0189 C   0  0  0  0  0  0  0  0  0  0  0  0
    1.3583   -9.0036    0.9764 C   0  0  0  0  0  0  0  0  0  0  0  0
    1.7077   -9.6100   -0.3010 C   0  0  0  0  0  0  0  0  0  0  0  0
    1.3637   -7.1087    2.3226 C   0  0  0  0  0  0  0  0  0  0  0  0
    1.4257   -7.6645    1.0231 C   0  0  0  0  0  0  0  0  0  0  0  0
    1.9364   -8.8976   -1.3212 O   0  0  0  0  0  0  0  0  0  0  0  0
    1.5161  -10.9175   -0.4592 O   0  0  0  0  0  0  0  0  0  0  0  0
    1.1228  -10.1701    4.3932 Cl  0  0  0  0  0  0  0  0  0  0  0  0
    1.3198   -5.5897    2.5211 Cl  0  0  0  0  0  0  0  0  0  0  0  0
    1.3124  -11.1615    1.9359 O   0  0  0  0  0  0  0  0  0  0  0  0
    1.5557  -11.7661    0.7236 C   0  0  1  0  0  0  0  0  0  0  0  0
    1.6394  -13.0328    0.6468 C   0  0  0  0  0  0  0  0  0  0  0  0
    0.5137  -13.8324    0.4440 C   0  0  0  0  0  0  0  0  0  0  0  0
   -0.4600  -13.2094   -0.0677 C   0  0  0  0  0  0  0  0  0  0  0  0
  4  5  1  0
  5  8  2  0
  5  9  1  0
  2 10  1  0
  6 11  1  0
  3 12  1  0
  9 13  1  0
 12 13  1  0
 13 14  1  6
 14 15  1  0
 15 16  1  0
  1  2  2  0
  2  3  1  0
  3  4  2  0
  4  7  1  0
  6  7  2  0
  1  6  1  0
M  END

$$$$
No_3031-/export/home/yangzhenyu/potential_scad_32_flow//YTHDC2/2024-12-06-03-22-00/
     RDKit          3D

 18 19  0  0  1  0  0  0  0  0999 V2000
    1.1787   -8.0297    3.5154 C   0  0  0  0  0  0  0  0  0  0  0  0
    1.1048   -9.2215    3.2892 C   0  0  0  0  0  0  0  0  0  0  0  0
    1.2339   -9.7611    2.0189 C   0  0  0  0  0  0  0  0  0  0  0  0
    1.1954  -11.2312    1.8661 C   0  0  0  0  0  0  0  0  0  0  0  0
    1.2996  -11.5815    0.5387 C   0  0  0  0  0  0  0  0  0  0  0  0
    1.3263   -7.1208    2.3229 C   0  0  1  0  0  0  0  0  0  0  0  0
    1.3693   -7.6408    1.0625 C   0  0  0  0  0  0  0  0  0  0  0  0
    1.4358   -8.9950    0.8622 C   0  0  0  0  0  0  0  0  0  0  0  0
    1.1800  -13.0763    0.6448 C   0  0  0  0  0  0  0  0  0  0  0  0
    1.3113  -11.7825    2.9197 C   0  0  0  0  0  0  0  0  0  0  0  0
    1.2349  -13.1021    2.9430 C   0  0  0  0  0  0  0  0  0  0  0  0
    1.1355  -13.8988    1.7575 C   0  0  0  0  0  0  0  0  0  0  0  0
    1.3057   -5.6314    2.5221 I   0  0  0  0  0  0  0  0  0  0  0  0
    1.5200   -9.4122   -0.3857 O   0  0  0  0  0  0  0  0  0  0  0  0
    1.2560  -15.2210    1.7640 C   0  0  2  0  0  0  0  0  0  0  0  0
    2.3522  -15.8895    2.1924 C   0  0  0  0  0  0  0  0  0  0  0  0
    2.4157  -17.3242    2.3617 O   0  0  0  0  0  0  0  0  0  0  0  0
    0.4486  -16.0210    1.1411 C   0  0  0  0  0  0  0  0  0  0  0  0
  1  2  1  0
  3  4  1  0
  6  7  1  0
  3  8  1  0
  7  8  1  0
  6 13  1  6
  8 14  2  0
 12 15  1  0
 15 16  1  0
 16 17  1  0
 15 18  1  6
  2  3  1  0
  1  6  1  0
  4  5  2  0
  5  9  1  0
  9 12  2  0
 11 12  1  0
 10 11  2  0
  4 10  1  0
M  END

$$$$
No_3032-/export/home/yangzhenyu/potential_scad_32_flow//YTHDC2/2024-12-06-03-22-00/
     RDKit          3D

 18 19  0  0  1  0  0  0  0  0999 V2000
    1.1787   -8.0297    3.5154 C   0  0  0  0  0  0  0  0  0  0  0  0
    1.1048   -9.2215    3.2892 C   0  0  0  0  0  0  0  0  0  0  0  0
    1.2339   -9.7611    2.0189 C   0  0  0  0  0  0  0  0  0  0  0  0
    1.1954  -11.2312    1.8661 C   0  0  0  0  0  0  0  0  0  0  0  0
    1.2996  -11.5815    0.5387 C   0  0  0  0  0  0  0  0  0  0  0  0
    1.3263   -7.1208    2.3229 C   0  0  0  0  0  0  0  0  0  0  0  0
    1.3693   -7.6408    1.0625 C   0  0  0  0  0  0  0  0  0  0  0  0
    1.4358   -8.9950    0.8622 C   0  0  0  0  0  0  0  0  0  0  0  0
    1.1800  -13.0763    0.6448 C   0  0  0  0  0  0  0  0  0  0  0  0
    1.0518  -12.1823    2.6382 C   0  0  2  0  0  0  0  0  0  0  0  0
    1.0861  -12.0479    4.0863 C   0  0  0  0  0  0  0  0  0  0  0  0
    1.0272  -13.3511    1.9187 C   0  0  2  0  0  0  0  0  0  0  0  0
    1.3120   -5.6452    2.5500 C   0  0  0  0  0  0  0  0  0  0  0  0
    0.9568  -14.5750    2.5217 C   0  0  0  0  0  0  0  0  0  0  0  0
    0.9646  -15.7156    1.8466 C   0  0  0  0  0  0  0  0  0  0  0  0
    2.1972  -16.3876    1.6923 C   0  0  0  0  0  0  0  0  0  0  0  0
    2.4957  -17.3513    2.7724 C   0  0  0  0  0  0  0  0  0  0  0  0
    1.6574  -17.5189    3.7161 O   0  0  0  0  0  0  0  0  0  0  0  0
  3  4  1  0
  4  5  1  0
  5  9  2  0
  4 10  1  0
 10 11  1  1
  9 12  1  0
 10 12  1  0
  6 13  1  0
 12 14  1  1
 14 15  1  0
 15 16  1  0
 16 17  1  0
 17 18  1  0
  1  2  2  0
  2  3  1  0
  3  8  2  0
  7  8  1  0
  6  7  2  0
  1  6  1  0
M  END

$$$$
No_3033-/export/home/yangzhenyu/potential_scad_32_flow//YTHDC2/2024-12-06-03-22-00/
     RDKit          3D

 20 20  0  0  1  0  0  0  0  0999 V2000
    1.1787   -8.0297    3.5154 C   0  0  0  0  0  0  0  0  0  0  0  0
    1.0491   -6.8434    2.9820 C   0  0  0  0  0  0  0  0  0  0  0  0
    0.9905   -9.0774    2.6527 C   0  0  0  0  0  0  0  0  0  0  0  0
    0.7897   -8.9519    1.3691 C   0  0  0  0  0  0  0  0  0  0  0  0
    0.7018   -7.7198    0.7892 C   0  0  0  0  0  0  0  0  0  0  0  0
    0.8918   -6.5957    1.6117 C   0  0  0  0  0  0  0  0  0  0  0  0
    1.0711  -10.4814    3.2282 C   0  0  0  0  0  0  0  0  0  0  0  0
    1.1227  -11.5770    2.4616 C   0  0  0  0  0  0  0  0  0  0  0  0
    1.1500  -12.9052    3.0782 C   0  0  0  0  0  0  0  0  0  0  0  0
    0.6702  -13.9897    2.4998 C   0  0  2  0  0  0  0  0  0  0  0  0
    1.0009  -15.3315    3.2443 C   0  0  0  0  0  0  0  0  0  0  0  0
    0.9853  -16.4905    2.5086 C   0  0  0  0  0  0  0  0  0  0  0  0
    0.8408   -5.2757    1.1542 Cl  0  0  0  0  0  0  0  0  0  0  0  0
    1.7332  -17.5047    2.9558 C   0  0  0  0  0  0  0  0  0  0  0  0
    1.9914  -18.4787    2.1831 O   0  0  0  0  0  0  0  0  0  0  0  0
    2.5452  -17.5156    3.9732 O   0  0  0  0  0  0  0  0  0  0  0  0
    0.0321  -14.0677    1.3793 C   0  0  0  0  0  0  0  0  0  0  0  0
   -1.3089  -14.6254    1.2149 C   0  0  0  0  0  0  0  0  0  0  0  0
   -1.5986  -15.5248    0.3797 O   0  0  0  0  0  0  0  0  0  0  0  0
   -2.2958  -13.9001    1.7800 O   0  0  0  0  0  0  0  0  0  0  0  0
  3  7  1  0
  7  8  2  3
  8  9  1  0
 10  9  1  6
 10 11  1  0
 11 12  1  0
  6 13  1  0
 12 14  1  0
 14 15  2  0
 14 16  1  0
 10 17  1  0
 17 18  1  0
 18 19  2  0
 18 20  1  0
  1  2  2  0
  2  6  1  0
  5  6  2  0
  4  5  1  0
  3  4  2  0
  1  3  1  0
M  END

$$$$
No_3034-/export/home/yangzhenyu/potential_scad_32_flow//YTHDC2/2024-12-06-03-22-00/
     RDKit          3D

 16 16  0  0  0  0  0  0  0  0999 V2000
    1.1787   -8.0297    3.5154 O   0  0  0  0  0  0  0  0  0  0  0  0
    0.9969   -8.9689    3.0048 C   0  0  0  0  0  0  0  0  0  0  0  0
    1.3055  -10.1056    3.6616 C   0  0  0  0  0  0  0  0  0  0  0  0
    1.1249  -11.3503    3.0941 C   0  0  0  0  0  0  0  0  0  0  0  0
    0.6932  -11.4484    1.8586 C   0  0  0  0  0  0  0  0  0  0  0  0
    0.5498  -10.3736    1.0579 C   0  0  0  0  0  0  0  0  0  0  0  0
    0.7643   -9.1185    1.6383 C   0  0  0  0  0  0  0  0  0  0  0  0
    0.4151   -7.8542    1.0784 C   0  0  0  0  0  0  0  0  0  0  0  0
    1.2617   -6.9597    0.8839 O   0  0  0  0  0  0  0  0  0  0  0  0
   -0.7612   -7.5400    0.5407 O   0  0  0  0  0  0  0  0  0  0  0  0
    1.2710  -12.8279    3.9698 C   0  0  0  0  0  0  0  0  0  0  0  0
    0.9608  -13.6923    3.3631 C   0  0  0  0  0  0  0  0  0  0  0  0
    1.4351  -15.0314    3.8860 N   0  0  0  0  0  0  0  0  0  0  0  0
    1.1927  -16.1953    3.2064 C   0  0  0  0  0  0  0  0  0  0  0  0
    0.5483  -16.2109    2.1149 N   0  0  0  0  0  0  0  0  0  0  0  0
    0.1128  -15.1443    1.5444 C   0  0  0  0  0  0  0  0  0  0  0  0
  1  2  1  0
  7  8  1  0
  8  9  1  0
  8 10  2  0
  4 11  1  0
 11 12  2  3
 12 13  1  0
 13 14  2  3
 14 15  1  0
 15 16  2  0
  2  3  2  0
  3  4  1  0
  4  5  2  0
  5  6  1  0
  6  7  2  0
  2  7  1  0
M  END

$$$$
No_3035-/export/home/yangzhenyu/potential_scad_32_flow//YTHDC2/2024-12-06-03-22-00/
     RDKit          3D

 18 19  0  0  0  0  0  0  0  0999 V2000
    1.1787   -8.0297    3.5154 C   0  0  0  0  0  0  0  0  0  0  0  0
    1.1048   -9.2215    3.2892 C   0  0  0  0  0  0  0  0  0  0  0  0
    1.2339   -9.7611    2.0189 C   0  0  0  0  0  0  0  0  0  0  0  0
    1.3583   -9.0036    0.9764 C   0  0  0  0  0  0  0  0  0  0  0  0
    1.5996   -7.6362    1.1311 C   0  0  0  0  0  0  0  0  0  0  0  0
    1.4830   -7.0928    2.3626 C   0  0  0  0  0  0  0  0  0  0  0  0
    1.5395   -5.7300    2.6182 C   0  0  0  0  0  0  0  0  0  0  0  0
    1.1969  -11.3760    1.8433 C   0  0  0  0  0  0  0  0  0  0  0  0
    1.7910  -12.1287    2.5491 C   0  0  0  0  0  0  0  0  0  0  0  0
    1.6251  -13.4926    2.1118 C   0  0  0  0  0  0  0  0  0  0  0  0
    0.9177  -13.8665    1.0867 C   0  0  0  0  0  0  0  0  0  0  0  0
    0.2914  -12.4442    0.5220 C   0  0  0  0  0  0  0  0  0  0  0  0
    0.4396  -11.5133    0.7594 N   0  0  0  0  0  0  0  0  0  0  0  0
    2.3990  -14.6977    3.0140 Cl  0  0  0  0  0  0  0  0  0  0  0  0
    1.2593   -4.7977    1.7254 C   0  0  0  0  0  0  0  0  0  0  0  0
    1.2187   -3.3712    1.9503 C   0  0  0  0  0  0  0  0  0  0  0  0
    0.4450   -2.7643    2.6188 C   0  0  0  0  0  0  0  0  0  0  0  0
   -0.7671   -2.9083    2.4712 C   0  0  0  0  0  0  0  0  0  0  0  0
  6  7  1  0
  3  8  1  0
 10 14  1  0
  7 15  2  3
 15 16  1  0
 16 17  1  0
 17 18  2  0
  1  2  2  0
  2  3  1  0
  3  4  2  0
  4  5  1  0
  5  6  2  0
  1  6  1  0
  8  9  2  0
  9 10  1  0
 10 11  2  0
 11 12  1  0
 12 13  2  0
  8 13  1  0
M  END

$$$$
No_3036-/export/home/yangzhenyu/potential_scad_32_flow//YTHDC2/2024-12-06-03-22-00/
     RDKit          3D

 19 20  0  0  0  0  0  0  0  0999 V2000
    1.1787   -8.0297    3.5154 C   0  0  0  0  0  0  0  0  0  0  0  0
    1.0491   -6.8434    2.9820 C   0  0  0  0  0  0  0  0  0  0  0  0
    0.0950   -8.8404    3.2292 C   0  0  0  0  0  0  0  0  0  0  0  0
    0.0602  -10.1764    3.8231 C   0  0  0  0  0  0  0  0  0  0  0  0
    0.2248   -6.3830    2.0648 C   0  0  0  0  0  0  0  0  0  0  0  0
   -0.6745   -7.2322    1.6857 C   0  0  0  0  0  0  0  0  0  0  0  0
   -0.7374   -8.4992    2.1291 C   0  0  0  0  0  0  0  0  0  0  0  0
    1.0517  -10.8728    4.0967 C   0  0  0  0  0  0  0  0  0  0  0  0
    1.5078  -11.7912    3.1561 C   0  0  0  0  0  0  0  0  0  0  0  0
    1.4382  -11.4073    1.8491 C   0  0  0  0  0  0  0  0  0  0  0  0
    0.9302  -12.3226    0.9267 C   0  0  0  0  0  0  0  0  0  0  0  0
    0.5896  -13.5292    1.2215 C   0  0  0  0  0  0  0  0  0  0  0  0
    0.7565  -13.9716    2.5095 C   0  0  0  0  0  0  0  0  0  0  0  0
    1.1793  -13.1729    3.5178 C   0  0  0  0  0  0  0  0  0  0  0  0
    0.4698   -4.8960    1.4054 C   0  0  0  0  0  0  0  0  0  0  0  0
    0.4021  -15.4961    2.8870 C   0  0  0  0  0  0  0  0  0  0  0  0
    0.5284  -16.3098    2.2565 C   0  0  0  0  0  0  0  0  0  0  0  0
    0.1825  -17.6626    2.7243 C   0  0  0  0  0  0  0  0  0  0  0  0
    1.3759   -4.2105    1.9369 C   0  0  0  0  0  0  0  0  0  0  0  0
  3  4  1  0
  4  8  1  0
  8  9  1  0
  5 15  1  0
 13 16  1  0
 16 17  2  3
 17 18  1  0
 15 19  1  0
  9 10  2  0
 10 11  1  0
 11 12  2  0
 12 13  1  0
 13 14  2  0
  9 14  1  0
  1  2  2  0
  2  5  1  0
  5  6  2  0
  6  7  1  0
  3  7  2  0
  1  3  1  0
M  END

$$$$
No_3037-/export/home/yangzhenyu/potential_scad_32_flow//YTHDC2/2024-12-06-03-22-00/
     RDKit          3D

 19 21  0  0  0  0  0  0  0  0999 V2000
    1.1787   -8.0297    3.5154 C   0  0  0  0  0  0  0  0  0  0  0  0
    1.1048   -9.2215    3.2892 C   0  0  0  0  0  0  0  0  0  0  0  0
    1.3627  -10.1721    4.3044 C   0  0  0  0  0  0  0  0  0  0  0  0
    1.0682  -11.5187    4.0618 C   0  0  0  0  0  0  0  0  0  0  0  0
    0.6332  -11.9655    2.9682 C   0  0  0  0  0  0  0  0  0  0  0  0
    0.4776  -11.1308    1.9203 C   0  0  0  0  0  0  0  0  0  0  0  0
    0.7470   -9.8274    2.0368 C   0  0  0  0  0  0  0  0  0  0  0  0
    0.5535   -7.1314    2.6861 C   0  0  0  0  0  0  0  0  0  0  0  0
    0.7497   -5.5830    2.7890 Cl  0  0  0  0  0  0  0  0  0  0  0  0
   -0.0548   -7.5459    1.3855 C   0  0  0  0  0  0  0  0  0  0  0  0
    0.1049   -8.9812    1.1611 C   0  0  0  0  0  0  0  0  0  0  0  0
    0.5128  -13.3960    2.7317 C   0  0  0  0  0  0  0  0  0  0  0  0
   -0.7052  -13.8938    2.3339 C   0  0  0  0  0  0  0  0  0  0  0  0
   -0.7348  -15.3061    2.1601 C   0  0  0  0  0  0  0  0  0  0  0  0
    0.2986  -16.0979    2.4172 C   0  0  0  0  0  0  0  0  0  0  0  0
    1.5485  -15.6272    2.8550 C   0  0  0  0  0  0  0  0  0  0  0  0
    1.6497  -14.1996    3.0404 C   0  0  0  0  0  0  0  0  0  0  0  0
   -0.3739   -9.4010   -0.0888 O   0  0  0  0  0  0  0  0  0  0  0  0
    0.1522   -8.9745   -1.3236 C   0  0  0  0  0  0  0  0  0  0  0  0
  8  9  1  0
  5 12  1  0
 11 18  1  0
 18 19  1  0
 12 13  2  0
 13 14  1  0
 14 15  2  0
 15 16  1  0
 16 17  2  0
 12 17  1  0
  2  3  1  0
  3  4  2  0
  4  5  1  0
  5  6  2  0
  6  7  1  0
  1  2  2  0
  2  7  1  0
  7 11  2  0
 10 11  1  0
  8 10  2  0
  1  8  1  0
M  END

$$$$
No_3038-/export/home/yangzhenyu/potential_scad_32_flow//YTHDC2/2024-12-06-03-22-00/
     RDKit          3D

 12 12  0  0  0  0  0  0  0  0999 V2000
    1.1787   -8.0297    3.5154 Cl  0  0  0  0  0  0  0  0  0  0  0  0
    0.7279   -9.0023    2.8722 C   0  0  0  0  0  0  0  0  0  0  0  0
    1.3852  -10.2194    3.0621 C   0  0  0  0  0  0  0  0  0  0  0  0
    1.4545  -11.1895    2.1693 C   0  0  0  0  0  0  0  0  0  0  0  0
    0.8014  -11.1600    1.0315 C   0  0  0  0  0  0  0  0  0  0  0  0
    0.2687  -10.0102    0.6759 C   0  0  0  0  0  0  0  0  0  0  0  0
    0.1996   -8.9577    1.5190 C   0  0  0  0  0  0  0  0  0  0  0  0
    0.4296   -7.7068    0.9362 C   0  0  0  0  0  0  0  0  0  0  0  0
   -0.7414   -6.9709    0.7353 O   0  0  0  0  0  0  0  0  0  0  0  0
    1.3270   -7.2020    0.1834 O   0  0  0  0  0  0  0  0  0  0  0  0
    1.9137  -12.5762    2.5558 N   0  0  0  0  0  0  0  0  0  0  0  0
    1.8416  -13.7604    1.8144 O   0  0  0  0  0  0  0  0  0  0  0  0
  1  2  1  0
  7  8  1  0
  8  9  2  0
  8 10  1  0
  4 11  1  0
 11 12  2  0
  2  3  2  0
  3  4  1  0
  4  5  2  0
  5  6  1  0
  6  7  2  0
  2  7  1  0
M  END

$$$$
No_3039-/export/home/yangzhenyu/potential_scad_32_flow//YTHDC2/2024-12-06-03-22-00/
     RDKit          3D

 19 20  0  0  0  0  0  0  0  0999 V2000
    1.1787   -8.0297    3.5154 C   0  0  0  0  0  0  0  0  0  0  0  0
    1.0491   -6.8434    2.9820 C   0  0  0  0  0  0  0  0  0  0  0  0
    0.0950   -8.8404    3.2292 C   0  0  0  0  0  0  0  0  0  0  0  0
   -0.9173   -8.4596    2.5152 C   0  0  0  0  0  0  0  0  0  0  0  0
   -1.0331   -7.2162    2.0653 C   0  0  0  0  0  0  0  0  0  0  0  0
   -0.0105   -6.3168    2.3081 C   0  0  0  0  0  0  0  0  0  0  0  0
    0.1150   -4.9910    1.8495 C   0  0  0  0  0  0  0  0  0  0  0  0
    0.9121   -4.1017    2.4010 O   0  0  0  0  0  0  0  0  0  0  0  0
   -0.4792   -4.5325    0.7806 C   0  0  0  0  0  0  0  0  0  0  0  0
    0.1823  -10.2773    3.6848 C   0  0  0  0  0  0  0  0  0  0  0  0
    1.2756  -10.8956    4.0624 C   0  0  0  0  0  0  0  0  0  0  0  0
    1.1483  -12.2982    4.3866 C   0  0  0  0  0  0  0  0  0  0  0  0
    1.1398  -13.0652    3.1748 C   0  0  0  0  0  0  0  0  0  0  0  0
    0.2663  -12.7376    2.2024 C   0  0  0  0  0  0  0  0  0  0  0  0
   -0.2017  -11.2124    2.3921 C   0  0  0  0  0  0  0  0  0  0  0  0
    1.3161  -14.4789    3.2414 O   0  0  0  0  0  0  0  0  0  0  0  0
    1.7541  -15.1931    2.3476 C   0  0  0  0  0  0  0  0  0  0  0  0
   -1.3362   -3.8286    0.7499 C   0  0  0  0  0  0  0  0  0  0  0  0
   -2.0377   -3.2460    2.0190 C   0  0  0  0  0  0  0  0  0  0  0  0
  6  7  1  0
  7  8  2  0
  7  9  1  0
  3 10  1  0
 13 16  1  0
 16 17  1  0
  9 18  2  3
 18 19  1  0
  1  2  2  0
  2  6  1  0
  5  6  2  0
  4  5  1  0
  3  4  2  0
  1  3  1  0
 10 11  2  0
 11 12  1  0
 12 13  2  0
 13 14  1  0
 14 15  2  0
 10 15  1  0
M  END

$$$$
No_3040-/export/home/yangzhenyu/potential_scad_32_flow//YTHDC2/2024-12-06-03-22-00/
     RDKit          3D

 19 20  0  0  0  0  0  0  0  0999 V2000
    1.1787   -8.0297    3.5154 C   0  0  0  0  0  0  0  0  0  0  0  0
    1.0491   -6.8434    2.9820 C   0  0  0  0  0  0  0  0  0  0  0  0
    0.0950   -8.8404    3.2292 C   0  0  0  0  0  0  0  0  0  0  0  0
   -0.9173   -8.4596    2.5152 C   0  0  0  0  0  0  0  0  0  0  0  0
   -1.0331   -7.2162    2.0653 C   0  0  0  0  0  0  0  0  0  0  0  0
   -0.0105   -6.3168    2.3081 C   0  0  0  0  0  0  0  0  0  0  0  0
    0.1935  -10.3737    3.7416 C   0  0  0  0  0  0  0  0  0  0  0  0
   -0.9968  -11.0614    3.6410 O   0  0  0  0  0  0  0  0  0  0  0  0
    1.2685  -10.8592    4.2225 O   0  0  0  0  0  0  0  0  0  0  0  0
    0.0605   -4.9637    1.8241 C   0  0  0  0  0  0  0  0  0  0  0  0
   -0.7812   -4.1076    2.3772 C   0  0  0  0  0  0  0  0  0  0  0  0
   -0.6502   -2.7678    1.7661 C   0  0  0  0  0  0  0  0  0  0  0  0
    0.0908   -2.4574    0.7382 C   0  0  0  0  0  0  0  0  0  0  0  0
    0.8523   -3.4539    0.1156 C   0  0  0  0  0  0  0  0  0  0  0  0
    0.8597   -4.7111    0.7427 C   0  0  0  0  0  0  0  0  0  0  0  0
    0.1239   -1.1476    0.0846 O   0  0  0  0  0  0  0  0  0  0  0  0
    0.1368   -0.1766    0.6636 C   0  0  0  0  0  0  0  0  0  0  0  0
    1.9859  -11.8786    3.6518 C   0  0  0  0  0  0  0  0  0  0  0  0
    1.0841  -12.5327    2.8505 C   0  0  0  0  0  0  0  0  0  0  0  0
  3  7  1  0
  7  8  2  0
  7  9  1  0
  6 10  1  0
 13 16  1  0
 16 17  1  0
  9 18  1  0
 18 19  1  0
  1  2  2  0
  2  6  1  0
  5  6  2  0
  4  5  1  0
  3  4  2  0
  1  3  1  0
 10 11  2  0
 11 12  1  0
 12 13  2  0
 13 14  1  0
 14 15  2  0
 10 15  1  0
M  END

$$$$
No_3041-/export/home/yangzhenyu/potential_scad_32_flow//YTHDC2/2024-12-06-03-22-00/
     RDKit          3D

 18 20  0  0  1  0  0  0  0  0999 V2000
    1.1787   -8.0297    3.5154 N   0  0  0  0  0  0  0  0  0  0  0  0
    0.8669   -7.0905    2.8589 C   0  0  0  0  0  0  0  0  0  0  0  0
    0.8842   -5.8387    3.2677 C   0  0  0  0  0  0  0  0  0  0  0  0
    1.2819   -9.4050    3.1259 C   0  0  2  0  0  0  0  0  0  0  0  0
    1.6244  -10.3515    4.1878 C   0  0  0  0  0  0  0  0  0  0  0  0
    1.6237  -11.7221    3.9802 S   0  0  0  0  0  0  0  0  0  0  0  0
    1.3645   -9.8104    1.9334 C   0  0  2  0  0  0  0  0  0  0  0  0
    1.4207  -11.2031    2.0912 C   0  0  1  0  0  0  0  0  0  0  0  0
    1.1596   -4.7774    2.4739 C   0  0  0  0  0  0  0  0  0  0  0  0
    1.3384   -4.9467    1.1199 C   0  0  0  0  0  0  0  0  0  0  0  0
    1.3891   -6.1125    0.5662 C   0  0  0  0  0  0  0  0  0  0  0  0
    1.2341   -7.2375    1.4093 C   0  0  0  0  0  0  0  0  0  0  0  0
    1.4811   -9.2282    0.9108 C   0  0  0  0  0  0  0  0  0  0  0  0
    1.3876   -8.0635    0.5211 C   0  0  0  0  0  0  0  0  0  0  0  0
    1.8152  -10.1533   -0.1352 O   0  0  0  0  0  0  0  0  0  0  0  0
    1.5349   -7.9035   -0.7943 O   0  0  0  0  0  0  0  0  0  0  0  0
    1.0730   -3.1711    3.3465 Cl  0  0  0  0  0  0  0  0  0  0  0  0
    1.5678  -12.2014    1.2083 C   0  0  0  0  0  0  0  0  0  0  0  0
  1  2  1  0
  1  4  1  0
  4  5  1  1
  5  6  1  0
  4  7  1  0
  6  8  1  0
  7  8  1  0
  7 13  1  1
 12 14  1  0
 13 14  1  0
 13 15  2  0
 14 16  2  0
  9 17  1  0
  8 18  1  6
  2  3  2  0
  3  9  1  0
  9 10  2  0
 10 11  1  0
 11 12  2  0
  2 12  1  0
M  END

$$$$
No_3042-/export/home/yangzhenyu/potential_scad_32_flow//YTHDC2/2024-12-06-03-22-00/
     RDKit          3D

 18 18  0  0  1  0  0  0  0  0999 V2000
    1.1787   -8.0297    3.5154 C   0  0  0  0  0  0  0  0  0  0  0  0
    1.0491   -6.8434    2.9820 C   0  0  0  0  0  0  0  0  0  0  0  0
    0.0950   -8.8404    3.2292 C   0  0  0  0  0  0  0  0  0  0  0  0
   -0.9173   -8.4596    2.5152 C   0  0  0  0  0  0  0  0  0  0  0  0
   -1.0331   -7.2162    2.0653 C   0  0  0  0  0  0  0  0  0  0  0  0
   -0.0105   -6.3168    2.3081 C   0  0  0  0  0  0  0  0  0  0  0  0
    0.1465  -10.2446    3.6981 C   0  0  0  0  0  0  0  0  0  0  0  0
    0.1907  -11.3369    2.8651 C   0  0  0  0  0  0  0  0  0  0  0  0
    1.0128  -11.8996    2.5974 C   0  0  1  0  0  0  0  0  0  0  0  0
    2.3170  -11.5639    3.1142 C   0  0  0  0  0  0  0  0  0  0  0  0
    1.1488  -13.5051    3.0659 C   0  0  0  0  0  0  0  0  0  0  0  0
    0.0221   -4.9534    1.8679 S   0  0  0  0  0  0  0  0  0  0  0  0
   -0.2547   -4.7635    0.5336 O   0  0  0  0  0  0  0  0  0  0  0  0
    1.5716   -4.4459    1.9014 O   0  0  0  0  0  0  0  0  0  0  0  0
    0.1620  -14.3255    2.4614 C   0  0  0  0  0  0  0  0  0  0  0  0
   -0.2329  -14.2096    1.4277 C   0  0  0  0  0  0  0  0  0  0  0  0
    0.6019  -13.8588    0.3277 C   0  0  0  0  0  0  0  0  0  0  0  0
   -0.7059   -3.8931    2.7405 C   0  0  0  0  0  0  0  0  0  0  0  0
  3  7  1  0
  7  8  1  0
  8  9  1  0
  9 10  1  1
  9 11  1  0
  6 12  1  0
 12 13  2  0
 12 14  2  0
 11 15  1  0
 15 16  1  0
 16 17  1  0
 12 18  1  0
  1  2  2  0
  2  6  1  0
  5  6  2  0
  4  5  1  0
  3  4  2  0
  1  3  1  0
M  END

$$$$
No_3043-/export/home/yangzhenyu/potential_scad_32_flow//YTHDC2/2024-12-06-03-22-00/
     RDKit          3D

 19 21  0  0  0  0  0  0  0  0999 V2000
    1.1787   -8.0297    3.5154 C   0  0  0  0  0  0  0  0  0  0  0  0
    1.0491   -6.8434    2.9820 C   0  0  0  0  0  0  0  0  0  0  0  0
    1.9985   -8.9840    2.8958 C   0  0  0  0  0  0  0  0  0  0  0  0
    1.1815  -10.1889    2.5497 C   0  0  0  0  0  0  0  0  0  0  0  0
    0.9817  -11.1388    2.8134 C   0  0  0  0  0  0  0  0  0  0  0  0
    0.1125  -12.0891    2.4837 C   0  0  0  0  0  0  0  0  0  0  0  0
   -0.6446  -11.8250    1.4596 C   0  0  0  0  0  0  0  0  0  0  0  0
   -0.2941  -10.7598    0.6431 C   0  0  0  0  0  0  0  0  0  0  0  0
    0.5711   -9.8346    1.1239 C   0  0  0  0  0  0  0  0  0  0  0  0
    0.3257   -6.8342    1.7752 N   0  0  0  0  0  0  0  0  0  0  0  0
    0.5165   -8.1056    0.7541 C   0  0  0  0  0  0  0  0  0  0  0  0
    0.5960   -7.9144   -0.4042 O   0  0  0  0  0  0  0  0  0  0  0  0
    0.0260  -13.4414    3.0541 C   0  0  0  0  0  0  0  0  0  0  0  0
    1.2698  -14.1573    3.3265 C   0  0  0  0  0  0  0  0  0  0  0  0
    1.1484  -15.6124    3.3430 C   0  0  0  0  0  0  0  0  0  0  0  0
   -0.0666  -16.1536    3.1687 C   0  0  0  0  0  0  0  0  0  0  0  0
   -1.1697  -15.5033    2.8828 C   0  0  0  0  0  0  0  0  0  0  0  0
   -1.0932  -14.1757    2.7577 C   0  0  0  0  0  0  0  0  0  0  0  0
    1.2814   -5.6066    3.3294 O   0  0  0  0  0  0  0  0  0  0  0  0
  1  2  1  0
  1  3  1  0
  3  4  1  0
  2 10  1  0
  9 11  1  0
 10 11  1  0
 11 12  2  0
  6 13  1  0
  2 19  2  0
 13 14  2  0
 14 15  1  0
 15 16  2  0
 16 17  1  0
 17 18  2  0
 13 18  1  0
  4  5  2  0
  5  6  1  0
  6  7  2  0
  7  8  1  0
  8  9  2  0
  4  9  1  0
M  END

$$$$
No_3044-/export/home/yangzhenyu/potential_scad_32_flow//YTHDC2/2024-12-06-03-22-00/
     RDKit          3D

 19 20  0  0  0  0  0  0  0  0999 V2000
    1.1787   -8.0297    3.5154 C   0  0  0  0  0  0  0  0  0  0  0  0
    1.1048   -9.2215    3.2892 C   0  0  0  0  0  0  0  0  0  0  0  0
    1.2339   -9.7611    2.0189 C   0  0  0  0  0  0  0  0  0  0  0  0
    1.3583   -9.0036    0.9764 C   0  0  0  0  0  0  0  0  0  0  0  0
    1.5996   -7.6362    1.1311 C   0  0  0  0  0  0  0  0  0  0  0  0
    1.4830   -7.0928    2.3626 C   0  0  0  0  0  0  0  0  0  0  0  0
    1.1008  -11.2372    1.8542 C   0  0  0  0  0  0  0  0  0  0  0  0
    0.5178  -11.9759    2.3445 C   0  0  0  0  0  0  0  0  0  0  0  0
    0.4575  -13.3705    2.1281 C   0  0  0  0  0  0  0  0  0  0  0  0
   -0.4455  -13.9844    1.5571 C   0  0  0  0  0  0  0  0  0  0  0  0
   -1.4581  -13.1036    0.8544 C   0  0  0  0  0  0  0  0  0  0  0  0
   -2.4573  -13.8211    0.1302 C   0  0  0  0  0  0  0  0  0  0  0  0
   -2.5030  -15.0771    0.1928 N   0  0  0  0  0  0  0  0  0  0  0  0
   -1.6528  -15.8522    0.7370 C   0  0  0  0  0  0  0  0  0  0  0  0
   -0.5581  -15.3233    1.4161 C   0  0  0  0  0  0  0  0  0  0  0  0
    1.6112   -5.4703    2.6963 C   0  0  0  0  0  0  0  0  0  0  0  0
   -3.4582  -13.0199   -0.5033 C   0  0  0  0  0  0  0  0  0  0  0  0
   -3.5147  -11.9967   -0.6109 C   0  0  0  0  0  0  0  0  0  0  0  0
   -2.3831  -11.0550    0.0765 C   0  0  0  0  0  0  0  0  0  0  0  0
  3  7  1  0
  7  8  2  3
  8  9  1  0
  6 16  1  0
 12 17  1  0
 17 18  2  3
 18 19  1  0
  9 10  1  0
  1  2  2  0
  2  3  1  0
  3  4  2  0
  4  5  1  0
  5  6  2  0
  1  6  1  0
 10 11  2  0
 11 12  1  0
 12 13  2  0
 13 14  1  0
 14 15  2  0
 10 15  1  0
M  END

$$$$
No_3045-/export/home/yangzhenyu/potential_scad_32_flow//YTHDC2/2024-12-06-03-22-00/
     RDKit          3D

 18 18  0  0  1  0  0  0  0  0999 V2000
    1.1787   -8.0297    3.5154 C   0  0  0  0  0  0  0  0  0  0  0  0
    1.0491   -6.8434    2.9820 C   0  0  1  0  0  0  0  0  0  0  0  0
    1.9985   -8.9840    2.8958 C   0  0  0  0  0  0  0  0  0  0  0  0
    1.9135  -10.3404    3.6266 C   0  0  0  0  0  0  0  0  0  0  0  0
    1.3291  -11.3908    3.0222 C   0  0  2  0  0  0  0  0  0  0  0  0
    1.2749  -12.5326    3.7562 C   0  0  0  0  0  0  0  0  0  0  0  0
    1.8025   -5.7637    3.3237 N   0  0  0  0  0  0  0  0  0  0  0  0
    0.6991  -13.6790    3.1498 C   0  0  1  0  0  0  0  0  0  0  0  0
    0.4290  -13.6514    1.8452 C   0  0  0  0  0  0  0  0  0  0  0  0
    0.6495  -12.6294    1.0778 C   0  0  0  0  0  0  0  0  0  0  0  0
    1.1407  -11.4670    1.6131 C   0  0  0  0  0  0  0  0  0  0  0  0
    0.2226   -6.5654    1.9738 C   0  0  0  0  0  0  0  0  0  0  0  0
    0.3280   -5.2185    1.4086 O   0  0  0  0  0  0  0  0  0  0  0  0
   -0.5565   -7.2928    1.3874 O   0  0  0  0  0  0  0  0  0  0  0  0
    1.1834  -10.3931    0.7685 O   0  0  0  0  0  0  0  0  0  0  0  0
    0.5947  -14.8335    3.8975 O   0  0  0  0  0  0  0  0  0  0  0  0
    0.4819  -16.1012    3.3896 C   0  0  0  0  0  0  0  0  0  0  0  0
    0.8531  -16.9856    4.0421 C   0  0  0  0  0  0  0  0  0  0  0  0
  1  2  1  0
  1  3  1  0
  3  4  1  0
  5  4  1  6
  5  6  1  0
  2  7  1  6
  8  9  1  0
  5 11  1  0
 10 11  1  0
  2 12  1  0
 12 13  1  0
 12 14  2  0
 11 15  2  0
  8 16  1  6
 16 17  1  0
 17 18  1  0
  6  8  1  0
  9 10  1  0
M  END

$$$$
No_3046-/export/home/yangzhenyu/potential_scad_32_flow//YTHDC2/2024-12-06-03-22-00/
     RDKit          3D

 18 19  0  0  0  0  0  0  0  0999 V2000
    1.1787   -8.0297    3.5154 C   0  0  0  0  0  0  0  0  0  0  0  0
    1.0491   -6.8434    2.9820 C   0  0  0  0  0  0  0  0  0  0  0  0
    0.0950   -8.8404    3.2292 C   0  0  0  0  0  0  0  0  0  0  0  0
    0.0602  -10.1764    3.8231 C   0  0  0  0  0  0  0  0  0  0  0  0
    0.2248   -6.3830    2.0648 C   0  0  0  0  0  0  0  0  0  0  0  0
   -0.6745   -7.2322    1.6857 C   0  0  0  0  0  0  0  0  0  0  0  0
   -0.7374   -8.4992    2.1292 C   0  0  0  0  0  0  0  0  0  0  0  0
   -0.1792  -11.3045    3.0702 C   0  0  0  0  0  0  0  0  0  0  0  0
    0.7825  -12.3781    3.1611 C   0  0  0  0  0  0  0  0  0  0  0  0
    0.5397  -13.5313    2.5466 C   0  0  0  0  0  0  0  0  0  0  0  0
   -0.5883  -13.8064    2.0237 C   0  0  0  0  0  0  0  0  0  0  0  0
   -1.3879  -12.4459    2.1040 C   0  0  0  0  0  0  0  0  0  0  0  0
   -1.3012  -11.5010    2.5559 C   0  0  0  0  0  0  0  0  0  0  0  0
    0.4777   -4.9593    1.4518 C   0  0  0  0  0  0  0  0  0  0  0  0
    1.5508  -14.5390    2.6244 Cl  0  0  0  0  0  0  0  0  0  0  0  0
   -0.1737   -4.6836    0.3831 C   0  0  0  0  0  0  0  0  0  0  0  0
    1.3481   -4.1420    2.1727 C   0  0  0  0  0  0  0  0  0  0  0  0
   -0.1926   -3.2200    0.2246 C   0  0  0  0  0  0  0  0  0  0  0  0
  3  4  1  0
  4  8  1  0
  5 14  1  0
 10 15  1  0
 14 16  1  0
 14 17  1  0
 16 18  2  0
  8  9  2  0
  9 10  1  0
 10 11  2  0
 11 12  1  0
 12 13  2  0
  8 13  1  0
  1  2  2  0
  2  5  1  0
  5  6  2  0
  6  7  1  0
  3  7  2  0
  1  3  1  0
M  END

$$$$
No_3047-/export/home/yangzhenyu/potential_scad_32_flow//YTHDC2/2024-12-06-03-22-00/
     RDKit          3D

 19 20  0  0  1  0  0  0  0  0999 V2000
    1.1787   -8.0297    3.5154 C   0  0  0  0  0  0  0  0  0  0  0  0
    1.1048   -9.2215    3.2892 C   0  0  0  0  0  0  0  0  0  0  0  0
    1.3627  -10.1721    4.3044 C   0  0  0  0  0  0  0  0  0  0  0  0
    1.7354  -11.4730    3.9023 C   0  0  0  0  0  0  0  0  0  0  0  0
    1.6166  -11.5515    2.5159 C   0  0  0  0  0  0  0  0  0  0  0  0
    1.4172  -10.6242    1.6178 C   0  0  0  0  0  0  0  0  0  0  0  0
    1.2598   -9.4423    1.9811 C   0  0  0  0  0  0  0  0  0  0  0  0
    0.9744   -6.9065    2.9175 C   0  0  2  0  0  0  0  0  0  0  0  0
    1.1914   -7.2052    1.4248 C   0  0  0  0  0  0  0  0  0  0  0  0
    1.3358   -8.3886    1.0074 C   0  0  0  0  0  0  0  0  0  0  0  0
    1.4609   -8.6007   -0.2852 O   0  0  0  0  0  0  0  0  0  0  0  0
    1.8598  -13.0577    2.0708 C   0  0  0  0  0  0  0  0  0  0  0  0
    1.9844  -14.0826    2.9027 O   0  0  0  0  0  0  0  0  0  0  0  0
    1.7249  -13.4613    0.8792 O   0  0  0  0  0  0  0  0  0  0  0  0
    1.0306   -5.5680    3.2679 O   0  0  0  0  0  0  0  0  0  0  0  0
    1.2373   -6.0664    0.5918 O   0  0  0  0  0  0  0  0  0  0  0  0
    2.1443  -15.4202    2.4346 C   0  0  0  0  0  0  0  0  0  0  0  0
    1.1123  -16.2884    2.7430 C   0  0  0  0  0  0  0  0  0  0  0  0
    0.1336  -15.7622    3.4475 C   0  0  0  0  0  0  0  0  0  0  0  0
  1  2  1  0
  8  9  1  0
  7 10  1  0
  9 10  1  0
 10 11  2  0
  5 12  1  0
 12 13  1  0
 12 14  2  0
  8 15  1  1
  9 16  2  0
 13 17  1  0
 17 18  1  0
 18 19  1  0
  1  8  1  0
  2  3  2  0
  3  4  1  0
  4  5  2  0
  5  6  1  0
  6  7  2  0
  2  7  1  0
M  END

$$$$
No_3048-/export/home/yangzhenyu/potential_scad_32_flow//YTHDC2/2024-12-06-03-22-00/
     RDKit          3D

 20 21  0  0  0  0  0  0  0  0999 V2000
    1.1787   -8.0297    3.5154 C   0  0  0  0  0  0  0  0  0  0  0  0
    1.1048   -9.2215    3.2892 C   0  0  0  0  0  0  0  0  0  0  0  0
    1.2339   -9.7611    2.0189 C   0  0  0  0  0  0  0  0  0  0  0  0
    1.3583   -9.0036    0.9764 C   0  0  0  0  0  0  0  0  0  0  0  0
    1.5996   -7.6362    1.1311 C   0  0  0  0  0  0  0  0  0  0  0  0
    1.4830   -7.0928    2.3626 C   0  0  0  0  0  0  0  0  0  0  0  0
    1.5395   -5.7300    2.6182 C   0  0  0  0  0  0  0  0  0  0  0  0
    1.1775  -11.2233    1.8407 C   0  0  0  0  0  0  0  0  0  0  0  0
    0.5085  -11.9762    2.1989 C   0  0  0  0  0  0  0  0  0  0  0  0
    0.4247  -13.3704    2.0465 C   0  0  0  0  0  0  0  0  0  0  0  0
   -0.6059  -14.0773    1.8608 C   0  0  0  0  0  0  0  0  0  0  0  0
   -0.5437  -15.5485    1.8404 C   0  0  0  0  0  0  0  0  0  0  0  0
    0.7428  -16.1379    2.1583 C   0  0  0  0  0  0  0  0  0  0  0  0
    1.8608  -15.4332    2.4453 C   0  0  0  0  0  0  0  0  0  0  0  0
    1.7696  -14.0190    2.4364 C   0  0  0  0  0  0  0  0  0  0  0  0
    1.6738   -5.1834    3.8925 N   0  0  0  0  0  0  0  0  0  0  0  0
    1.4231   -4.8380    1.6354 O   0  0  0  0  0  0  0  0  0  0  0  0
    0.8519  -17.5239    2.2328 P   0  0  0  0  0  0  0  0  0  0  0  0
    2.2096  -17.8950    2.3308 O   0  0  0  0  0  0  0  0  0  0  0  0
    0.2146  -18.2355    3.4203 O   0  0  0  0  0  0  0  0  0  0  0  0
  6  7  1  0
  3  8  1  0
  8  9  2  3
  9 10  1  0
  7 16  1  0
  7 17  2  0
 13 18  1  0
 18 19  1  0
 18 20  1  0
  1  2  2  0
  2  3  1  0
  3  4  2  0
  4  5  1  0
  5  6  2  0
  1  6  1  0
 10 11  2  0
 11 12  1  0
 12 13  2  0
 13 14  1  0
 14 15  2  0
 10 15  1  0
M  END

$$$$
No_3049-/export/home/yangzhenyu/potential_scad_32_flow//YTHDC2/2024-12-06-03-22-00/
     RDKit          3D

 18 19  0  0  1  0  0  0  0  0999 V2000
    1.1787   -8.0297    3.5154 C   0  0  0  0  0  0  0  0  0  0  0  0
    1.0491   -6.8434    2.9820 C   0  0  0  0  0  0  0  0  0  0  0  0
    0.0950   -8.8404    3.2292 C   0  0  0  0  0  0  0  0  0  0  0  0
   -0.9173   -8.4596    2.5152 C   0  0  0  0  0  0  0  0  0  0  0  0
   -1.0331   -7.2162    2.0653 C   0  0  0  0  0  0  0  0  0  0  0  0
   -0.0105   -6.3168    2.3081 C   0  0  0  0  0  0  0  0  0  0  0  0
    0.1150   -4.9910    1.8495 C   0  0  0  0  0  0  0  0  0  0  0  0
   -0.5774   -4.1593    2.0596 O   0  0  0  0  0  0  0  0  0  0  0  0
    1.3665   -4.5425    1.2260 O   0  0  0  0  0  0  0  0  0  0  0  0
    0.1563  -10.2873    3.6555 C   0  0  2  0  0  0  0  0  0  0  0  0
    1.2117  -10.9366    4.1124 C   0  0  0  0  0  0  0  0  0  0  0  0
    1.7117  -11.8538    3.2561 C   0  0  0  0  0  0  0  0  0  0  0  0
    1.4804  -11.6557    1.9609 C   0  0  0  0  0  0  0  0  0  0  0  0
    0.5633  -11.9758    1.4963 C   0  0  1  0  0  0  0  0  0  0  0  0
   -0.7147  -11.0836    1.7282 C   0  0  0  0  0  0  0  0  0  0  0  0
   -1.0188  -10.7403    2.8502 C   0  0  0  0  0  0  0  0  0  0  0  0
    0.4606  -12.7885    0.4200 C   0  0  0  0  0  0  0  0  0  0  0  0
    1.2882  -13.8670    0.4591 C   0  0  0  0  0  0  0  0  0  0  0  0
  6  7  1  0
  7  8  2  0
  7  9  1  0
 10  3  1  6
 10 11  1  0
 11 12  1  0
 12 13  1  0
 13 14  1  0
 14 15  1  0
 10 16  1  0
 15 16  1  0
 14 17  1  6
 17 18  1  0
  1  2  2  0
  2  6  1  0
  5  6  2  0
  4  5  1  0
  3  4  2  0
  1  3  1  0
M  END

$$$$
No_3050-/export/home/yangzhenyu/potential_scad_32_flow//YTHDC2/2024-12-06-03-22-00/
     RDKit          3D

 19 20  0  0  1  0  0  0  0  0999 V2000
    1.1787   -8.0297    3.5154 C   0  0  0  0  0  0  0  0  0  0  0  0
    1.0491   -6.8434    2.9820 C   0  0  0  0  0  0  0  0  0  0  0  0
    1.9985   -8.9840    2.8958 C   0  0  2  0  0  0  0  0  0  0  0  0
    1.7297   -9.2108    1.6335 C   0  0  0  0  0  0  0  0  0  0  0  0
    1.7343   -8.0566    0.8408 C   0  0  1  0  0  0  0  0  0  0  0  0
    1.0269   -6.8892    1.4456 C   0  0  0  0  0  0  0  0  0  0  0  0
    2.4114   -7.8399   -0.2028 C   0  0  0  0  0  0  0  0  0  0  0  0
    2.3827  -10.1575    3.6636 C   0  0  0  0  0  0  0  0  0  0  0  0
    1.8579  -11.3287    3.6748 C   0  0  0  0  0  0  0  0  0  0  0  0
    0.6117  -11.4579    3.0765 C   0  0  0  0  0  0  0  0  0  0  0  0
   -0.4737  -10.7953    3.4415 C   0  0  0  0  0  0  0  0  0  0  0  0
   -1.5294  -11.0304    3.3453 C   0  0  0  0  0  0  0  0  0  0  0  0
   -1.6436  -12.3927    2.7460 C   0  0  0  0  0  0  0  0  0  0  0  0
   -0.7850  -13.1491    2.3417 C   0  0  0  0  0  0  0  0  0  0  0  0
    0.5111  -12.7740    2.6746 C   0  0  0  0  0  0  0  0  0  0  0  0
    1.5523  -13.5597    2.2468 C   0  0  2  0  0  0  0  0  0  0  0  0
    2.2904  -13.3353    1.1652 C   0  0  0  0  0  0  0  0  0  0  0  0
    1.8801  -14.7844    2.9431 C   0  0  0  0  0  0  0  0  0  0  0  0
    2.6277  -15.7717    2.4076 O   0  0  0  0  0  0  0  0  0  0  0  0
  1  2  1  0
  3  1  1  1
  3  4  1  0
  4  5  1  0
  2  6  1  0
  5  6  1  0
  5  7  1  1
  3  8  1  0
  8  9  2  3
  9 10  1  0
 15 16  1  0
 16 17  1  6
 16 18  1  0
 18 19  2  0
 10 11  2  0
 11 12  1  0
 12 13  2  0
 13 14  1  0
 14 15  2  0
 10 15  1  0
M  END

$$$$
No_3051-/export/home/yangzhenyu/potential_scad_32_flow//YTHDC2/2024-12-06-03-22-00/
     RDKit          3D

 19 20  0  0  0  0  0  0  0  0999 V2000
    1.1787   -8.0297    3.5154 C   0  0  0  0  0  0  0  0  0  0  0  0
    1.0491   -6.8434    2.9820 C   0  0  0  0  0  0  0  0  0  0  0  0
    0.0950   -8.8404    3.2292 C   0  0  0  0  0  0  0  0  0  0  0  0
   -0.9173   -8.4596    2.5152 C   0  0  0  0  0  0  0  0  0  0  0  0
   -1.0331   -7.2162    2.0653 C   0  0  0  0  0  0  0  0  0  0  0  0
   -0.0105   -6.3168    2.3081 C   0  0  0  0  0  0  0  0  0  0  0  0
    0.0485   -4.9783    1.8782 C   0  0  0  0  0  0  0  0  0  0  0  0
    0.9625   -4.1072    2.3252 O   0  0  0  0  0  0  0  0  0  0  0  0
   -0.5912   -4.4986    0.8553 O   0  0  0  0  0  0  0  0  0  0  0  0
    0.1804  -10.2883    3.6536 C   0  0  0  0  0  0  0  0  0  0  0  0
    1.2306  -10.9334    4.1043 C   0  0  0  0  0  0  0  0  0  0  0  0
    1.1657  -12.3211    4.0189 C   0  0  0  0  0  0  0  0  0  0  0  0
    0.0813  -12.9354    3.6404 C   0  0  0  0  0  0  0  0  0  0  0  0
   -0.9297  -12.3451    3.1767 C   0  0  0  0  0  0  0  0  0  0  0  0
   -0.9532  -10.9534    3.1952 C   0  0  0  0  0  0  0  0  0  0  0  0
    0.1862  -14.5399    3.6459 O   0  0  0  0  0  0  0  0  0  0  0  0
   -0.5722  -15.2834    2.9827 C   0  0  0  0  0  0  0  0  0  0  0  0
   -1.1739  -16.0471    3.6627 C   0  0  0  0  0  0  0  0  0  0  0  0
   -0.3597  -16.9523    4.4645 I   0  0  0  0  0  0  0  0  0  0  0  0
  6  7  1  0
  7  8  2  0
  7  9  1  0
  3 10  1  0
 13 16  1  0
 16 17  1  0
 17 18  1  0
 18 19  1  0
  1  2  2  0
  2  6  1  0
  5  6  2  0
  4  5  1  0
  3  4  2  0
  1  3  1  0
 10 11  2  0
 11 12  1  0
 12 13  2  0
 13 14  1  0
 14 15  2  0
 10 15  1  0
M  END

$$$$
No_3052-/export/home/yangzhenyu/potential_scad_32_flow//YTHDC2/2024-12-06-03-22-00/
     RDKit          3D

 19 21  0  0  1  0  0  0  0  0999 V2000
    1.1787   -8.0297    3.5154 N   0  0  0  0  0  0  0  0  0  0  0  0
    1.0818   -9.0751    3.2053 C   0  0  0  0  0  0  0  0  0  0  0  0
    1.5216  -10.1164    3.9747 C   0  0  0  0  0  0  0  0  0  0  0  0
    1.4420  -11.4363    3.6461 C   0  0  0  0  0  0  0  0  0  0  0  0
    0.5969  -11.7648    2.6785 C   0  0  0  0  0  0  0  0  0  0  0  0
    0.0096  -10.8332    1.9506 C   0  0  0  0  0  0  0  0  0  0  0  0
    0.3359   -9.5186    2.1388 C   0  0  0  0  0  0  0  0  0  0  0  0
    0.8819   -6.9011    2.6487 C   0  0  1  0  0  0  0  0  0  0  0  0
    1.2415   -5.5456    2.9609 N   0  0  0  0  0  0  0  0  0  0  0  0
    0.6135   -7.1221    1.3080 N   0  0  0  0  0  0  0  0  0  0  0  0
    0.2198   -8.4528    1.0672 C   0  0  0  0  0  0  0  0  0  0  0  0
   -0.2296   -8.7420   -0.1569 O   0  0  0  0  0  0  0  0  0  0  0  0
    0.3224  -13.1814    2.4148 C   0  0  0  0  0  0  0  0  0  0  0  0
   -0.9342  -13.5900    2.2502 C   0  0  0  0  0  0  0  0  0  0  0  0
    1.4765  -14.0958    2.3294 C   0  0  0  0  0  0  0  0  0  0  0  0
    1.4629  -15.3591    2.6497 C   0  0  0  0  0  0  0  0  0  0  0  0
    0.1728  -15.8343    3.0186 C   0  0  0  0  0  0  0  0  0  0  0  0
   -0.9472  -15.0804    2.8245 C   0  0  0  0  0  0  0  0  0  0  0  0
    0.0403  -17.2238    3.2046 O   0  0  0  0  0  0  0  0  0  0  0  0
  1  2  1  0
  8  9  1  6
  8 10  1  0
  7 11  1  0
 10 11  1  0
 11 12  2  0
  5 13  1  0
 17 19  1  0
  1  8  1  0
  2  3  2  0
  3  4  1  0
  4  5  2  0
  5  6  1  0
  6  7  2  0
  2  7  1  0
 13 14  2  0
 14 18  1  0
 17 18  2  0
 16 17  1  0
 15 16  2  0
 13 15  1  0
M  END

$$$$
No_3053-/export/home/yangzhenyu/potential_scad_32_flow//YTHDC2/2024-12-06-03-22-00/
     RDKit          3D

 18 18  0  0  1  0  0  0  0  0999 V2000
    1.1787   -8.0297    3.5154 C   0  0  0  0  0  0  0  0  0  0  0  0
    1.0491   -6.8434    2.9820 C   0  0  0  0  0  0  0  0  0  0  0  0
    0.9905   -9.0774    2.6527 C   0  0  0  0  0  0  0  0  0  0  0  0
    0.7897   -8.9519    1.3691 C   0  0  0  0  0  0  0  0  0  0  0  0
    0.7018   -7.7198    0.7892 C   0  0  0  0  0  0  0  0  0  0  0  0
    0.8918   -6.5957    1.6117 C   0  0  0  0  0  0  0  0  0  0  0  0
    1.0998  -10.4710    3.2437 C   0  0  1  0  0  0  0  0  0  0  0  0
    2.1917  -10.8879    3.7399 N   0  0  0  0  0  0  0  0  0  0  0  0
    0.8583   -5.2458    1.2490 C   0  0  0  0  0  0  0  0  0  0  0  0
    0.0777  -11.2490    3.3180 C   0  0  0  0  0  0  0  0  0  0  0  0
   -1.1096  -10.6304    3.8026 C   0  0  0  0  0  0  0  0  0  0  0  0
   -2.3055  -11.2134    3.9248 C   0  0  0  0  0  0  0  0  0  0  0  0
   -3.0785  -11.2032    3.2756 C   0  0  0  0  0  0  0  0  0  0  0  0
   -4.3832  -11.9758    3.4612 C   0  0  0  0  0  0  0  0  0  0  0  0
   -0.2201   -4.7283    0.7713 C   0  0  0  0  0  0  0  0  0  0  0  0
   -1.4339   -5.5597    0.8370 C   0  0  0  0  0  0  0  0  0  0  0  0
   -2.0298   -5.7165   -0.3629 C   0  0  0  0  0  0  0  0  0  0  0  0
   -3.1879   -6.5991   -0.2436 O   0  0  0  0  0  0  0  0  0  0  0  0
  3  7  1  0
  7  8  1  1
  6  9  1  0
  7 10  1  0
 10 11  2  3
 11 12  1  0
 12 13  2  3
 13 14  1  0
  9 15  2  3
 15 16  1  0
 16 17  2  3
 17 18  1  0
  1  2  2  0
  2  6  1  0
  5  6  2  0
  4  5  1  0
  3  4  2  0
  1  3  1  0
M  END

$$$$
No_3054-/export/home/yangzhenyu/potential_scad_32_flow//YTHDC2/2024-12-06-03-22-00/
     RDKit          3D

 19 20  0  0  0  0  0  0  0  0999 V2000
    1.1787   -8.0297    3.5154 C   0  0  0  0  0  0  0  0  0  0  0  0
    1.1048   -9.2215    3.2892 C   0  0  0  0  0  0  0  0  0  0  0  0
    1.3627  -10.1721    4.3044 C   0  0  0  0  0  0  0  0  0  0  0  0
    1.0682  -11.5187    4.0618 C   0  0  0  0  0  0  0  0  0  0  0  0
    0.6332  -11.9655    2.9682 C   0  0  0  0  0  0  0  0  0  0  0  0
    0.4776  -11.1308    1.9203 C   0  0  0  0  0  0  0  0  0  0  0  0
    0.7470   -9.8274    2.0368 C   0  0  0  0  0  0  0  0  0  0  0  0
    1.0387   -7.0301    2.5175 C   0  0  0  0  0  0  0  0  0  0  0  0
    0.9130   -7.5288    1.2013 C   0  0  0  0  0  0  0  0  0  0  0  0
    0.7893   -8.7980    0.9542 C   0  0  0  0  0  0  0  0  0  0  0  0
    0.5241   -9.2578   -0.2817 C   0  0  0  0  0  0  0  0  0  0  0  0
    1.2450   -9.2169   -1.2770 C   0  0  0  0  0  0  0  0  0  0  0  0
    2.5688   -9.5900   -0.8971 O   0  0  0  0  0  0  0  0  0  0  0  0
    1.0658   -8.9296   -2.3598 O   0  0  0  0  0  0  0  0  0  0  0  0
    0.5172  -13.3884    2.7345 C   0  0  0  0  0  0  0  0  0  0  0  0
    1.4889  -14.3314    3.2526 C   0  0  0  0  0  0  0  0  0  0  0  0
    1.5861  -15.5605    2.6432 C   0  0  0  0  0  0  0  0  0  0  0  0
    2.6466  -15.8156    1.9354 C   0  0  0  0  0  0  0  0  0  0  0  0
    3.5988  -15.0195    1.7679 N   0  0  0  0  0  0  0  0  0  0  0  0
 10 11  1  0
 11 12  1  0
 12 13  1  0
 12 14  2  0
  5 15  1  0
 15 16  1  0
 16 17  1  0
 17 18  1  0
 18 19  1  0
  2  3  1  0
  3  4  2  0
  4  5  1  0
  5  6  2  0
  6  7  1  0
  1  2  2  0
  2  7  1  0
  7 10  2  0
  9 10  1  0
  8  9  2  0
  1  8  1  0
M  END

$$$$
No_3055-/export/home/yangzhenyu/potential_scad_32_flow//YTHDC2/2024-12-06-03-22-00/
     RDKit          3D

 18 19  0  0  1  0  0  0  0  0999 V2000
    1.1787   -8.0297    3.5154 C   0  0  0  0  0  0  0  0  0  0  0  0
    1.1048   -9.2215    3.2892 C   0  0  0  0  0  0  0  0  0  0  0  0
    1.2339   -9.7611    2.0189 C   0  0  0  0  0  0  0  0  0  0  0  0
    1.3583   -9.0036    0.9764 C   0  0  0  0  0  0  0  0  0  0  0  0
    1.5996   -7.6362    1.1311 C   0  0  0  0  0  0  0  0  0  0  0  0
    1.4830   -7.0928    2.3626 C   0  0  0  0  0  0  0  0  0  0  0  0
    1.1008  -11.2372    1.8542 C   0  0  1  0  0  0  0  0  0  0  0  0
    0.4812  -11.6084    0.6459 C   0  0  0  0  0  0  0  0  0  0  0  0
    0.5134  -13.0269    0.4830 C   0  0  0  0  0  0  0  0  0  0  0  0
    1.2057  -13.8685    1.2734 C   0  0  0  0  0  0  0  0  0  0  0  0
    1.9819  -13.3990    2.3594 C   0  0  0  0  0  0  0  0  0  0  0  0
    1.8610  -12.0988    2.6716 C   0  0  0  0  0  0  0  0  0  0  0  0
    2.4163  -11.5839    3.7861 O   0  0  0  0  0  0  0  0  0  0  0  0
    1.5684   -5.4491    2.6994 C   0  0  0  0  0  0  0  0  0  0  0  0
    1.1985   -4.8007    1.5981 C   0  0  0  0  0  0  0  0  0  0  0  0
    1.4238   -3.3883    1.6450 C   0  0  0  0  0  0  0  0  0  0  0  0
    1.9670   -2.8461    2.8097 C   0  0  0  0  0  0  0  0  0  0  0  0
    2.1721   -3.6013    3.9124 C   0  0  0  0  0  0  0  0  0  0  0  0
  7  3  1  6
  7  8  1  0
  9 10  1  0
  7 12  1  0
 11 12  1  0
 12 13  2  0
  6 14  1  0
 14 15  1  0
 15 16  2  3
 16 17  1  0
 17 18  2  0
  8  9  1  0
 10 11  1  0
  1  2  2  0
  2  3  1  0
  3  4  2  0
  4  5  1  0
  5  6  2  0
  1  6  1  0
M  END

$$$$
No_3056-/export/home/yangzhenyu/potential_scad_32_flow//YTHDC2/2024-12-06-03-22-00/
     RDKit          3D

 18 19  0  0  1  0  0  0  0  0999 V2000
    1.1787   -8.0297    3.5154 C   0  0  0  0  0  0  0  0  0  0  0  0
    1.0491   -6.8434    2.9820 C   0  0  0  0  0  0  0  0  0  0  0  0
    0.0950   -8.8404    3.2292 C   0  0  0  0  0  0  0  0  0  0  0  0
   -0.9173   -8.4596    2.5152 C   0  0  0  0  0  0  0  0  0  0  0  0
   -1.0331   -7.2162    2.0653 C   0  0  0  0  0  0  0  0  0  0  0  0
   -0.0105   -6.3168    2.3081 C   0  0  0  0  0  0  0  0  0  0  0  0
    0.1465  -10.2446    3.6981 C   0  0  0  0  0  0  0  0  0  0  0  0
   -1.0337  -10.8619    3.9439 C   0  0  0  0  0  0  0  0  0  0  0  0
   -2.1702  -10.4673    3.2991 C   0  0  0  0  0  0  0  0  0  0  0  0
   -2.1358   -9.2084    2.5791 C   0  0  0  0  0  0  0  0  0  0  0  0
   -3.2931  -11.2079    3.0734 C   0  0  0  0  0  0  0  0  0  0  0  0
   -0.0436   -4.9790    1.8066 C   0  0  2  0  0  0  0  0  0  0  0  0
   -0.4534   -4.7419    0.5788 N   0  0  0  0  0  0  0  0  0  0  0  0
    0.4416   -3.9921    2.5875 C   0  0  0  0  0  0  0  0  0  0  0  0
    0.9042   -3.0712    2.4614 C   0  0  0  0  0  0  0  0  0  0  0  0
    1.2139   -2.1064    3.5745 C   0  0  0  0  0  0  0  0  0  0  0  0
   -3.0658  -12.5304    2.7296 C   0  0  0  0  0  0  0  0  0  0  0  0
   -4.1660  -13.4746    2.9437 C   0  0  0  0  0  0  0  0  0  0  0  0
  9 11  1  0
  6 12  1  0
 12 13  1  6
 12 14  1  0
 14 15  2  3
 15 16  1  0
 11 17  2  3
 17 18  1  0
  4 10  2  0
  9 10  1  0
  8  9  2  0
  7  8  1  0
  3  7  2  0
  1  2  2  0
  2  6  1  0
  5  6  2  0
  4  5  1  0
  3  4  1  0
  1  3  1  0
M  END

$$$$
No_3057-/export/home/yangzhenyu/potential_scad_32_flow//YTHDC2/2024-12-06-03-22-00/
     RDKit          3D

 18 19  0  0  1  0  0  0  0  0999 V2000
    1.1787   -8.0297    3.5154 C   0  0  0  0  0  0  0  0  0  0  0  0
    1.1048   -9.2215    3.2892 C   0  0  0  0  0  0  0  0  0  0  0  0
    1.3627  -10.1721    4.3044 C   0  0  0  0  0  0  0  0  0  0  0  0
    1.0682  -11.5187    4.0618 C   0  0  0  0  0  0  0  0  0  0  0  0
    0.6332  -11.9655    2.9682 C   0  0  0  0  0  0  0  0  0  0  0  0
    0.4776  -11.1308    1.9203 C   0  0  0  0  0  0  0  0  0  0  0  0
    0.7470   -9.8274    2.0368 C   0  0  0  0  0  0  0  0  0  0  0  0
    0.5535   -7.1314    2.6861 C   0  0  2  0  0  0  0  0  0  0  0  0
    0.2950   -7.6000    1.3275 C   0  0  0  0  0  0  0  0  0  0  0  0
    0.2692   -8.8631    1.0973 C   0  0  0  0  0  0  0  0  0  0  0  0
   -0.0069   -6.7080    0.3888 O   0  0  0  0  0  0  0  0  0  0  0  0
    0.4919  -13.3974    2.7286 C   0  0  0  0  0  0  0  0  0  0  0  0
    1.3232  -14.3394    3.2226 Cl  0  0  0  0  0  0  0  0  0  0  0  0
    0.0151   -9.2850   -0.1878 O   0  0  0  0  0  0  0  0  0  0  0  0
    0.8170   -5.6375    2.8436 O   0  0  0  0  0  0  0  0  0  0  0  0
   -0.5291  -13.7715    1.9499 O   0  0  0  0  0  0  0  0  0  0  0  0
    2.0160   -5.0332    3.1799 C   0  0  0  0  0  0  0  0  0  0  0  0
    1.5404   -3.5950    3.4390 C   0  0  0  0  0  0  0  0  0  0  0  0
  1  2  1  0
  8  9  1  0
  7 10  1  0
  9 10  1  0
  9 11  2  0
  5 12  1  0
 12 13  1  0
 10 14  2  0
  8 15  1  6
 12 16  2  0
 15 17  1  0
 17 18  1  0
  1  8  1  0
  2  3  2  0
  3  4  1  0
  4  5  2  0
  5  6  1  0
  6  7  2  0
  2  7  1  0
M  END

$$$$
No_3058-/export/home/yangzhenyu/potential_scad_32_flow//YTHDC2/2024-12-06-03-22-00/
     RDKit          3D

 17 19  0  0  1  0  0  0  0  0999 V2000
    1.1787   -8.0297    3.5154 C   0  0  0  0  0  0  0  0  0  0  0  0
    1.0491   -6.8434    2.9820 C   0  0  1  0  0  0  0  0  0  0  0  0
    0.9905   -9.0774    2.6527 C   0  0  1  0  0  0  0  0  0  0  0  0
    0.7897   -8.9519    1.3691 C   0  0  0  0  0  0  0  0  0  0  0  0
    0.7018   -7.7198    0.7892 C   0  0  0  0  0  0  0  0  0  0  0  0
    1.4312   -5.5794    3.7443 C   0  0  0  0  0  0  0  0  0  0  0  0
    0.9426   -6.6664    1.5322 C   0  0  0  0  0  0  0  0  0  0  0  0
    0.9192   -5.4040    1.0793 O   0  0  0  0  0  0  0  0  0  0  0  0
    1.1057  -10.5084    3.1751 C   0  0  2  0  0  0  0  0  0  0  0  0
    2.2650  -10.9391    3.6172 C   0  0  0  0  0  0  0  0  0  0  0  0
    2.2287  -12.2853    4.0878 N   0  0  0  0  0  0  0  0  0  0  0  0
    1.0823  -12.7391    3.3785 C   0  0  0  0  0  0  0  0  0  0  0  0
    0.4503  -11.5756    2.9288 C   0  0  0  0  0  0  0  0  0  0  0  0
    0.5480  -13.9374    3.5431 C   0  0  0  0  0  0  0  0  0  0  0  0
   -0.5082  -14.3719    2.8675 C   0  0  0  0  0  0  0  0  0  0  0  0
   -1.2631  -13.3238    2.2969 C   0  0  0  0  0  0  0  0  0  0  0  0
   -0.7735  -12.0383    2.3603 C   0  0  0  0  0  0  0  0  0  0  0  0
  1  2  1  0
  3  4  1  6
  2  6  1  6
  2  7  1  0
  5  7  1  0
  7  8  2  0
  3  9  1  0
  9 10  1  6
 10 11  2  0
 11 12  1  0
  9 13  1  0
  1  3  1  0
  4  5  1  0
 12 13  2  0
 13 17  1  0
 16 17  2  0
 15 16  1  0
 14 15  2  0
 12 14  1  0
M  END

$$$$
No_3059-/export/home/yangzhenyu/potential_scad_32_flow//YTHDC2/2024-12-06-03-22-00/
     RDKit          3D

 17 18  0  0  1  0  0  0  0  0999 V2000
    1.1787   -8.0297    3.5154 C   0  0  0  0  0  0  0  0  0  0  0  0
    1.1048   -9.2215    3.2892 C   0  0  0  0  0  0  0  0  0  0  0  0
    1.3627  -10.1721    4.3044 C   0  0  0  0  0  0  0  0  0  0  0  0
    1.0682  -11.5187    4.0618 C   0  0  0  0  0  0  0  0  0  0  0  0
    0.6332  -11.9655    2.9682 C   0  0  0  0  0  0  0  0  0  0  0  0
    0.4776  -11.1308    1.9203 C   0  0  0  0  0  0  0  0  0  0  0  0
    0.7470   -9.8274    2.0368 C   0  0  0  0  0  0  0  0  0  0  0  0
    1.0387   -7.0301    2.5175 C   0  0  0  0  0  0  0  0  0  0  0  0
    0.9130   -7.5288    1.2013 C   0  0  0  0  0  0  0  0  0  0  0  0
    0.7893   -8.7979    0.9542 C   0  0  0  0  0  0  0  0  0  0  0  0
    0.5241   -9.2578   -0.2817 C   0  0  0  0  0  0  0  0  0  0  0  0
   -0.7560   -9.7391   -0.6285 F   0  0  0  0  0  0  0  0  0  0  0  0
    1.1543   -8.9599   -1.2035 F   0  0  0  0  0  0  0  0  0  0  0  0
    0.5038  -13.3745    2.6985 C   0  0  2  0  0  0  0  0  0  0  0  0
   -0.6541  -13.9836    2.4051 N   0  0  0  0  0  0  0  0  0  0  0  0
    1.6124  -14.2497    2.8709 C   0  0  0  0  0  0  0  0  0  0  0  0
    1.3767  -15.6306    2.6559 C   0  0  0  0  0  0  0  0  0  0  0  0
 10 11  1  0
 11 12  1  0
 11 13  1  0
  5 14  1  0
 14 15  1  1
 14 16  1  0
 16 17  2  0
  2  3  1  0
  3  4  2  0
  4  5  1  0
  5  6  2  0
  6  7  1  0
  1  2  2  0
  2  7  1  0
  7 10  2  0
  9 10  1  0
  8  9  2  0
  1  8  1  0
M  END

$$$$
No_3060-/export/home/yangzhenyu/potential_scad_32_flow//YTHDC2/2024-12-06-03-22-00/
     RDKit          3D

 18 18  0  0  0  0  0  0  0  0999 V2000
    1.1787   -8.0297    3.5154 C   0  0  0  0  0  0  0  0  0  0  0  0
    1.0491   -6.8434    2.9820 C   0  0  0  0  0  0  0  0  0  0  0  0
    0.9905   -9.0774    2.6527 C   0  0  0  0  0  0  0  0  0  0  0  0
    0.7897   -8.9519    1.3691 C   0  0  0  0  0  0  0  0  0  0  0  0
    0.7018   -7.7198    0.7892 C   0  0  0  0  0  0  0  0  0  0  0  0
    0.8918   -6.5957    1.6117 C   0  0  0  0  0  0  0  0  0  0  0  0
    1.0711  -10.4814    3.2282 C   0  0  0  0  0  0  0  0  0  0  0  0
    1.1227  -11.5770    2.4616 C   0  0  0  0  0  0  0  0  0  0  0  0
    1.1500  -12.9052    3.0782 C   0  0  0  0  0  0  0  0  0  0  0  0
    0.6702  -13.9897    2.4998 C   0  0  0  0  0  0  0  0  0  0  0  0
    1.0009  -15.3315    3.2443 O   0  0  0  0  0  0  0  0  0  0  0  0
    0.8418   -5.2744    1.1554 O   0  0  0  0  0  0  0  0  0  0  0  0
    0.4506  -16.4798    3.0796 C   0  0  0  0  0  0  0  0  0  0  0  0
    0.0410  -14.2240    1.4578 C   0  0  0  0  0  0  0  0  0  0  0  0
   -0.7468  -13.2860    0.9020 C   0  0  0  0  0  0  0  0  0  0  0  0
   -1.6884  -12.6712    1.3818 C   0  0  0  0  0  0  0  0  0  0  0  0
   -2.0918  -13.0324    2.8280 C   0  0  0  0  0  0  0  0  0  0  0  0
   -3.0682  -12.1361    3.3651 C   0  0  0  0  0  0  0  0  0  0  0  0
  3  7  1  0
  7  8  2  3
  8  9  1  0
  9 10  1  0
 10 11  1  0
  6 12  1  0
 11 13  1  0
 10 14  1  0
 14 15  1  0
 15 16  2  3
 16 17  1  0
 17 18  2  0
  1  2  2  0
  2  6  1  0
  5  6  2  0
  4  5  1  0
  3  4  2  0
  1  3  1  0
M  END

$$$$
No_3061-/export/home/yangzhenyu/potential_scad_32_flow//YTHDC2/2024-12-06-03-22-00/
     RDKit          3D

 18 19  0  0  0  0  0  0  0  0999 V2000
    1.1787   -8.0297    3.5154 N   0  0  0  0  0  0  0  0  0  0  0  0
    1.0818   -9.0751    3.2053 C   0  0  0  0  0  0  0  0  0  0  0  0
    0.7576   -9.3725    1.9159 C   0  0  0  0  0  0  0  0  0  0  0  0
    0.7445  -10.8746    1.6491 C   0  0  0  0  0  0  0  0  0  0  0  0
    0.9910  -11.7526    2.6067 C   0  0  0  0  0  0  0  0  0  0  0  0
    1.4405  -11.4331    3.8064 C   0  0  0  0  0  0  0  0  0  0  0  0
    1.4304  -10.0463    4.1669 C   0  0  0  0  0  0  0  0  0  0  0  0
    1.1410   -6.8244    2.7961 C   0  0  0  0  0  0  0  0  0  0  0  0
    1.2730   -7.1327    1.3540 N   0  0  0  0  0  0  0  0  0  0  0  0
    1.0846   -8.3821    0.9395 C   0  0  0  0  0  0  0  0  0  0  0  0
    0.9246   -8.5992   -0.3753 O   0  0  0  0  0  0  0  0  0  0  0  0
    0.8882  -13.3430    2.3062 C   0  0  0  0  0  0  0  0  0  0  0  0
   -0.3425  -13.7003    2.0598 C   0  0  0  0  0  0  0  0  0  0  0  0
    2.0817  -13.9897    2.3869 C   0  0  0  0  0  0  0  0  0  0  0  0
   -0.4081  -15.0996    1.8815 C   0  0  0  0  0  0  0  0  0  0  0  0
   -1.6016  -15.8001    1.7104 C   0  0  0  0  0  0  0  0  0  0  0  0
   -2.6092  -15.0923    1.4980 C   0  0  0  0  0  0  0  0  0  0  0  0
   -3.8612  -15.8379    1.5171 C   0  0  0  0  0  0  0  0  0  0  0  0
  1  2  1  0
  8  9  1  0
  3 10  1  0
  9 10  1  0
 10 11  2  0
  5 12  1  0
 12 13  2  3
 12 14  1  0
 13 15  1  0
 15 16  1  0
 16 17  2  3
 17 18  1  0
  1  8  1  0
  2  7  2  0
  6  7  1  0
  5  6  2  0
  4  5  1  0
  3  4  2  0
  2  3  1  0
M  END

$$$$
No_3062-/export/home/yangzhenyu/potential_scad_32_flow//YTHDC2/2024-12-06-03-22-00/
     RDKit          3D

 19 20  0  0  0  0  0  0  0  0999 V2000
    1.1787   -8.0297    3.5154 N   0  0  0  0  0  0  0  0  0  0  0  0
    0.8669   -7.0905    2.8589 C   0  0  0  0  0  0  0  0  0  0  0  0
    1.0447   -7.3244    1.4123 C   0  0  0  0  0  0  0  0  0  0  0  0
    1.3746   -8.4389    1.0864 C   0  0  0  0  0  0  0  0  0  0  0  0
    1.8493   -9.4093    1.8124 C   0  0  0  0  0  0  0  0  0  0  0  0
    1.7421   -9.2119    3.1541 C   0  0  0  0  0  0  0  0  0  0  0  0
    2.0608  -10.3132    4.0586 C   0  0  0  0  0  0  0  0  0  0  0  0
    1.3103  -11.3806    4.2606 C   0  0  0  0  0  0  0  0  0  0  0  0
    0.7667  -11.9139    3.1110 C   0  0  0  0  0  0  0  0  0  0  0  0
    0.2009  -12.7982    2.8845 N   0  0  0  0  0  0  0  0  0  0  0  0
   -0.3805  -13.1710    1.8206 C   0  0  0  0  0  0  0  0  0  0  0  0
    0.0845  -12.0720    0.9133 S   0  0  0  0  0  0  0  0  0  0  0  0
    0.8815  -11.2192    1.9721 N   0  0  0  0  0  0  0  0  0  0  0  0
   -0.9785  -11.1901    0.2920 O   0  0  0  0  0  0  0  0  0  0  0  0
    1.6060   -8.5789   -0.4140 C   0  0  0  0  0  0  0  0  0  0  0  0
    2.8567   -8.9047   -0.8691 O   0  0  0  0  0  0  0  0  0  0  0  0
    0.7648   -8.4567   -1.3672 N   0  0  0  0  0  0  0  0  0  0  0  0
    0.9801  -12.6021   -0.1601 O   0  0  0  0  0  0  0  0  0  0  0  0
   -1.0771  -14.3079    1.4143 C   0  0  0  0  0  0  0  0  0  0  0  0
  6  7  1  0
  7  8  1  0
  8  9  1  0
  9 10  1  0
 10 11  2  0
 11 12  1  0
  9 13  1  0
 12 13  1  0
 12 14  2  0
  4 15  1  0
 15 16  2  0
 15 17  1  0
 12 18  2  0
 11 19  1  0
  1  2  2  0
  2  3  1  0
  3  4  2  0
  4  5  1  0
  5  6  2  0
  1  6  1  0
M  END

$$$$
No_3063-/export/home/yangzhenyu/potential_scad_32_flow//YTHDC2/2024-12-06-03-22-00/
     RDKit          3D

 19 19  0  0  1  0  0  0  0  0999 V2000
    1.1787   -8.0297    3.5154 C   0  0  0  0  0  0  0  0  0  0  0  0
    1.0491   -6.8434    2.9820 C   0  0  0  0  0  0  0  0  0  0  0  0
    1.9985   -8.9840    2.8958 C   0  0  0  0  0  0  0  0  0  0  0  0
    1.9135  -10.3404    3.6266 C   0  0  2  0  0  0  0  0  0  0  0  0
    2.2847  -10.5440    4.7936 C   0  0  0  0  0  0  0  0  0  0  0  0
    1.7595   -5.7666    3.2682 C   0  0  0  0  0  0  0  0  0  0  0  0
    1.3487   -4.6007    2.5276 C   0  0  0  0  0  0  0  0  0  0  0  0
    0.9960   -3.5239    3.1790 C   0  0  0  0  0  0  0  0  0  0  0  0
    2.3755  -11.3373    2.5848 C   0  0  0  0  0  0  0  0  0  0  0  0
    2.0247  -10.9684    1.1872 C   0  0  0  0  0  0  0  0  0  0  0  0
    2.5775  -10.0219    0.5148 O   0  0  0  0  0  0  0  0  0  0  0  0
    0.8588  -11.4982    0.7078 N   0  0  0  0  0  0  0  0  0  0  0  0
    0.2427  -12.5706    1.3934 C   0  0  1  0  0  0  0  0  0  0  0  0
    0.8438  -13.8593    1.1137 C   0  0  0  0  0  0  0  0  0  0  0  0
    0.4523  -14.9129    1.7488 C   0  0  0  0  0  0  0  0  0  0  0  0
   -0.5477  -14.7724    2.7050 C   0  0  0  0  0  0  0  0  0  0  0  0
   -1.1284  -13.5585    2.9408 C   0  0  0  0  0  0  0  0  0  0  0  0
   -0.6575  -12.4202    2.2713 C   0  0  0  0  0  0  0  0  0  0  0  0
   -1.1985  -11.1449    2.6395 O   0  0  0  0  0  0  0  0  0  0  0  0
  1  2  1  0
  1  3  1  0
  3  4  1  0
  4  5  1  1
  2  6  1  0
  6  7  1  0
  7  8  1  0
  4  9  1  0
  9 10  1  0
 10 11  2  0
 10 12  1  0
 13 12  1  1
 13 14  1  0
 15 16  1  0
 13 18  1  0
 17 18  1  0
 18 19  2  0
 14 15  1  0
 16 17  1  0
M  END

$$$$
No_3064-/export/home/yangzhenyu/potential_scad_32_flow//YTHDC2/2024-12-06-03-22-00/
     RDKit          3D

 18 19  0  0  0  0  0  0  0  0999 V2000
    1.1787   -8.0297    3.5154 C   0  0  0  0  0  0  0  0  0  0  0  0
    1.1048   -9.2215    3.2892 C   0  0  0  0  0  0  0  0  0  0  0  0
    1.3627  -10.1721    4.3044 C   0  0  0  0  0  0  0  0  0  0  0  0
    1.7354  -11.4730    3.9023 C   0  0  0  0  0  0  0  0  0  0  0  0
    1.8080  -11.8127    2.7216 C   0  0  0  0  0  0  0  0  0  0  0  0
    1.5854  -11.0021    1.7249 C   0  0  0  0  0  0  0  0  0  0  0  0
    1.3573   -9.7389    1.9287 C   0  0  0  0  0  0  0  0  0  0  0  0
    1.1102   -8.8712    0.9017 C   0  0  0  0  0  0  0  0  0  0  0  0
    0.5299   -7.6926    1.0325 C   0  0  0  0  0  0  0  0  0  0  0  0
    0.7526   -7.0802    2.3301 C   0  0  0  0  0  0  0  0  0  0  0  0
    2.0528  -13.2563    2.4302 C   0  0  0  0  0  0  0  0  0  0  0  0
    1.8212  -14.1942    3.3145 N   0  0  0  0  0  0  0  0  0  0  0  0
    2.5427  -13.5974    1.2539 O   0  0  0  0  0  0  0  0  0  0  0  0
    0.5879   -5.7150    2.5494 C   0  0  0  0  0  0  0  0  0  0  0  0
   -0.5026   -5.0997    2.1345 O   0  0  0  0  0  0  0  0  0  0  0  0
    1.3006   -4.9743    3.4158 I   0  0  0  0  0  0  0  0  0  0  0  0
    1.8819  -15.5385    3.0448 C   0  0  0  0  0  0  0  0  0  0  0  0
    0.8761  -16.3997    3.5290 C   0  0  0  0  0  0  0  0  0  0  0  0
  5 11  1  0
 11 12  1  0
 11 13  2  0
 10 14  1  0
 14 15  2  0
 14 16  1  0
 12 17  1  0
 17 18  1  0
  1  2  2  0
  7  8  2  0
  8  9  1  0
  9 10  2  0
  1 10  1  0
  2  3  1  0
  3  4  2  0
  4  5  1  0
  5  6  2  0
  6  7  1  0
  2  7  1  0
M  END

$$$$
No_3065-/export/home/yangzhenyu/potential_scad_32_flow//YTHDC2/2024-12-06-03-22-00/
     RDKit          3D

 17 18  0  0  1  0  0  0  0  0999 V2000
    1.1787   -8.0297    3.5154 C   0  0  0  0  0  0  0  0  0  0  0  0
    1.1048   -9.2215    3.2892 C   0  0  0  0  0  0  0  0  0  0  0  0
    1.2339   -9.7611    2.0189 C   0  0  0  0  0  0  0  0  0  0  0  0
    1.1954  -11.2312    1.8661 C   0  0  1  0  0  0  0  0  0  0  0  0
    1.5546  -12.1691    2.7931 C   0  0  0  0  0  0  0  0  0  0  0  0
    0.9527   -7.0669    2.3918 C   0  0  0  0  0  0  0  0  0  0  0  0
    0.9645   -5.6276    2.5409 C   0  0  0  0  0  0  0  0  0  0  0  0
    1.4432  -13.4928    2.4897 C   0  0  0  0  0  0  0  0  0  0  0  0
    0.9776  -13.9149    1.3022 C   0  0  0  0  0  0  0  0  0  0  0  0
    0.5078  -13.1382    0.4150 C   0  0  0  0  0  0  0  0  0  0  0  0
    0.6417  -11.7396    0.6089 C   0  0  0  0  0  0  0  0  0  0  0  0
    0.5675   -4.8359    1.5983 C   0  0  0  0  0  0  0  0  0  0  0  0
   -0.1112   -4.0366    1.6731 C   0  0  0  0  0  0  0  0  0  0  0  0
   -0.2909   -3.3482    2.9716 C   0  0  0  0  0  0  0  0  0  0  0  0
    0.2941   -4.0106    4.0838 C   0  0  0  0  0  0  0  0  0  0  0  0
    0.9886   -5.1186    3.8655 C   0  0  0  0  0  0  0  0  0  0  0  0
    0.2494  -10.8674   -0.3427 O   0  0  0  0  0  0  0  0  0  0  0  0
  1  2  1  0
  2  3  2  3
  3  4  1  0
  4  5  1  1
  1  6  2  3
  6  7  1  0
  8  9  1  0
  4 11  1  0
 10 11  1  0
 11 17  2  0
  5  8  1  0
  9 10  1  0
  7 12  2  0
 12 13  1  0
 13 14  2  0
 14 15  1  0
 15 16  2  0
  7 16  1  0
M  END

$$$$
No_3066-/export/home/yangzhenyu/potential_scad_32_flow//YTHDC2/2024-12-06-03-22-00/
     RDKit          3D

 19 19  0  0  1  0  0  0  0  0999 V2000
    1.1787   -8.0297    3.5154 C   0  0  0  0  0  0  0  0  0  0  0  0
    1.0491   -6.8434    2.9820 C   0  0  0  0  0  0  0  0  0  0  0  0
    0.9905   -9.0774    2.6527 C   0  0  0  0  0  0  0  0  0  0  0  0
    1.1655  -10.4663    3.1286 C   0  0  2  0  0  0  0  0  0  0  0  0
    1.7409  -10.6480    4.4599 C   0  0  0  0  0  0  0  0  0  0  0  0
    1.6536   -5.6667    3.5105 C   0  0  0  0  0  0  0  0  0  0  0  0
    1.0829  -11.4712    2.2542 C   0  0  0  0  0  0  0  0  0  0  0  0
    0.9891  -11.3970    0.9869 C   0  0  0  0  0  0  0  0  0  0  0  0
    2.2540  -10.8534    0.4165 O   0  0  0  0  0  0  0  0  0  0  0  0
    0.1829  -11.7008    0.1978 O   0  0  0  0  0  0  0  0  0  0  0  0
    1.3744   -4.5177    2.8469 C   0  0  0  0  0  0  0  0  0  0  0  0
    0.4984   -4.4392    1.8477 C   0  0  0  0  0  0  0  0  0  0  0  0
    0.0331   -5.5499    1.2818 C   0  0  0  0  0  0  0  0  0  0  0  0
    0.2362   -6.7868    1.8382 C   0  0  0  0  0  0  0  0  0  0  0  0
   -0.1999   -7.7871    1.2101 C   0  0  0  0  0  0  0  0  0  0  0  0
   -1.0491   -7.5840    0.1705 C   0  0  0  0  0  0  0  0  0  0  0  0
   -0.9711   -8.5110   -0.9427 O   0  0  0  0  0  0  0  0  0  0  0  0
   -2.0457   -6.8370   -0.0901 O   0  0  0  0  0  0  0  0  0  0  0  0
    2.2274  -12.0117    4.6488 O   0  0  0  0  0  0  0  0  0  0  0  0
  1  2  1  0
  1  3  2  3
  3  4  1  0
  4  5  1  6
  4  7  1  0
  7  8  1  0
  8  9  2  0
  8 10  1  0
 14 15  1  0
 15 16  1  0
 16 17  1  0
 16 18  2  0
  5 19  1  0
  2  6  2  0
  6 11  1  0
 11 12  2  0
 12 13  1  0
 13 14  2  0
  2 14  1  0
M  END

$$$$
No_3067-/export/home/yangzhenyu/potential_scad_32_flow//YTHDC2/2024-12-06-03-22-00/
     RDKit          3D

 19 19  0  0  0  0  0  0  0  0999 V2000
    1.1787   -8.0297    3.5154 N   0  0  0  0  0  0  0  0  0  0  0  0
    1.0818   -9.0751    3.2053 C   0  0  0  0  0  0  0  0  0  0  0  0
    0.7576   -9.3725    1.9159 C   0  0  0  0  0  0  0  0  0  0  0  0
    0.8823   -8.4917    1.0547 C   0  0  0  0  0  0  0  0  0  0  0  0
    1.4631   -7.3107    1.2451 C   0  0  0  0  0  0  0  0  0  0  0  0
    1.6470   -6.9326    2.5669 C   0  0  0  0  0  0  0  0  0  0  0  0
    0.8237  -10.1305    4.2407 C   0  0  0  0  0  0  0  0  0  0  0  0
    1.7644  -11.1125    4.2479 C   0  0  0  0  0  0  0  0  0  0  0  0
    0.8446   -8.8698   -0.4314 C   0  0  0  0  0  0  0  0  0  0  0  0
    1.7120   -8.8126   -1.2544 O   0  0  0  0  0  0  0  0  0  0  0  0
   -0.3402   -9.4623   -0.7863 O   0  0  0  0  0  0  0  0  0  0  0  0
    1.3514  -12.3291    3.7930 O   0  0  0  0  0  0  0  0  0  0  0  0
    2.9954  -10.9519    4.6701 O   0  0  0  0  0  0  0  0  0  0  0  0
    1.8031   -5.6242    3.0254 C   0  0  0  0  0  0  0  0  0  0  0  0
    1.5232   -4.5827    2.2201 O   0  0  0  0  0  0  0  0  0  0  0  0
    1.8055   -5.3661    4.2945 Cl  0  0  0  0  0  0  0  0  0  0  0  0
    2.0991  -13.2272    3.1186 C   0  0  0  0  0  0  0  0  0  0  0  0
    1.1986  -14.0307    2.1663 C   0  0  0  0  0  0  0  0  0  0  0  0
    1.4174  -15.2393    2.1272 C   0  0  0  0  0  0  0  0  0  0  0  0
  2  7  1  0
  7  8  1  0
  4  9  1  0
  9 10  2  0
  9 11  1  0
  8 12  1  0
  8 13  2  0
  6 14  1  0
 14 15  2  0
 14 16  1  0
 12 17  1  0
 17 18  1  0
 18 19  1  0
  1  2  2  0
  2  3  1  0
  3  4  2  0
  4  5  1  0
  5  6  2  0
  1  6  1  0
M  END

$$$$
No_3068-/export/home/yangzhenyu/potential_scad_32_flow//YTHDC2/2024-12-06-03-22-00/
     RDKit          3D

 18 19  0  0  1  0  0  0  0  0999 V2000
    1.1787   -8.0297    3.5154 C   0  0  0  0  0  0  0  0  0  0  0  0
    1.1048   -9.2215    3.2892 C   0  0  0  0  0  0  0  0  0  0  0  0
    1.2339   -9.7611    2.0189 C   0  0  0  0  0  0  0  0  0  0  0  0
    1.3583   -9.0036    0.9764 C   0  0  0  0  0  0  0  0  0  0  0  0
    1.7077   -9.6100   -0.3010 C   0  0  0  0  0  0  0  0  0  0  0  0
    1.3637   -7.1087    2.3226 C   0  0  0  0  0  0  0  0  0  0  0  0
    1.4257   -7.6645    1.0231 C   0  0  0  0  0  0  0  0  0  0  0  0
    1.6722  -10.7840   -0.4044 O   0  0  0  0  0  0  0  0  0  0  0  0
    1.4862   -8.9147   -1.4018 O   0  0  0  0  0  0  0  0  0  0  0  0
    1.1383  -10.1804    4.3877 Cl  0  0  0  0  0  0  0  0  0  0  0  0
    1.3185   -5.5875    2.5393 Cl  0  0  0  0  0  0  0  0  0  0  0  0
    1.3169  -11.1619    1.9407 O   0  0  0  0  0  0  0  0  0  0  0  0
    1.0796  -12.1501    2.5104 C   0  0  2  0  0  0  0  0  0  0  0  0
    1.9290  -13.1494    2.9110 C   0  0  0  0  0  0  0  0  0  0  0  0
    1.7239  -14.5375    2.4665 C   0  0  0  0  0  0  0  0  0  0  0  0
    0.5025  -15.0603    3.0321 N   0  0  0  0  0  0  0  0  0  0  0  0
   -0.4984  -14.2028    2.6476 C   0  0  0  0  0  0  0  0  0  0  0  0
   -0.3097  -12.8799    2.5086 N   0  0  0  0  0  0  0  0  0  0  0  0
  4  5  1  0
  5  8  2  0
  5  9  1  0
  2 10  1  0
  6 11  1  0
  3 12  1  0
 13 12  1  6
 13 14  1  0
 14 15  1  0
 15 16  1  0
 16 17  1  0
 13 18  1  0
 17 18  1  0
  1  2  2  0
  2  3  1  0
  3  4  2  0
  4  7  1  0
  6  7  2  0
  1  6  1  0
M  END

$$$$
No_3069-/export/home/yangzhenyu/potential_scad_32_flow//YTHDC2/2024-12-06-03-22-00/
     RDKit          3D

 17 17  0  0  0  0  0  0  0  0999 V2000
    1.1787   -8.0297    3.5154 O   0  0  0  0  0  0  0  0  0  0  0  0
    0.9969   -8.9689    3.0048 C   0  0  0  0  0  0  0  0  0  0  0  0
    0.9976   -8.9567    1.6341 C   0  0  0  0  0  0  0  0  0  0  0  0
    1.6062   -9.9071    0.9292 C   0  0  0  0  0  0  0  0  0  0  0  0
    2.1191  -10.9757    1.6503 C   0  0  0  0  0  0  0  0  0  0  0  0
    2.1177  -10.9891    3.0403 C   0  0  0  0  0  0  0  0  0  0  0  0
    1.5441   -9.8905    3.6897 C   0  0  0  0  0  0  0  0  0  0  0  0
    0.5010   -7.8164    1.0436 C   0  0  0  0  0  0  0  0  0  0  0  0
   -0.3627   -7.9721    0.1048 C   0  0  0  0  0  0  0  0  0  0  0  0
   -1.0530   -6.9026   -0.6332 C   0  0  0  0  0  0  0  0  0  0  0  0
   -2.0579   -6.5302   -0.4292 C   0  0  0  0  0  0  0  0  0  0  0  0
   -2.5432   -5.3463   -1.2205 C   0  0  0  0  0  0  0  0  0  0  0  0
   -2.6654   -5.4509   -2.5279 C   0  0  0  0  0  0  0  0  0  0  0  0
   -2.9883   -4.3788   -3.3196 C   0  0  0  0  0  0  0  0  0  0  0  0
   -3.4227   -3.1609   -2.6277 C   0  0  0  0  0  0  0  0  0  0  0  0
   -3.7346   -2.0153   -3.4972 C   0  0  0  0  0  0  0  0  0  0  0  0
   -3.7165   -2.2430   -4.9298 C   0  0  0  0  0  0  0  0  0  0  0  0
  1  2  1  0
  3  8  1  0
  8  9  2  3
  9 10  1  0
 10 11  2  3
 11 12  1  0
 12 13  2  3
 13 14  1  0
 14 15  2  3
 15 16  1  0
 16 17  2  0
  2  3  2  0
  3  4  1  0
  4  5  2  0
  5  6  1  0
  6  7  2  0
  2  7  1  0
M  END

$$$$
No_3070-/export/home/yangzhenyu/potential_scad_32_flow//YTHDC2/2024-12-06-03-22-00/
     RDKit          3D

 19 19  0  0  1  0  0  0  0  0999 V2000
    1.1787   -8.0297    3.5154 C   0  0  0  0  0  0  0  0  0  0  0  0
    1.0491   -6.8434    2.9820 C   0  0  0  0  0  0  0  0  0  0  0  0
    0.9905   -9.0774    2.6527 C   0  0  0  0  0  0  0  0  0  0  0  0
    0.7897   -8.9519    1.3691 C   0  0  0  0  0  0  0  0  0  0  0  0
    0.7018   -7.7198    0.7892 C   0  0  0  0  0  0  0  0  0  0  0  0
    0.8918   -6.5957    1.6117 C   0  0  0  0  0  0  0  0  0  0  0  0
    1.0998  -10.4710    3.2437 C   0  0  0  0  0  0  0  0  0  0  0  0
    1.3102  -11.5554    2.5214 C   0  0  0  0  0  0  0  0  0  0  0  0
    1.4257  -12.8124    3.1919 C   0  0  0  0  0  0  0  0  0  0  0  0
    0.9222  -13.9339    2.5039 C   0  0  1  0  0  0  0  0  0  0  0  0
    1.2953  -15.2608    3.1588 C   0  0  0  0  0  0  0  0  0  0  0  0
    0.8729   -5.2633    1.2027 C   0  0  0  0  0  0  0  0  0  0  0  0
    1.1766  -16.3996    2.7259 C   0  0  0  0  0  0  0  0  0  0  0  0
    1.5646  -17.5145    3.4769 C   0  0  0  0  0  0  0  0  0  0  0  0
    1.5429   -4.3470    1.8904 O   0  0  0  0  0  0  0  0  0  0  0  0
   -0.0093   -4.8180    0.3578 O   0  0  0  0  0  0  0  0  0  0  0  0
    0.1032  -14.0144    1.4699 C   0  0  0  0  0  0  0  0  0  0  0  0
   -0.2167  -12.9900    0.6538 C   0  0  0  0  0  0  0  0  0  0  0  0
   -1.3964  -12.4868    0.4085 C   0  0  0  0  0  0  0  0  0  0  0  0
  3  7  1  0
  7  8  2  3
  8  9  1  0
 10  9  1  1
 10 11  1  0
  6 12  1  0
 11 13  2  3
 13 14  1  0
 12 15  2  0
 12 16  1  0
 10 17  1  0
 17 18  1  0
 18 19  2  0
  1  2  2  0
  2  6  1  0
  5  6  2  0
  4  5  1  0
  3  4  2  0
  1  3  1  0
M  END

$$$$
No_3071-/export/home/yangzhenyu/potential_scad_32_flow//YTHDC2/2024-12-06-03-22-00/
     RDKit          3D

 16 16  0  0  0  0  0  0  0  0999 V2000
    1.1787   -8.0297    3.5154 C   0  0  0  0  0  0  0  0  0  0  0  0
    1.0491   -6.8434    2.9820 C   0  0  0  0  0  0  0  0  0  0  0  0
    1.9985   -8.9840    2.8958 C   0  0  0  0  0  0  0  0  0  0  0  0
    1.9135  -10.3404    3.6266 C   0  0  0  0  0  0  0  0  0  0  0  0
    1.3291  -11.3908    3.0222 C   0  0  0  0  0  0  0  0  0  0  0  0
    1.2749  -12.5326    3.7562 C   0  0  0  0  0  0  0  0  0  0  0  0
    0.4248   -6.6481    1.7861 C   0  0  0  0  0  0  0  0  0  0  0  0
    0.3130   -5.3457    1.3131 O   0  0  0  0  0  0  0  0  0  0  0  0
    0.4009   -7.5406    0.8516 O   0  0  0  0  0  0  0  0  0  0  0  0
    0.7623  -13.6835    3.1408 C   0  0  0  0  0  0  0  0  0  0  0  0
    0.4378  -13.6859    1.8701 C   0  0  0  0  0  0  0  0  0  0  0  0
    0.5678  -12.6287    1.0906 C   0  0  0  0  0  0  0  0  0  0  0  0
    1.0887  -11.4625    1.5965 C   0  0  0  0  0  0  0  0  0  0  0  0
    1.1420  -10.3991    0.7508 C   0  0  0  0  0  0  0  0  0  0  0  0
    2.3630   -9.8202    0.4467 O   0  0  0  0  0  0  0  0  0  0  0  0
    0.1678  -10.1334   -0.1132 O   0  0  0  0  0  0  0  0  0  0  0  0
  1  2  1  0
  1  3  1  0
  3  4  1  0
  4  5  1  0
  2  7  1  0
  7  8  2  0
  7  9  1  0
 13 14  1  0
 14 15  2  0
 14 16  1  0
  5  6  2  0
  6 10  1  0
 10 11  2  0
 11 12  1  0
 12 13  2  0
  5 13  1  0
M  END

$$$$
No_3072-/export/home/yangzhenyu/potential_scad_32_flow//YTHDC2/2024-12-06-03-22-00/
     RDKit          3D

 16 15  0  0  1  0  0  0  0  0999 V2000
    1.1787   -8.0297    3.5154 O   0  0  0  0  0  0  0  0  0  0  0  0
    0.9969   -8.9689    3.0048 C   0  0  0  0  0  0  0  0  0  0  0  0
    0.8148   -8.9936    1.6651 C   0  0  0  0  0  0  0  0  0  0  0  0
    1.1770  -10.1706    3.6799 C   0  0  2  0  0  0  0  0  0  0  0  0
    2.4661  -10.6544    3.9750 C   0  0  0  0  0  0  0  0  0  0  0  0
    1.3711   -9.0998    0.7657 C   0  0  0  0  0  0  0  0  0  0  0  0
    1.5070   -8.4286   -0.4592 C   0  0  0  0  0  0  0  0  0  0  0  0
    2.4898   -8.6248   -1.3317 C   0  0  0  0  0  0  0  0  0  0  0  0
    2.3038  -10.2847    0.5903 C   0  0  0  0  0  0  0  0  0  0  0  0
    1.6446  -11.5329    0.2532 F   0  0  0  0  0  0  0  0  0  0  0  0
    0.3093  -11.3063    3.2509 C   0  0  0  0  0  0  0  0  0  0  0  0
    0.8107  -12.6454    3.2660 C   0  0  0  0  0  0  0  0  0  0  0  0
    0.6948  -13.3135    2.2210 C   0  0  0  0  0  0  0  0  0  0  0  0
    1.2859  -14.6463    2.1472 C   0  0  0  0  0  0  0  0  0  0  0  0
    0.8288  -15.7499    2.6369 N   0  0  0  0  0  0  0  0  0  0  0  0
    1.7647  -16.8082    2.8948 C   0  0  0  0  0  0  0  0  0  0  0  0
  1  2  2  0
  2  3  1  0
  2  4  1  0
  4  5  1  6
  3  6  1  0
  6  7  1  0
  7  8  1  0
  6  9  1  0
  9 10  1  0
  4 11  1  0
 11 12  1  0
 12 13  2  3
 13 14  1  0
 14 15  1  0
 15 16  1  0
M  END

$$$$
No_3073-/export/home/yangzhenyu/potential_scad_32_flow//YTHDC2/2024-12-06-03-22-00/
     RDKit          3D

 18 18  0  0  1  0  0  0  0  0999 V2000
    1.1787   -8.0297    3.5154 C   0  0  0  0  0  0  0  0  0  0  0  0
    1.0491   -6.8434    2.9820 C   0  0  0  0  0  0  0  0  0  0  0  0
    0.9905   -9.0774    2.6527 C   0  0  0  0  0  0  0  0  0  0  0  0
    1.1655  -10.4663    3.1286 C   0  0  0  0  0  0  0  0  0  0  0  0
    1.2197  -11.4898    2.5831 C   0  0  0  0  0  0  0  0  0  0  0  0
    1.5411  -12.7330    3.1052 C   0  0  0  0  0  0  0  0  0  0  0  0
    0.6212   -6.5301    1.7066 C   0  0  0  0  0  0  0  0  0  0  0  0
    0.4208   -7.5365    0.9144 C   0  0  0  0  0  0  0  0  0  0  0  0
    0.5253   -8.8638    1.3136 C   0  0  0  0  0  0  0  0  0  0  0  0
    1.3022  -13.9942    2.3741 C   0  0  1  0  0  0  0  0  0  0  0  0
    1.0530  -14.1024    1.1469 C   0  0  1  0  0  0  0  0  0  0  0  0
    1.7363  -13.1718    0.3582 C   0  0  0  0  0  0  0  0  0  0  0  0
    0.5229   -5.2074    1.1997 O   0  0  0  0  0  0  0  0  0  0  0  0
    2.4200  -14.9285    2.9478 Cl  0  0  0  0  0  0  0  0  0  0  0  0
   -0.6314   -4.6112    1.1236 C   0  0  0  0  0  0  0  0  0  0  0  0
    1.1349  -15.4366    0.5837 N   0  0  0  0  0  0  0  0  0  0  0  0
   -0.0924  -15.9077    0.1445 C   0  0  0  0  0  0  0  0  0  0  0  0
   -1.0147  -14.9681   -0.1626 C   0  0  0  0  0  0  0  0  0  0  0  0
  3  4  1  0
  4  5  2  3
  5  6  1  0
  6 10  1  0
 10 11  1  0
 11 12  1  6
  7 13  1  0
 10 14  1  6
 13 15  1  0
 11 16  1  0
 16 17  1  0
 17 18  1  0
  1  2  2  0
  2  7  1  0
  7  8  2  0
  8  9  1  0
  3  9  2  0
  1  3  1  0
M  END

$$$$
No_3074-/export/home/yangzhenyu/potential_scad_32_flow//YTHDC2/2024-12-06-03-22-00/
     RDKit          3D

 18 18  0  0  1  0  0  0  0  0999 V2000
    1.1787   -8.0297    3.5154 C   0  0  0  0  0  0  0  0  0  0  0  0
    1.1048   -9.2215    3.2892 C   0  0  0  0  0  0  0  0  0  0  0  0
    1.3627  -10.1721    4.3044 C   0  0  0  0  0  0  0  0  0  0  0  0
    1.7354  -11.4730    3.9023 C   0  0  0  0  0  0  0  0  0  0  0  0
    1.8080  -11.8127    2.7216 C   0  0  0  0  0  0  0  0  0  0  0  0
    1.5854  -11.0021    1.7249 C   0  0  0  0  0  0  0  0  0  0  0  0
    1.3573   -9.7389    1.9287 C   0  0  0  0  0  0  0  0  0  0  0  0
    1.2865   -8.8078    0.9161 C   0  0  0  0  0  0  0  0  0  0  0  0
    1.6845   -9.1638   -0.2896 O   0  0  0  0  0  0  0  0  0  0  0  0
    0.6173   -7.6210    0.9782 O   0  0  0  0  0  0  0  0  0  0  0  0
    2.1380  -13.4167    2.2789 O   0  0  0  0  0  0  0  0  0  0  0  0
    1.7008  -13.8197    1.1424 C   0  0  0  0  0  0  0  0  0  0  0  0
    0.6854  -14.7514    1.3274 C   0  0  1  0  0  0  0  0  0  0  0  0
   -0.3053  -14.5693    0.7082 C   0  0  0  0  0  0  0  0  0  0  0  0
   -0.7571  -13.5468    0.1877 O   0  0  0  0  0  0  0  0  0  0  0  0
   -1.2281  -15.6244    0.5988 O   0  0  0  0  0  0  0  0  0  0  0  0
    1.1431  -15.9480    1.8372 C   0  0  0  0  0  0  0  0  0  0  0  0
    2.0294  -16.5110    1.9323 N   0  0  0  0  0  0  0  0  0  0  0  0
  1  2  1  0
  7  8  1  0
  8  9  2  0
  8 10  1  0
  5 11  1  0
 11 12  1  0
 13 12  1  6
 13 14  1  0
 14 15  2  0
 14 16  1  0
 13 17  1  0
 17 18  1  0
  2  3  2  0
  3  4  1  0
  4  5  2  0
  5  6  1  0
  6  7  2  0
  2  7  1  0
M  END

$$$$
No_3075-/export/home/yangzhenyu/potential_scad_32_flow//YTHDC2/2024-12-06-03-22-00/
     RDKit          3D

 18 19  0  0  0  0  0  0  0  0999 V2000
    1.1787   -8.0297    3.5154 C   0  0  0  0  0  0  0  0  0  0  0  0
    1.1048   -9.2215    3.2892 C   0  0  0  0  0  0  0  0  0  0  0  0
    1.2339   -9.7611    2.0189 C   0  0  0  0  0  0  0  0  0  0  0  0
    1.3583   -9.0036    0.9764 C   0  0  0  0  0  0  0  0  0  0  0  0
    1.5996   -7.6362    1.1311 C   0  0  0  0  0  0  0  0  0  0  0  0
    1.4830   -7.0928    2.3626 C   0  0  0  0  0  0  0  0  0  0  0  0
    1.1008  -11.2372    1.8542 C   0  0  0  0  0  0  0  0  0  0  0  0
    0.5178  -11.9759    2.3445 C   0  0  0  0  0  0  0  0  0  0  0  0
    0.4575  -13.3705    2.1281 C   0  0  0  0  0  0  0  0  0  0  0  0
    1.1632  -14.1013    2.0451 C   0  0  0  0  0  0  0  0  0  0  0  0
    2.4646  -13.5566    1.4445 C   0  0  0  0  0  0  0  0  0  0  0  0
    1.2467  -15.5603    2.2927 C   0  0  0  0  0  0  0  0  0  0  0  0
    0.3854  -15.9779    3.1650 C   0  0  0  0  0  0  0  0  0  0  0  0
    0.2498  -17.4398    3.3485 C   0  0  0  0  0  0  0  0  0  0  0  0
    1.0784  -18.2903    2.7448 C   0  0  0  0  0  0  0  0  0  0  0  0
    2.1344  -17.7774    1.9013 C   0  0  0  0  0  0  0  0  0  0  0  0
    2.1925  -16.3751    1.7310 C   0  0  0  0  0  0  0  0  0  0  0  0
    1.5540   -5.6560    2.6293 Cl  0  0  0  0  0  0  0  0  0  0  0  0
  3  7  1  0
  7  8  2  3
  8  9  1  0
  9 10  2  3
 10 11  1  0
 10 12  1  0
  6 18  1  0
 12 13  2  0
 13 14  1  0
 14 15  2  0
 15 16  1  0
 16 17  2  0
 12 17  1  0
  1  2  2  0
  2  3  1  0
  3  4  2  0
  4  5  1  0
  5  6  2  0
  1  6  1  0
M  END

$$$$
No_3076-/export/home/yangzhenyu/potential_scad_32_flow//YTHDC2/2024-12-06-03-22-00/
     RDKit          3D

 20 21  0  0  1  0  0  0  0  0999 V2000
    1.1787   -8.0297    3.5154 N   0  0  0  0  0  0  0  0  0  0  0  0
    1.0818   -9.0751    3.2053 C   0  0  0  0  0  0  0  0  0  0  0  0
    0.7576   -9.3725    1.9159 C   0  0  0  0  0  0  0  0  0  0  0  0
    0.8823   -8.4917    1.0547 C   0  0  0  0  0  0  0  0  0  0  0  0
    1.4631   -7.3107    1.2451 C   0  0  0  0  0  0  0  0  0  0  0  0
    1.6470   -6.9326    2.5669 C   0  0  0  0  0  0  0  0  0  0  0  0
    0.8237  -10.1305    4.2407 C   0  0  1  0  0  0  0  0  0  0  0  0
   -0.4178  -10.6899    4.4426 C   0  0  0  0  0  0  0  0  0  0  0  0
    1.9245  -11.1874    4.2018 C   0  0  0  0  0  0  0  0  0  0  0  0
    2.4887  -11.4276    3.1288 C   0  0  0  0  0  0  0  0  0  0  0  0
    1.7821  -12.5988    2.5939 C   0  0  0  0  0  0  0  0  0  0  0  0
    1.6025  -12.7940    1.2074 C   0  0  0  0  0  0  0  0  0  0  0  0
    0.5129  -12.7894    0.7781 C   0  0  0  0  0  0  0  0  0  0  0  0
   -0.5400  -13.2651    1.4854 C   0  0  1  0  0  0  0  0  0  0  0  0
   -1.8991  -13.4150    1.0135 C   0  0  0  0  0  0  0  0  0  0  0  0
   -2.2004  -13.0102   -0.0571 N   0  0  0  0  0  0  0  0  0  0  0  0
   -2.6086  -14.3506    1.7930 C   0  0  0  0  0  0  0  0  0  0  0  0
   -1.9344  -14.7180    2.9894 C   0  0  0  0  0  0  0  0  0  0  0  0
   -0.5494  -14.0593    2.7653 C   0  0  0  0  0  0  0  0  0  0  0  0
   -1.5474  -12.4518   -0.5880 H   0  0  0  0  0  0  0  0  0  0  0  0
  2  7  1  0
  7  8  1  6
  7  9  1  0
  9 10  1  0
 10 11  1  0
 11 12  1  0
 12 13  2  3
 13 14  1  0
 14 15  1  0
 15 16  2  0
 15 17  1  0
 17 18  2  0
 14 19  1  6
 18 19  1  0
  1  2  2  0
  2  3  1  0
  3  4  2  0
  4  5  1  0
  5  6  2  0
  1  6  1  0
 16 20  1  0
M  END

$$$$
No_3077-/export/home/yangzhenyu/potential_scad_32_flow//YTHDC2/2024-12-06-03-22-00/
     RDKit          3D

 20 20  0  0  0  0  0  0  0  0999 V2000
    1.1787   -8.0297    3.5154 C   0  0  0  0  0  0  0  0  0  0  0  0
    1.0491   -6.8434    2.9820 C   0  0  0  0  0  0  0  0  0  0  0  0
    0.9905   -9.0774    2.6527 C   0  0  0  0  0  0  0  0  0  0  0  0
    0.7897   -8.9519    1.3691 C   0  0  0  0  0  0  0  0  0  0  0  0
    0.7018   -7.7198    0.7892 C   0  0  0  0  0  0  0  0  0  0  0  0
    0.8918   -6.5957    1.6117 C   0  0  0  0  0  0  0  0  0  0  0  0
    1.0998  -10.4710    3.2437 N   0  0  0  0  0  0  0  0  0  0  0  0
    0.1151  -11.2860    3.4053 C   0  0  0  0  0  0  0  0  0  0  0  0
    0.4840  -12.6164    3.5551 C   0  0  0  0  0  0  0  0  0  0  0  0
    1.8149  -12.9669    3.4256 C   0  0  0  0  0  0  0  0  0  0  0  0
    0.8675   -5.2938    1.1944 C   0  0  0  0  0  0  0  0  0  0  0  0
    2.0049  -13.5913    2.0651 C   0  0  0  0  0  0  0  0  0  0  0  0
    1.9836  -14.8717    1.8478 C   0  0  0  0  0  0  0  0  0  0  0  0
    2.8355  -15.6868    2.8104 N   0  0  0  0  0  0  0  0  0  0  0  0
   -1.0874  -10.8458    3.4102 O   0  0  0  0  0  0  0  0  0  0  0  0
    1.6846  -15.6796    0.8520 O   0  0  0  0  0  0  0  0  0  0  0  0
    1.5492   -4.3477    1.8999 S   0  0  0  0  0  0  0  0  0  0  0  0
    0.4828   -3.1661    2.2997 C   0  0  0  0  0  0  0  0  0  0  0  0
   -0.4798   -2.9863    1.9399 C   0  0  0  0  0  0  0  0  0  0  0  0
   -0.9827   -4.0845    0.9311 C   0  0  0  0  0  0  0  0  0  0  0  0
  3  7  1  0
  7  8  1  0
  8  9  1  0
  9 10  1  0
  6 11  1  0
 10 12  1  0
 12 13  1  0
 13 14  1  0
  8 15  2  0
 13 16  2  0
 11 17  1  0
 17 18  1  0
 18 19  2  3
 19 20  1  0
  1  2  2  0
  2  6  1  0
  5  6  2  0
  4  5  1  0
  3  4  2  0
  1  3  1  0
M  END

$$$$
No_3078-/export/home/yangzhenyu/potential_scad_32_flow//YTHDC2/2024-12-06-03-22-00/
     RDKit          3D

 19 19  0  0  1  0  0  0  0  0999 V2000
    1.1787   -8.0297    3.5154 C   0  0  0  0  0  0  0  0  0  0  0  0
    1.0491   -6.8434    2.9820 C   0  0  0  0  0  0  0  0  0  0  0  0
    0.9905   -9.0774    2.6527 C   0  0  0  0  0  0  0  0  0  0  0  0
    0.7897   -8.9519    1.3691 C   0  0  0  0  0  0  0  0  0  0  0  0
    0.7018   -7.7198    0.7892 C   0  0  0  0  0  0  0  0  0  0  0  0
    0.8918   -6.5957    1.6117 C   0  0  0  0  0  0  0  0  0  0  0  0
    1.0998  -10.4710    3.2437 C   0  0  1  0  0  0  0  0  0  0  0  0
    2.1917  -10.8879    3.7399 C   0  0  0  0  0  0  0  0  0  0  0  0
    0.8983   -5.2566    1.2088 C   0  0  0  0  0  0  0  0  0  0  0  0
   -0.0163  -11.2298    3.3739 C   0  0  0  0  0  0  0  0  0  0  0  0
   -1.1391  -10.5481    3.9500 O   0  0  0  0  0  0  0  0  0  0  0  0
   -0.2221  -12.4082    3.0149 N   0  0  0  0  0  0  0  0  0  0  0  0
    1.6162   -4.3541    1.8677 O   0  0  0  0  0  0  0  0  0  0  0  0
   -0.0071   -4.7949    0.3854 Br  0  0  0  0  0  0  0  0  0  0  0  0
    2.4294  -10.4402    5.1938 O   0  0  0  0  0  0  0  0  0  0  0  0
    1.0224  -13.0861    2.4316 C   0  0  0  0  0  0  0  0  0  0  0  0
    1.3653  -14.2511    3.1198 C   0  0  0  0  0  0  0  0  0  0  0  0
    1.3031  -15.5083    2.4488 C   0  0  0  0  0  0  0  0  0  0  0  0
    1.7402  -15.5764    1.2989 C   0  0  0  0  0  0  0  0  0  0  0  0
  3  7  1  0
  7  8  1  1
  6  9  1  0
  7 10  1  0
 10 11  2  0
 10 12  1  0
  9 13  2  0
  9 14  1  0
  8 15  1  0
 12 16  1  0
 16 17  1  0
 17 18  1  0
 18 19  1  0
  1  2  2  0
  2  6  1  0
  5  6  2  0
  4  5  1  0
  3  4  2  0
  1  3  1  0
M  END

$$$$
No_3079-/export/home/yangzhenyu/potential_scad_32_flow//YTHDC2/2024-12-06-03-22-00/
     RDKit          3D

 19 19  0  0  1  0  0  0  0  0999 V2000
    1.1787   -8.0297    3.5154 C   0  0  0  0  0  0  0  0  0  0  0  0
    1.0491   -6.8434    2.9820 O   0  0  0  0  0  0  0  0  0  0  0  0
    0.9046   -9.0606    2.6037 C   0  0  0  0  0  0  0  0  0  0  0  0
    1.1437  -10.3181    3.1506 C   0  0  1  0  0  0  0  0  0  0  0  0
    1.6740  -10.5204    4.4061 C   0  0  0  0  0  0  0  0  0  0  0  0
    0.0889  -11.2472    2.8961 C   0  0  0  0  0  0  0  0  0  0  0  0
   -0.0251  -11.6909    1.8357 C   0  0  0  0  0  0  0  0  0  0  0  0
    1.0955  -11.9614    1.0096 C   0  0  0  0  0  0  0  0  0  0  0  0
    2.3427  -12.0605    1.5131 C   0  0  0  0  0  0  0  0  0  0  0  0
    2.1958  -11.2506    2.7812 C   0  0  0  0  0  0  0  0  0  0  0  0
    1.4353   -6.1166    2.2240 C   0  0  0  0  0  0  0  0  0  0  0  0
    1.6582   -6.7622    1.0529 C   0  0  0  0  0  0  0  0  0  0  0  0
    1.4704   -4.7475    2.3536 C   0  0  0  0  0  0  0  0  0  0  0  0
   -1.2246  -12.0861    1.1983 C   0  0  0  0  0  0  0  0  0  0  0  0
   -1.4632  -13.2210    0.5546 O   0  0  0  0  0  0  0  0  0  0  0  0
   -2.3096  -11.2357    1.1915 N   0  0  0  0  0  0  0  0  0  0  0  0
   -3.4930  -11.5685    0.7110 C   0  0  0  0  0  0  0  0  0  0  0  0
   -4.3044  -12.1379    1.5588 C   0  0  0  0  0  0  0  0  0  0  0  0
   -4.6068  -13.3264    1.5601 C   0  0  0  0  0  0  0  0  0  0  0  0
  1  2  1  0
  1  3  1  0
  3  4  1  0
  4  5  1  1
  4  6  1  0
  6  7  1  0
  7  8  1  0
  8  9  1  0
  4 10  1  0
  9 10  1  0
  2 11  1  0
 11 12  1  0
 11 13  1  0
  7 14  1  0
 14 15  2  0
 14 16  1  0
 16 17  1  0
 17 18  1  0
 18 19  2  0
M  END

$$$$
No_3080-/export/home/yangzhenyu/potential_scad_32_flow//YTHDC2/2024-12-06-03-22-00/
     RDKit          3D

 18 19  0  0  1  0  0  0  0  0999 V2000
    1.1787   -8.0297    3.5154 C   0  0  0  0  0  0  0  0  0  0  0  0
    1.0491   -6.8434    2.9820 C   0  0  0  0  0  0  0  0  0  0  0  0
    0.9905   -9.0774    2.6527 C   0  0  0  0  0  0  0  0  0  0  0  0
    0.7897   -8.9519    1.3691 C   0  0  0  0  0  0  0  0  0  0  0  0
    0.7018   -7.7198    0.7892 C   0  0  0  0  0  0  0  0  0  0  0  0
    0.8918   -6.5957    1.6117 C   0  0  0  0  0  0  0  0  0  0  0  0
    1.0998  -10.4710    3.2437 C   0  0  1  0  0  0  0  0  0  0  0  0
    2.1917  -10.8879    3.7399 C   0  0  0  0  0  0  0  0  0  0  0  0
    0.8983   -5.2566    1.2088 O   0  0  0  0  0  0  0  0  0  0  0  0
   -0.0200  -11.2248    3.3627 C   0  0  1  0  0  0  0  0  0  0  0  0
   -0.0780  -12.5021    3.1735 C   0  0  0  0  0  0  0  0  0  0  0  0
    1.0756  -13.2651    3.4066 C   0  0  2  0  0  0  0  0  0  0  0  0
    2.7022  -12.1404    3.6646 C   0  0  0  0  0  0  0  0  0  0  0  0
    2.2552  -13.2256    3.1868 C   0  0  0  0  0  0  0  0  0  0  0  0
   -0.8729  -10.6707    4.3188 C   0  0  0  0  0  0  0  0  0  0  0  0
   -2.2589  -10.6971    4.0862 O   0  0  0  0  0  0  0  0  0  0  0  0
   -0.7860  -10.4450    5.6396 O   0  0  0  0  0  0  0  0  0  0  0  0
    0.5384  -14.7400    3.5960 C   0  0  0  0  0  0  0  0  0  0  0  0
  1  2  1  0
  3  4  1  0
  2  6  1  0
  5  6  1  0
  7  3  1  1
  7  8  1  0
  6  9  2  0
  7 10  1  0
 10 11  1  0
 11 12  1  0
  8 13  1  0
 12 14  1  0
 13 14  1  0
 10 15  1  1
 15 16  2  0
 15 17  1  0
 12 18  1  6
  1  3  1  0
  4  5  1  0
M  END

$$$$
No_3081-/export/home/yangzhenyu/potential_scad_32_flow//YTHDC2/2024-12-06-03-22-00/
     RDKit          3D

 17 18  0  0  0  0  0  0  0  0999 V2000
    1.1787   -8.0297    3.5154 C   0  0  0  0  0  0  0  0  0  0  0  0
    1.0491   -6.8434    2.9820 C   0  0  0  0  0  0  0  0  0  0  0  0
    0.9905   -9.0774    2.6527 C   0  0  0  0  0  0  0  0  0  0  0  0
    0.7897   -8.9519    1.3691 C   0  0  0  0  0  0  0  0  0  0  0  0
    0.7018   -7.7198    0.7892 C   0  0  0  0  0  0  0  0  0  0  0  0
    0.8918   -6.5957    1.6117 C   0  0  0  0  0  0  0  0  0  0  0  0
    1.0998  -10.4710    3.2437 C   0  0  0  0  0  0  0  0  0  0  0  0
    0.0472  -11.2546    3.3963 C   0  0  0  0  0  0  0  0  0  0  0  0
    0.1622  -12.5732    3.4140 C   0  0  0  0  0  0  0  0  0  0  0  0
    1.4182  -13.1957    3.4048 C   0  0  0  0  0  0  0  0  0  0  0  0
    2.5550  -12.3947    3.0877 C   0  0  0  0  0  0  0  0  0  0  0  0
    2.4166  -11.0849    2.9699 C   0  0  0  0  0  0  0  0  0  0  0  0
    0.8571   -5.2495    1.2086 C   0  0  0  0  0  0  0  0  0  0  0  0
    1.4168  -14.5629    3.3677 O   0  0  0  0  0  0  0  0  0  0  0  0
    0.2043   -4.2872    2.0267 C   0  0  0  0  0  0  0  0  0  0  0  0
    0.9928   -3.3606    2.6147 C   0  0  0  0  0  0  0  0  0  0  0  0
    0.3037   -2.6783    3.7566 C   0  0  0  0  0  0  0  0  0  0  0  0
  3  7  1  0
  6 13  1  0
 10 14  1  0
 13 15  1  0
 15 16  1  0
 16 17  2  0
  1  2  2  0
  2  6  1  0
  5  6  2  0
  4  5  1  0
  3  4  2  0
  1  3  1  0
  7  8  2  0
  8  9  1  0
  9 10  2  0
 10 11  1  0
 11 12  2  0
  7 12  1  0
M  END

$$$$
No_3082-/export/home/yangzhenyu/potential_scad_32_flow//YTHDC2/2024-12-06-03-22-00/
     RDKit          3D

 18 18  0  0  1  0  0  0  0  0999 V2000
    1.1787   -8.0297    3.5154 C   0  0  0  0  0  0  0  0  0  0  0  0
    1.1048   -9.2215    3.2892 C   0  0  2  0  0  0  0  0  0  0  0  0
    1.3627  -10.1721    4.3044 C   0  0  0  0  0  0  0  0  0  0  0  0
    1.7354  -11.4730    3.9023 C   0  0  0  0  0  0  0  0  0  0  0  0
    1.6166  -11.5515    2.5159 C   0  0  1  0  0  0  0  0  0  0  0  0
    1.4080  -10.1475    2.0704 C   0  0  1  0  0  0  0  0  0  0  0  0
    0.6131   -7.0752    2.5759 C   0  0  0  0  0  0  0  0  0  0  0  0
    0.7591   -5.6024    2.7315 N   0  0  0  0  0  0  0  0  0  0  0  0
    0.3752   -4.8424    1.7729 C   0  0  0  0  0  0  0  0  0  0  0  0
    1.0416   -3.5397    1.7583 O   0  0  0  0  0  0  0  0  0  0  0  0
   -0.5778   -5.0852    0.8509 C   0  0  0  0  0  0  0  0  0  0  0  0
    1.7657  -12.4594    1.6401 C   0  0  0  0  0  0  0  0  0  0  0  0
    1.0330   -9.7626    0.8505 C   0  0  0  0  0  0  0  0  0  0  0  0
    2.0294   -9.2090    0.0005 O   0  0  0  0  0  0  0  0  0  0  0  0
   -0.0921   -9.9305    0.3654 O   0  0  0  0  0  0  0  0  0  0  0  0
    1.1875  -13.5960    1.6111 C   0  0  0  0  0  0  0  0  0  0  0  0
   -0.0966  -13.6935    1.6059 C   0  0  0  0  0  0  0  0  0  0  0  0
   -0.7740  -14.7267    1.3077 C   0  0  0  0  0  0  0  0  0  0  0  0
  2  1  1  1
  2  3  1  0
  3  4  2  0
  4  5  1  0
  2  6  1  0
  5  6  1  0
  1  7  2  3
  7  8  1  0
  8  9  1  0
  9 10  2  0
  9 11  1  0
  5 12  1  6
  6 13  1  6
 13 14  1  0
 13 15  2  0
 12 16  1  0
 16 17  1  0
 17 18  2  0
M  END

$$$$
No_3083-/export/home/yangzhenyu/potential_scad_32_flow//YTHDC2/2024-12-06-03-22-00/
     RDKit          3D

 20 21  0  0  0  0  0  0  0  0999 V2000
    1.1787   -8.0297    3.5154 C   0  0  0  0  0  0  0  0  0  0  0  0
    1.0491   -6.8434    2.9820 C   0  0  0  0  0  0  0  0  0  0  0  0
    0.9905   -9.0774    2.6527 C   0  0  0  0  0  0  0  0  0  0  0  0
    0.7897   -8.9519    1.3691 C   0  0  0  0  0  0  0  0  0  0  0  0
    0.7018   -7.7198    0.7892 C   0  0  0  0  0  0  0  0  0  0  0  0
    0.8918   -6.5957    1.6117 C   0  0  0  0  0  0  0  0  0  0  0  0
    1.0998  -10.4710    3.2437 C   0  0  0  0  0  0  0  0  0  0  0  0
    0.0472  -11.2546    3.3963 C   0  0  0  0  0  0  0  0  0  0  0  0
   -0.3712  -11.7969    2.5371 C   0  0  0  0  0  0  0  0  0  0  0  0
   -1.6982  -12.5008    2.6364 C   0  0  0  0  0  0  0  0  0  0  0  0
    0.8677   -5.2786    1.2169 C   0  0  0  0  0  0  0  0  0  0  0  0
   -2.0253  -13.7275    2.2810 C   0  0  0  0  0  0  0  0  0  0  0  0
   -1.0805  -14.4349    1.5489 C   0  0  0  0  0  0  0  0  0  0  0  0
    0.2146  -13.9211    1.2618 C   0  0  0  0  0  0  0  0  0  0  0  0
    0.5757  -12.7465    1.8127 C   0  0  0  0  0  0  0  0  0  0  0  0
    2.2633  -10.5411    4.2468 O   0  0  0  0  0  0  0  0  0  0  0  0
   -0.2094   -4.7568    0.7447 C   0  0  0  0  0  0  0  0  0  0  0  0
   -0.3332   -3.4062    0.3916 N   0  0  0  0  0  0  0  0  0  0  0  0
   -1.5511   -5.2486    0.9307 C   0  0  0  0  0  0  0  0  0  0  0  0
   -2.6114   -4.4448    0.6342 C   0  0  0  0  0  0  0  0  0  0  0  0
  3  7  1  0
  7  8  1  0
  6 11  1  0
  7 16  2  0
 11 17  2  3
 17 18  1  0
 17 19  1  0
 19 20  2  0
  8  9  1  0
  1  2  2  0
  2  6  1  0
  5  6  2  0
  4  5  1  0
  3  4  2  0
  1  3  1  0
  9 10  2  0
 10 12  1  0
 12 13  2  0
 13 14  1  0
 14 15  2  0
  9 15  1  0
M  END

$$$$
No_3084-/export/home/yangzhenyu/potential_scad_32_flow//YTHDC2/2024-12-06-03-22-00/
     RDKit          3D

 21 23  0  0  0  0  0  0  0  0999 V2000
    1.1787   -8.0297    3.5154 C   0  0  0  0  0  0  0  0  0  0  0  0
    1.1048   -9.2215    3.2892 C   0  0  0  0  0  0  0  0  0  0  0  0
    1.2339   -9.7611    2.0189 C   0  0  0  0  0  0  0  0  0  0  0  0
    1.1954  -11.2312    1.8661 C   0  0  0  0  0  0  0  0  0  0  0  0
    1.5546  -12.1691    2.7931 C   0  0  0  0  0  0  0  0  0  0  0  0
    0.9527   -7.0669    2.3918 C   0  0  0  0  0  0  0  0  0  0  0  0
    1.0618   -7.6392    1.0692 C   0  0  0  0  0  0  0  0  0  0  0  0
    1.2060   -8.9530    0.8578 C   0  0  0  0  0  0  0  0  0  0  0  0
    1.5110  -13.5006    2.3856 C   0  0  0  0  0  0  0  0  0  0  0  0
    1.1461  -13.9087    1.2014 C   0  0  0  0  0  0  0  0  0  0  0  0
    1.2747  -15.3508    0.9152 C   0  0  0  0  0  0  0  0  0  0  0  0
    0.6085  -15.6786   -0.1670 C   0  0  0  0  0  0  0  0  0  0  0  0
   -0.2565  -14.7715   -0.8786 C   0  0  0  0  0  0  0  0  0  0  0  0
   -0.3700  -13.4195   -0.4635 C   0  0  0  0  0  0  0  0  0  0  0  0
    0.3782  -12.9793    0.6249 C   0  0  0  0  0  0  0  0  0  0  0  0
    0.5286  -11.7489    0.7506 N   0  0  0  0  0  0  0  0  0  0  0  0
    1.0272   -5.6074    2.4558 Br  0  0  0  0  0  0  0  0  0  0  0  0
    1.2190   -9.5100   -0.3852 O   0  0  0  0  0  0  0  0  0  0  0  0
    2.2988  -14.2639    3.3759 O   0  0  0  0  0  0  0  0  0  0  0  0
   -1.0744  -15.3685   -2.1984 O   0  0  0  0  0  0  0  0  0  0  0  0
   -2.1757  -15.1333   -2.1927 C   0  0  0  0  0  0  0  0  0  0  0  0
  3  4  1  0
  6 17  1  0
  8 18  1  0
  9 19  1  0
 13 20  1  0
 20 21  1  0
  1  2  2  0
  2  3  1  0
  3  8  2  0
  7  8  1  0
  6  7  2  0
  1  6  1  0
 10 11  1  0
 11 12  2  0
 12 13  1  0
 13 14  2  0
 14 15  1  0
  4  5  2  0
  5  9  1  0
  9 10  2  0
 10 15  1  0
 15 16  2  0
  4 16  1  0
M  END

$$$$
No_3085-/export/home/yangzhenyu/potential_scad_32_flow//YTHDC2/2024-12-06-03-22-00/
     RDKit          3D

 17 18  0  0  1  0  0  0  0  0999 V2000
    1.1787   -8.0297    3.5154 C   0  0  0  0  0  0  0  0  0  0  0  0
    1.0491   -6.8434    2.9820 C   0  0  0  0  0  0  0  0  0  0  0  0
    0.9905   -9.0774    2.6527 C   0  0  0  0  0  0  0  0  0  0  0  0
    0.7897   -8.9519    1.3691 C   0  0  0  0  0  0  0  0  0  0  0  0
    0.7018   -7.7198    0.7892 C   0  0  0  0  0  0  0  0  0  0  0  0
    0.8918   -6.5957    1.6117 C   0  0  0  0  0  0  0  0  0  0  0  0
    1.0998  -10.4710    3.2437 C   0  0  2  0  0  0  0  0  0  0  0  0
    0.0472  -11.2546    3.3963 C   0  0  0  0  0  0  0  0  0  0  0  0
   -1.1989  -10.6161    3.7011 C   0  0  0  0  0  0  0  0  0  0  0  0
    0.8958   -5.2750    1.1754 O   0  0  0  0  0  0  0  0  0  0  0  0
   -2.3106  -10.8768    3.0507 C   0  0  0  0  0  0  0  0  0  0  0  0
   -2.3892  -12.0365    2.3382 C   0  0  0  0  0  0  0  0  0  0  0  0
   -1.2190  -12.7644    2.1072 C   0  0  0  0  0  0  0  0  0  0  0  0
    0.0222  -12.3443    2.5469 C   0  0  0  0  0  0  0  0  0  0  0  0
    2.0896  -10.3594    4.2943 C   0  0  0  0  0  0  0  0  0  0  0  0
    1.1594  -13.0789    2.3694 C   0  0  0  0  0  0  0  0  0  0  0  0
    1.9551  -12.8600    1.3266 C   0  0  0  0  0  0  0  0  0  0  0  0
  1  2  1  0
  3  4  1  0
  2  6  1  0
  5  6  1  0
  3  7  1  0
  7  8  1  0
  6 10  2  0
  7 15  1  1
 14 16  1  0
 16 17  1  0
  1  3  1  0
  4  5  1  0
  8  9  2  0
  9 11  1  0
 11 12  2  0
 12 13  1  0
 13 14  2  0
  8 14  1  0
M  END

$$$$
No_3086-/export/home/yangzhenyu/potential_scad_32_flow//YTHDC2/2024-12-06-03-22-00/
     RDKit          3D

 20 22  0  0  0  0  0  0  0  0999 V2000
    1.1787   -8.0297    3.5154 C   0  0  0  0  0  0  0  0  0  0  0  0
    1.0491   -6.8434    2.9820 C   0  0  0  0  0  0  0  0  0  0  0  0
    0.0950   -8.8404    3.2292 C   0  0  0  0  0  0  0  0  0  0  0  0
   -0.9173   -8.4596    2.5152 C   0  0  0  0  0  0  0  0  0  0  0  0
   -1.0331   -7.2162    2.0653 C   0  0  0  0  0  0  0  0  0  0  0  0
   -0.0105   -6.3168    2.3081 C   0  0  0  0  0  0  0  0  0  0  0  0
    0.1465  -10.2446    3.6981 C   0  0  0  0  0  0  0  0  0  0  0  0
   -1.0337  -10.8619    3.9439 C   0  0  0  0  0  0  0  0  0  0  0  0
   -2.1702  -10.4673    3.2991 C   0  0  0  0  0  0  0  0  0  0  0  0
   -2.1358   -9.2084    2.5791 C   0  0  0  0  0  0  0  0  0  0  0  0
   -0.0407   -4.9560    1.8452 C   0  0  0  0  0  0  0  0  0  0  0  0
    0.8459   -4.0706    2.2047 C   0  0  0  0  0  0  0  0  0  0  0  0
    0.8682   -2.7223    1.7126 C   0  0  0  0  0  0  0  0  0  0  0  0
   -0.1819   -2.5136    0.7193 C   0  0  0  0  0  0  0  0  0  0  0  0
   -0.9879   -3.4202    0.2048 C   0  0  0  0  0  0  0  0  0  0  0  0
   -1.7736   -3.0684   -0.9656 C   0  0  0  0  0  0  0  0  0  0  0  0
   -0.9183   -4.7183    0.6126 C   0  0  0  0  0  0  0  0  0  0  0  0
   -2.4619   -2.0565   -0.9967 O   0  0  0  0  0  0  0  0  0  0  0  0
   -1.8206   -4.0232   -1.9514 O   0  0  0  0  0  0  0  0  0  0  0  0
    1.3074  -10.7204    4.5419 N   0  0  0  0  0  0  0  0  0  0  0  0
  6 11  1  0
 15 16  1  0
 16 18  2  0
 16 19  1  0
  7 20  1  0
  4 10  2  0
  9 10  1  0
  8  9  2  0
  7  8  1  0
  3  7  2  0
  1  2  2  0
  2  6  1  0
  5  6  2  0
  4  5  1  0
  3  4  1  0
  1  3  1  0
 11 12  2  0
 12 13  1  0
 13 14  2  0
 14 15  1  0
 15 17  2  0
 11 17  1  0
M  END

$$$$
No_3087-/export/home/yangzhenyu/potential_scad_32_flow//YTHDC2/2024-12-06-03-22-00/
     RDKit          3D

 18 19  0  0  1  0  0  0  0  0999 V2000
    1.1787   -8.0297    3.5154 C   0  0  0  0  0  0  0  0  0  0  0  0
    1.0491   -6.8434    2.9820 C   0  0  0  0  0  0  0  0  0  0  0  0
    1.9985   -8.9840    2.8958 C   0  0  1  0  0  0  0  0  0  0  0  0
    1.9135  -10.3404    3.6266 C   0  0  0  0  0  0  0  0  0  0  0  0
    1.3291  -11.3908    3.0222 C   0  0  0  0  0  0  0  0  0  0  0  0
    1.0344  -11.3281    1.7959 C   0  0  0  0  0  0  0  0  0  0  0  0
    0.5050   -6.6553    1.7492 C   0  0  0  0  0  0  0  0  0  0  0  0
    1.6364  -10.2524    0.9337 C   0  0  0  0  0  0  0  0  0  0  0  0
    2.2155   -9.3952    1.3371 C   0  0  0  0  0  0  0  0  0  0  0  0
   -0.2793   -5.6053    1.5835 C   0  0  0  0  0  0  0  0  0  0  0  0
    1.1209  -12.4461    3.7618 C   0  0  0  0  0  0  0  0  0  0  0  0
   -1.4397   -5.6928    0.9615 C   0  0  0  0  0  0  0  0  0  0  0  0
   -1.7094   -6.9139    0.1841 C   0  0  0  0  0  0  0  0  0  0  0  0
   -2.7894   -6.9659   -0.6318 C   0  0  0  0  0  0  0  0  0  0  0  0
   -2.7758   -8.0775   -1.4415 C   0  0  0  0  0  0  0  0  0  0  0  0
   -1.7469   -9.0607   -1.3926 C   0  0  0  0  0  0  0  0  0  0  0  0
   -0.7290   -9.0325   -0.5116 C   0  0  0  0  0  0  0  0  0  0  0  0
   -0.5982   -7.8319    0.2716 C   0  0  0  0  0  0  0  0  0  0  0  0
  1  2  1  0
  3  1  1  6
  3  4  1  0
  4  5  1  0
  5  6  1  0
  2  7  1  0
  6  8  1  0
  3  9  1  0
  8  9  1  0
  7 10  1  0
  5 11  1  0
 10 12  2  3
 12 13  1  0
 13 14  2  0
 14 15  1  0
 15 16  2  0
 16 17  1  0
 17 18  2  0
 13 18  1  0
M  END

$$$$
No_3088-/export/home/yangzhenyu/potential_scad_32_flow//YTHDC2/2024-12-06-03-22-00/
     RDKit          3D

 18 20  0  0  0  0  0  0  0  0999 V2000
    1.1787   -8.0297    3.5154 C   0  0  0  0  0  0  0  0  0  0  0  0
    1.1048   -9.2215    3.2892 C   0  0  0  0  0  0  0  0  0  0  0  0
    1.3627  -10.1721    4.3044 C   0  0  0  0  0  0  0  0  0  0  0  0
    1.0682  -11.5187    4.0618 C   0  0  0  0  0  0  0  0  0  0  0  0
    0.6332  -11.9655    2.9682 C   0  0  0  0  0  0  0  0  0  0  0  0
    0.4776  -11.1308    1.9203 C   0  0  0  0  0  0  0  0  0  0  0  0
    0.7470   -9.8274    2.0368 C   0  0  0  0  0  0  0  0  0  0  0  0
    0.5535   -7.1314    2.6861 C   0  0  0  0  0  0  0  0  0  0  0  0
    0.2950   -7.6000    1.3275 C   0  0  0  0  0  0  0  0  0  0  0  0
    0.2693   -8.8631    1.0973 C   0  0  0  0  0  0  0  0  0  0  0  0
    0.4787  -13.3960    2.7088 C   0  0  0  0  0  0  0  0  0  0  0  0
    1.3658  -14.3257    3.1313 C   0  0  0  0  0  0  0  0  0  0  0  0
    1.4581  -15.5516    2.5171 C   0  0  0  0  0  0  0  0  0  0  0  0
    0.6203  -15.9161    1.6144 C   0  0  0  0  0  0  0  0  0  0  0  0
   -0.2619  -15.0494    1.1035 C   0  0  0  0  0  0  0  0  0  0  0  0
   -0.3106  -13.7656    1.6653 C   0  0  0  0  0  0  0  0  0  0  0  0
   -0.1186   -9.2471   -0.2160 C   0  0  0  0  0  0  0  0  0  0  0  0
    0.6236   -9.2504   -1.2204 O   0  0  0  0  0  0  0  0  0  0  0  0
  5 11  1  0
 10 17  1  0
 17 18  2  0
 11 12  2  0
 12 13  1  0
 13 14  2  0
 14 15  1  0
 15 16  2  0
 11 16  1  0
  2  3  1  0
  3  4  2  0
  4  5  1  0
  5  6  2  0
  6  7  1  0
  1  2  2  0
  2  7  1  0
  7 10  2  0
  9 10  1  0
  8  9  2  0
  1  8  1  0
M  END

$$$$
No_3089-/export/home/yangzhenyu/potential_scad_32_flow//YTHDC2/2024-12-06-03-22-00/
     RDKit          3D

 19 20  0  0  1  0  0  0  0  0999 V2000
    1.1787   -8.0297    3.5154 C   0  0  0  0  0  0  0  0  0  0  0  0
    1.0491   -6.8434    2.9820 C   0  0  0  0  0  0  0  0  0  0  0  0
    0.9905   -9.0774    2.6527 C   0  0  1  0  0  0  0  0  0  0  0  0
    0.7897   -8.9519    1.3691 N   0  0  0  0  0  0  0  0  0  0  0  0
    0.8618   -6.5727    1.6755 C   0  0  1  0  0  0  0  0  0  0  0  0
    0.6171   -7.6414    0.8820 C   0  0  0  0  0  0  0  0  0  0  0  0
    1.1208  -10.5010    3.1491 C   0  0  0  0  0  0  0  0  0  0  0  0
    0.6905  -11.4902    2.4316 N   0  0  0  0  0  0  0  0  0  0  0  0
   -0.3305  -11.5391    2.0241 C   0  0  0  0  0  0  0  0  0  0  0  0
   -0.5612  -11.9845    0.7662 C   0  0  2  0  0  0  0  0  0  0  0  0
    0.5266  -12.5309    0.1177 C   0  0  0  0  0  0  0  0  0  0  0  0
    1.6708  -12.5800    2.1050 C   0  0  0  0  0  0  0  0  0  0  0  0
    1.7003  -12.8971    0.7859 C   0  0  0  0  0  0  0  0  0  0  0  0
    1.4880  -10.5761    4.5485 O   0  0  0  0  0  0  0  0  0  0  0  0
    0.5094   -7.5577   -0.4207 O   0  0  0  0  0  0  0  0  0  0  0  0
    0.8226   -5.2748    1.1326 O   0  0  0  0  0  0  0  0  0  0  0  0
   -1.6465  -11.6575   -0.0983 C   0  0  0  0  0  0  0  0  0  0  0  0
   -2.5598  -12.4977   -0.4623 C   0  0  0  0  0  0  0  0  0  0  0  0
   -2.0892  -10.1391   -0.0714 C   0  0  0  0  0  0  0  0  0  0  0  0
  1  2  1  0
  3  4  1  0
  4  6  1  0
  5  6  1  0
  3  7  1  6
  7  8  1  0
  8  9  1  0
  9 10  1  0
 10 11  1  0
  8 12  1  0
 11 13  1  0
 12 13  1  0
  7 14  2  0
  6 15  2  0
  5 16  1  1
 10 17  1  6
 17 18  2  0
 17 19  1  0
  1  3  1  0
  2  5  1  0
M  END

$$$$
No_3090-/export/home/yangzhenyu/potential_scad_32_flow//YTHDC2/2024-12-06-03-22-00/
     RDKit          3D

 19 20  0  0  1  0  0  0  0  0999 V2000
    1.1787   -8.0297    3.5154 C   0  0  0  0  0  0  0  0  0  0  0  0
    1.0491   -6.8434    2.9820 C   0  0  0  0  0  0  0  0  0  0  0  0
    0.9905   -9.0774    2.6527 C   0  0  0  0  0  0  0  0  0  0  0  0
    0.7897   -8.9519    1.3691 C   0  0  0  0  0  0  0  0  0  0  0  0
    0.7018   -7.7198    0.7892 C   0  0  0  0  0  0  0  0  0  0  0  0
    0.8918   -6.5957    1.6117 C   0  0  0  0  0  0  0  0  0  0  0  0
    1.0711  -10.4814    3.2282 C   0  0  1  0  0  0  0  0  0  0  0  0
   -0.1055  -11.1328    3.5223 C   0  0  0  0  0  0  0  0  0  0  0  0
   -1.2061  -10.3495    3.8837 N   0  0  0  0  0  0  0  0  0  0  0  0
   -0.2161  -12.4281    3.4475 O   0  0  0  0  0  0  0  0  0  0  0  0
    0.8538   -5.3039    1.0900 N   0  0  0  0  0  0  0  0  0  0  0  0
   -2.4197  -10.7556    4.0959 C   0  0  0  0  0  0  0  0  0  0  0  0
    2.2746  -11.1124    3.3339 C   0  0  0  0  0  0  0  0  0  0  0  0
    2.8390  -11.0096    4.6808 O   0  0  0  0  0  0  0  0  0  0  0  0
   -3.0947  -10.3900    5.1981 C   0  0  0  0  0  0  0  0  0  0  0  0
   -4.4100  -10.9016    5.3499 C   0  0  0  0  0  0  0  0  0  0  0  0
   -4.9057  -11.6523    4.4208 C   0  0  0  0  0  0  0  0  0  0  0  0
   -4.1413  -12.1375    3.3540 C   0  0  0  0  0  0  0  0  0  0  0  0
   -2.9011  -11.7029    3.2254 C   0  0  0  0  0  0  0  0  0  0  0  0
  3  7  1  0
  7  8  1  0
  8  9  1  0
  8 10  2  0
  6 11  1  0
  9 12  1  0
  7 13  1  6
 13 14  1  0
  1  2  2  0
  2  6  1  0
  5  6  2  0
  4  5  1  0
  3  4  2  0
  1  3  1  0
 12 15  2  0
 15 16  1  0
 16 17  2  0
 17 18  1  0
 18 19  2  0
 12 19  1  0
M  END

$$$$
No_3091-/export/home/yangzhenyu/potential_scad_32_flow//YTHDC2/2024-12-06-03-22-00/
     RDKit          3D

 18 18  0  0  1  0  0  0  0  0999 V2000
    1.1787   -8.0297    3.5154 O   0  0  0  0  0  0  0  0  0  0  0  0
    0.6747   -7.4019    2.7838 C   0  0  0  0  0  0  0  0  0  0  0  0
    0.7594   -8.0032    1.4295 C   0  0  2  0  0  0  0  0  0  0  0  0
    1.4743   -7.4398    0.6034 C   0  0  0  0  0  0  0  0  0  0  0  0
    2.0533   -8.5664   -0.2689 C   0  0  0  0  0  0  0  0  0  0  0  0
    1.7676   -8.6433   -1.2787 O   0  0  0  0  0  0  0  0  0  0  0  0
    2.7363   -9.5834    0.2903 O   0  0  0  0  0  0  0  0  0  0  0  0
    0.3646   -6.2507    3.0429 O   0  0  0  0  0  0  0  0  0  0  0  0
   -0.3612   -8.7461    1.1661 C   0  0  0  0  0  0  0  0  0  0  0  0
   -1.5170   -8.3003    0.4877 O   0  0  0  0  0  0  0  0  0  0  0  0
   -0.1582  -10.1363    1.0748 N   0  0  0  0  0  0  0  0  0  0  0  0
   -0.9279  -11.1230    0.5946 C   0  0  0  0  0  0  0  0  0  0  0  0
   -0.6762  -12.2276    0.7808 C   0  0  0  0  0  0  0  0  0  0  0  0
   -1.3873  -13.3270    0.1879 C   0  0  0  0  0  0  0  0  0  0  0  0
   -2.2192  -12.9659   -0.8638 C   0  0  0  0  0  0  0  0  0  0  0  0
   -2.3573  -11.7115   -1.2328 C   0  0  0  0  0  0  0  0  0  0  0  0
   -3.1813  -11.4641   -2.3742 C   0  0  0  0  0  0  0  0  0  0  0  0
   -1.7055  -10.7155   -0.5248 C   0  0  0  0  0  0  0  0  0  0  0  0
  1  2  1  0
  2  3  1  0
  3  4  1  6
  4  5  1  0
  5  6  2  0
  5  7  1  0
  2  8  2  0
  3  9  1  0
  9 10  2  0
  9 11  1  0
 11 12  1  0
 16 17  1  0
 12 13  2  0
 13 14  1  0
 14 15  2  0
 15 16  1  0
 16 18  2  0
 12 18  1  0
M  END

$$$$
No_3092-/export/home/yangzhenyu/potential_scad_32_flow//YTHDC2/2024-12-06-03-22-00/
     RDKit          3D

 15 15  0  0  0  0  0  0  0  0999 V2000
    1.1787   -8.0297    3.5154 C   0  0  0  0  0  0  0  0  0  0  0  0
    1.1048   -9.2215    3.2892 C   0  0  0  0  0  0  0  0  0  0  0  0
    1.3627  -10.1721    4.3044 C   0  0  0  0  0  0  0  0  0  0  0  0
    1.7354  -11.4730    3.9023 C   0  0  0  0  0  0  0  0  0  0  0  0
    1.8080  -11.8127    2.7216 Cl  0  0  0  0  0  0  0  0  0  0  0  0
    1.0288   -7.1512    2.3639 C   0  0  0  0  0  0  0  0  0  0  0  0
    1.0231   -7.5785    1.1215 C   0  0  0  0  0  0  0  0  0  0  0  0
    1.1322   -8.8521    0.8441 C   0  0  0  0  0  0  0  0  0  0  0  0
    1.1685   -9.7711    1.8886 C   0  0  0  0  0  0  0  0  0  0  0  0
    1.1241   -9.3422   -0.4606 C   0  0  0  0  0  0  0  0  0  0  0  0
    1.6834   -8.9021   -1.3722 N   0  0  0  0  0  0  0  0  0  0  0  0
    0.2286  -10.2888   -0.7036 O   0  0  0  0  0  0  0  0  0  0  0  0
    1.0949   -5.6298    2.6576 Cl  0  0  0  0  0  0  0  0  0  0  0  0
    1.9449  -12.2241    5.0856 O   0  0  0  0  0  0  0  0  0  0  0  0
    2.8807   -8.9389   -1.7000 O   0  0  0  0  0  0  0  0  0  0  0  0
  2  3  1  0
  3  4  2  3
  4  5  1  0
  8 10  1  0
 10 11  1  0
 10 12  2  0
  6 13  1  0
  4 14  1  0
 11 15  2  0
  1  2  2  0
  2  9  1  0
  8  9  2  0
  7  8  1  0
  6  7  2  0
  1  6  1  0
M  END

$$$$
No_3093-/export/home/yangzhenyu/potential_scad_32_flow//YTHDC2/2024-12-06-03-22-00/
     RDKit          3D

 19 20  0  0  0  0  0  0  0  0999 V2000
    1.1787   -8.0297    3.5154 C   0  0  0  0  0  0  0  0  0  0  0  0
    1.1048   -9.2215    3.2892 C   0  0  0  0  0  0  0  0  0  0  0  0
    1.2339   -9.7611    2.0189 C   0  0  0  0  0  0  0  0  0  0  0  0
    1.3583   -9.0036    0.9764 C   0  0  0  0  0  0  0  0  0  0  0  0
    1.5996   -7.6362    1.1311 C   0  0  0  0  0  0  0  0  0  0  0  0
    1.4830   -7.0928    2.3626 C   0  0  0  0  0  0  0  0  0  0  0  0
    1.5395   -5.7300    2.6182 C   0  0  0  0  0  0  0  0  0  0  0  0
    1.1775  -11.2233    1.8407 N   0  0  0  0  0  0  0  0  0  0  0  0
    2.0213  -12.0833    2.1504 C   0  0  0  0  0  0  0  0  0  0  0  0
    1.7082  -13.4268    1.7869 C   0  0  0  0  0  0  0  0  0  0  0  0
    0.5699  -13.8924    2.2308 C   0  0  0  0  0  0  0  0  0  0  0  0
    0.6093  -14.9593    3.1632 C   0  0  0  0  0  0  0  0  0  0  0  0
    1.8106  -15.8012    2.9469 C   0  0  0  0  0  0  0  0  0  0  0  0
    2.9113  -15.3656    2.2745 C   0  0  0  0  0  0  0  0  0  0  0  0
    2.9393  -14.2114    1.6622 C   0  0  0  0  0  0  0  0  0  0  0  0
    1.8150  -17.1409    3.4328 C   0  0  0  0  0  0  0  0  0  0  0  0
    0.8558  -17.6611    4.3089 C   0  0  0  0  0  0  0  0  0  0  0  0
    0.8064  -18.9395    4.7345 C   0  0  0  0  0  0  0  0  0  0  0  0
    1.2818  -19.9076    3.9352 C   0  0  0  0  0  0  0  0  0  0  0  0
  6  7  1  0
  3  8  1  0
  8  9  1  0
  9 10  1  0
 10 11  1  0
 11 12  1  0
 12 13  1  0
 13 14  1  0
 10 15  1  0
 14 15  1  0
 13 16  1  0
 16 17  2  3
 17 18  1  0
 18 19  2  0
  1  2  2  0
  2  3  1  0
  3  4  2  0
  4  5  1  0
  5  6  2  0
  1  6  1  0
M  END

$$$$
No_3094-/export/home/yangzhenyu/potential_scad_32_flow//YTHDC2/2024-12-06-03-22-00/
     RDKit          3D

 18 20  0  0  0  0  0  0  0  0999 V2000
    1.1787   -8.0297    3.5154 C   0  0  0  0  0  0  0  0  0  0  0  0
    1.0491   -6.8434    2.9820 C   0  0  0  0  0  0  0  0  0  0  0  0
    0.0950   -8.8404    3.2292 C   0  0  0  0  0  0  0  0  0  0  0  0
   -0.9173   -8.4596    2.5152 C   0  0  0  0  0  0  0  0  0  0  0  0
   -1.0331   -7.2162    2.0653 C   0  0  0  0  0  0  0  0  0  0  0  0
   -0.0105   -6.3168    2.3081 C   0  0  0  0  0  0  0  0  0  0  0  0
    0.0485   -4.9783    1.8782 C   0  0  0  0  0  0  0  0  0  0  0  0
   -0.6974   -4.6139    0.8644 C   0  0  0  0  0  0  0  0  0  0  0  0
   -0.9180   -3.5193    0.5673 C   0  0  0  0  0  0  0  0  0  0  0  0
   -0.1429   -2.4115    1.0656 C   0  0  0  0  0  0  0  0  0  0  0  0
    0.7432   -2.6592    1.9795 C   0  0  0  0  0  0  0  0  0  0  0  0
    0.8890   -3.9997    2.3855 C   0  0  0  0  0  0  0  0  0  0  0  0
    0.1075  -10.2415    3.7148 C   0  0  0  0  0  0  0  0  0  0  0  0
   -1.0603  -10.8493    4.0536 C   0  0  0  0  0  0  0  0  0  0  0  0
    1.3737  -10.8485    4.1820 C   0  0  0  0  0  0  0  0  0  0  0  0
    1.4281  -12.1655    4.4054 C   0  0  0  0  0  0  0  0  0  0  0  0
   -1.0282  -12.2184    4.3274 C   0  0  0  0  0  0  0  0  0  0  0  0
    0.3167  -12.8844    4.3959 C   0  0  0  0  0  0  0  0  0  0  0  0
  6  7  1  0
  3 13  1  0
  1  2  2  0
  2  6  1  0
  5  6  2  0
  4  5  1  0
  3  4  2  0
  1  3  1  0
  7  8  2  0
  8  9  1  0
  9 10  2  0
 10 11  1  0
 11 12  2  0
  7 12  1  0
 13 14  2  0
 14 17  1  0
 17 18  2  0
 16 18  1  0
 15 16  2  0
 13 15  1  0
M  END

$$$$
No_3095-/export/home/yangzhenyu/potential_scad_32_flow//YTHDC2/2024-12-06-03-22-00/
     RDKit          3D

 18 19  0  0  0  0  0  0  0  0999 V2000
    1.1787   -8.0297    3.5154 C   0  0  0  0  0  0  0  0  0  0  0  0
    1.0491   -6.8434    2.9820 C   0  0  0  0  0  0  0  0  0  0  0  0
    1.9985   -8.9840    2.8958 C   0  0  0  0  0  0  0  0  0  0  0  0
    1.9135  -10.3404    3.6266 C   0  0  0  0  0  0  0  0  0  0  0  0
    0.9460  -10.6347    4.5748 C   0  0  0  0  0  0  0  0  0  0  0  0
   -0.0977   -9.6850    4.6652 C   0  0  0  0  0  0  0  0  0  0  0  0
   -0.0465   -8.4791    4.1040 C   0  0  0  0  0  0  0  0  0  0  0  0
    1.1124   -5.6985    3.4928 C   0  0  0  0  0  0  0  0  0  0  0  0
    1.1479   -4.3865    2.8826 C   0  0  0  0  0  0  0  0  0  0  0  0
    1.1138   -4.3232    1.5935 C   0  0  0  0  0  0  0  0  0  0  0  0
    1.0311   -5.4231    0.8378 C   0  0  0  0  0  0  0  0  0  0  0  0
    1.0426   -6.6877    1.4022 C   0  0  0  0  0  0  0  0  0  0  0  0
    0.8653   -7.6804    0.5756 C   0  0  0  0  0  0  0  0  0  0  0  0
   -0.3315   -8.2910    0.3006 N   0  0  0  0  0  0  0  0  0  0  0  0
   -0.2843   -9.5259   -0.3934 C   0  0  0  0  0  0  0  0  0  0  0  0
    0.4321  -10.5561    0.0571 C   0  0  0  0  0  0  0  0  0  0  0  0
    1.9099  -10.1796    0.2210 C   0  0  0  0  0  0  0  0  0  0  0  0
    2.3947   -9.0114    0.1720 C   0  0  0  0  0  0  0  0  0  0  0  0
  1  2  1  0
 12 13  1  0
 13 14  1  0
 14 15  1  0
 15 16  1  0
 16 17  1  0
 17 18  2  0
  2  8  2  0
  8  9  1  0
  9 10  2  0
 10 11  1  0
 11 12  2  0
  2 12  1  0
  1  3  2  0
  3  4  1  0
  4  5  2  0
  5  6  1  0
  6  7  2  0
  1  7  1  0
M  END

$$$$
No_3096-/export/home/yangzhenyu/potential_scad_32_flow//YTHDC2/2024-12-06-03-22-00/
     RDKit          3D

 18 19  0  0  1  0  0  0  0  0999 V2000
    1.1787   -8.0297    3.5154 C   0  0  0  0  0  0  0  0  0  0  0  0
    1.1048   -9.2215    3.2892 C   0  0  0  0  0  0  0  0  0  0  0  0
    1.2339   -9.7611    2.0189 C   0  0  0  0  0  0  0  0  0  0  0  0
    1.3583   -9.0036    0.9764 C   0  0  0  0  0  0  0  0  0  0  0  0
    1.5996   -7.6362    1.1311 C   0  0  0  0  0  0  0  0  0  0  0  0
    1.4830   -7.0928    2.3626 C   0  0  0  0  0  0  0  0  0  0  0  0
    1.4898   -5.7274    2.6199 C   0  0  0  0  0  0  0  0  0  0  0  0
    1.1681  -11.2222    1.8390 C   0  0  0  0  0  0  0  0  0  0  0  0
    0.7145  -11.5870    0.5424 C   0  0  0  0  0  0  0  0  0  0  0  0
    0.5927  -13.0110    0.4509 C   0  0  0  0  0  0  0  0  0  0  0  0
    0.9525  -13.8879    1.4418 C   0  0  2  0  0  0  0  0  0  0  0  0
    1.4790  -13.3992    2.6566 C   0  0  0  0  0  0  0  0  0  0  0  0
    1.5748  -12.0402    2.8872 C   0  0  0  0  0  0  0  0  0  0  0  0
    1.2474   -4.8589    1.6213 C   0  0  0  0  0  0  0  0  0  0  0  0
    1.1628   -3.3912    1.8591 F   0  0  0  0  0  0  0  0  0  0  0  0
    0.6548   -5.0773    0.5870 O   0  0  0  0  0  0  0  0  0  0  0  0
    2.1189  -11.5462    3.9810 O   0  0  0  0  0  0  0  0  0  0  0  0
    0.9347  -15.2408    1.2360 Cl  0  0  0  0  0  0  0  0  0  0  0  0
  6  7  1  0
  3  8  1  0
  8  9  1  0
 10 11  1  0
  8 13  1  0
 12 13  1  0
  7 14  2  3
 14 15  1  0
 14 16  1  0
 13 17  2  0
 11 18  1  6
  9 10  1  0
 11 12  1  0
  1  2  2  0
  2  3  1  0
  3  4  2  0
  4  5  1  0
  5  6  2  0
  1  6  1  0
M  END

$$$$
No_3097-/export/home/yangzhenyu/potential_scad_32_flow//YTHDC2/2024-12-06-03-22-00/
     RDKit          3D

 19 19  0  0  1  0  0  0  0  0999 V2000
    1.1787   -8.0297    3.5154 C   0  0  0  0  0  0  0  0  0  0  0  0
    1.0491   -6.8434    2.9820 C   0  0  0  0  0  0  0  0  0  0  0  0
    0.0950   -8.8404    3.2292 C   0  0  0  0  0  0  0  0  0  0  0  0
   -0.9173   -8.4596    2.5152 C   0  0  0  0  0  0  0  0  0  0  0  0
   -1.0331   -7.2162    2.0653 C   0  0  0  0  0  0  0  0  0  0  0  0
   -0.0105   -6.3168    2.3081 C   0  0  0  0  0  0  0  0  0  0  0  0
    0.1150   -4.9910    1.8495 C   0  0  0  0  0  0  0  0  0  0  0  0
   -0.1376   -4.7952    0.5550 O   0  0  0  0  0  0  0  0  0  0  0  0
    0.5335   -3.9179    2.6070 N   0  0  0  0  0  0  0  0  0  0  0  0
    0.2132  -10.5032    3.7125 Cl  0  0  0  0  0  0  0  0  0  0  0  0
    0.6975   -2.6414    2.2139 C   0  0  2  0  0  0  0  0  0  0  0  0
    1.7913   -2.4355    1.3788 C   0  0  0  0  0  0  0  0  0  0  0  0
    0.8679   -1.6353    3.3594 C   0  0  0  0  0  0  0  0  0  0  0  0
    0.1547   -1.9185    4.3833 C   0  0  0  0  0  0  0  0  0  0  0  0
   -0.7663   -1.0135    4.8967 C   0  0  0  0  0  0  0  0  0  0  0  0
   -2.2175   -6.7975    1.3920 C   0  0  0  0  0  0  0  0  0  0  0  0
   -3.2568   -7.3230    1.4806 C   0  0  0  0  0  0  0  0  0  0  0  0
   -4.4277   -6.9246    0.7056 C   0  0  0  0  0  0  0  0  0  0  0  0
   -5.3147   -6.1825    1.2919 C   0  0  0  0  0  0  0  0  0  0  0  0
  6  7  1  0
  7  8  2  0
  7  9  1  0
  3 10  1  0
  9 11  1  0
 11 12  1  6
 11 13  1  0
 13 14  1  0
 14 15  1  0
  5 16  1  0
 16 17  2  3
 17 18  1  0
 18 19  2  0
  1  2  2  0
  2  6  1  0
  5  6  2  0
  4  5  1  0
  3  4  2  0
  1  3  1  0
M  END

$$$$
No_3098-/export/home/yangzhenyu/potential_scad_32_flow//YTHDC2/2024-12-06-03-22-00/
     RDKit          3D

 17 18  0  0  0  0  0  0  0  0999 V2000
    1.1787   -8.0297    3.5154 C   0  0  0  0  0  0  0  0  0  0  0  0
    1.0491   -6.8434    2.9820 C   0  0  0  0  0  0  0  0  0  0  0  0
    0.9905   -9.0774    2.6527 C   0  0  0  0  0  0  0  0  0  0  0  0
    0.7897   -8.9519    1.3691 C   0  0  0  0  0  0  0  0  0  0  0  0
    0.7018   -7.7198    0.7892 C   0  0  0  0  0  0  0  0  0  0  0  0
    0.8918   -6.5957    1.6117 C   0  0  0  0  0  0  0  0  0  0  0  0
    1.0600  -10.5680    3.3321 C   0  0  0  0  0  0  0  0  0  0  0  0
    1.1634  -11.6086    2.5010 C   0  0  0  0  0  0  0  0  0  0  0  0
    0.9536  -12.6132    2.7378 C   0  0  0  0  0  0  0  0  0  0  0  0
    1.0197  -13.8517    1.8429 C   0  0  0  0  0  0  0  0  0  0  0  0
    1.4758  -13.6269    0.6063 C   0  0  0  0  0  0  0  0  0  0  0  0
    1.7942  -12.3322    0.2855 C   0  0  0  0  0  0  0  0  0  0  0  0
    1.6121  -11.2567    1.1295 C   0  0  0  0  0  0  0  0  0  0  0  0
    0.9660  -10.6146    4.6090 O   0  0  0  0  0  0  0  0  0  0  0  0
    0.8588   -5.2508    1.2052 O   0  0  0  0  0  0  0  0  0  0  0  0
    0.7600  -15.1876    2.2990 C   0  0  0  0  0  0  0  0  0  0  0  0
   -0.3743  -15.6763    2.3713 C   0  0  0  0  0  0  0  0  0  0  0  0
  1  2  1  0
  3  4  1  0
  2  6  1  0
  5  6  1  0
  3  7  1  0
  7  8  1  0
  7 14  2  0
  6 15  2  0
 10 16  1  0
 16 17  2  0
  1  3  1  0
  4  5  1  0
  8  9  2  0
  9 10  1  0
 10 11  2  0
 11 12  1  0
 12 13  2  0
  8 13  1  0
M  END

$$$$
No_3099-/export/home/yangzhenyu/potential_scad_32_flow//YTHDC2/2024-12-06-03-22-00/
     RDKit          3D

 18 20  0  0  0  0  0  0  0  0999 V2000
    1.1787   -8.0297    3.5154 C   0  0  0  0  0  0  0  0  0  0  0  0
    1.1048   -9.2215    3.2892 C   0  0  0  0  0  0  0  0  0  0  0  0
    1.3627  -10.1721    4.3044 C   0  0  0  0  0  0  0  0  0  0  0  0
    1.0682  -11.5187    4.0618 C   0  0  0  0  0  0  0  0  0  0  0  0
    0.6332  -11.9655    2.9682 C   0  0  0  0  0  0  0  0  0  0  0  0
    0.4776  -11.1308    1.9203 C   0  0  0  0  0  0  0  0  0  0  0  0
    0.7470   -9.8274    2.0368 C   0  0  0  0  0  0  0  0  0  0  0  0
    0.5535   -7.1314    2.6861 N   0  0  0  0  0  0  0  0  0  0  0  0
    0.3069   -7.6119    1.3920 C   0  0  0  0  0  0  0  0  0  0  0  0
   -0.1949   -6.5776    0.5916 C   0  0  0  0  0  0  0  0  0  0  0  0
    0.2235   -8.7914    1.1958 C   0  0  0  0  0  0  0  0  0  0  0  0
    0.4916  -13.3917    2.7118 C   0  0  0  0  0  0  0  0  0  0  0  0
   -0.7424  -13.8517    2.3266 C   0  0  0  0  0  0  0  0  0  0  0  0
   -0.9267  -15.2353    2.2051 C   0  0  0  0  0  0  0  0  0  0  0  0
    0.0468  -16.1259    2.3949 C   0  0  0  0  0  0  0  0  0  0  0  0
    1.3520  -15.6898    2.8899 C   0  0  0  0  0  0  0  0  0  0  0  0
    1.5506  -14.2804    3.0836 C   0  0  0  0  0  0  0  0  0  0  0  0
   -1.4413   -6.3007    0.5536 C   0  0  0  0  0  0  0  0  0  0  0  0
  9 10  1  0
  5 12  1  0
 10 18  1  0
 12 13  2  0
 13 14  1  0
 14 15  2  0
 15 16  1  0
 16 17  2  0
 12 17  1  0
  2  3  1  0
  3  4  2  0
  4  5  1  0
  5  6  2  0
  6  7  1  0
  1  2  2  0
  2  7  1  0
  7 11  2  0
  9 11  1  0
  8  9  2  0
  1  8  1  0
M  END

$$$$
No_3100-/export/home/yangzhenyu/potential_scad_32_flow//YTHDC2/2024-12-06-03-22-00/
     RDKit          3D

 17 18  0  0  0  0  0  0  0  0999 V2000
    1.1787   -8.0297    3.5154 C   0  0  0  0  0  0  0  0  0  0  0  0
    1.1048   -9.2215    3.2892 C   0  0  0  0  0  0  0  0  0  0  0  0
    1.2339   -9.7611    2.0189 C   0  0  0  0  0  0  0  0  0  0  0  0
    1.4306   -8.9466    1.1170 C   0  0  0  0  0  0  0  0  0  0  0  0
    1.6532   -7.5949    1.1786 C   0  0  0  0  0  0  0  0  0  0  0  0
    1.4973   -7.0739    2.4258 C   0  0  0  0  0  0  0  0  0  0  0  0
    1.6907   -9.4669   -0.3972 C   0  0  0  0  0  0  0  0  0  0  0  0
    0.8065  -10.4256   -0.5870 O   0  0  0  0  0  0  0  0  0  0  0  0
    2.1625   -8.8574   -1.2572 O   0  0  0  0  0  0  0  0  0  0  0  0
    0.9344  -10.2044    4.3836 C   0  0  0  0  0  0  0  0  0  0  0  0
    0.3112  -11.4806    3.7957 C   0  0  0  0  0  0  0  0  0  0  0  0
    1.0492  -12.6387    3.8031 C   0  0  0  0  0  0  0  0  0  0  0  0
    0.6548  -13.7592    3.0661 C   0  0  0  0  0  0  0  0  0  0  0  0
   -0.6619  -13.7214    2.7838 C   0  0  0  0  0  0  0  0  0  0  0  0
   -1.4360  -12.7311    2.7586 C   0  0  0  0  0  0  0  0  0  0  0  0
   -0.9675  -11.5289    3.3701 C   0  0  0  0  0  0  0  0  0  0  0  0
    1.4307  -14.9229    3.0802 N   0  0  0  0  0  0  0  0  0  0  0  0
  4  7  1  0
  7  8  1  0
  7  9  2  0
  2 10  1  0
 10 11  1  0
 13 17  1  0
 11 12  2  0
 12 13  1  0
 13 14  2  0
 14 15  1  0
 15 16  2  0
 11 16  1  0
  1  2  2  0
  2  3  1  0
  3  4  2  0
  4  5  1  0
  5  6  2  0
  1  6  1  0
M  END

$$$$
No_3101-/export/home/yangzhenyu/potential_scad_32_flow//YTHDC2/2024-12-06-03-22-00/
     RDKit          3D

 18 19  0  0  0  0  0  0  0  0999 V2000
    1.1787   -8.0297    3.5154 C   0  0  0  0  0  0  0  0  0  0  0  0
    1.0491   -6.8434    2.9820 C   0  0  0  0  0  0  0  0  0  0  0  0
    0.9905   -9.0774    2.6527 C   0  0  0  0  0  0  0  0  0  0  0  0
    0.7897   -8.9519    1.3691 C   0  0  0  0  0  0  0  0  0  0  0  0
    0.7018   -7.7198    0.7892 C   0  0  0  0  0  0  0  0  0  0  0  0
    0.8918   -6.5957    1.6117 C   0  0  0  0  0  0  0  0  0  0  0  0
    1.0998  -10.4710    3.2437 C   0  0  0  0  0  0  0  0  0  0  0  0
    0.0472  -11.2546    3.3963 C   0  0  0  0  0  0  0  0  0  0  0  0
    0.1622  -12.5732    3.4140 C   0  0  0  0  0  0  0  0  0  0  0  0
    1.4566  -13.0980    3.0551 C   0  0  0  0  0  0  0  0  0  0  0  0
    2.5435  -12.3437    2.8391 N   0  0  0  0  0  0  0  0  0  0  0  0
    2.3484  -11.0622    2.7952 C   0  0  0  0  0  0  0  0  0  0  0  0
    1.5532  -14.5432    3.1351 C   0  0  0  0  0  0  0  0  0  0  0  0
    0.8881   -5.2636    1.1804 O   0  0  0  0  0  0  0  0  0  0  0  0
    1.0553  -15.3590    2.2760 C   0  0  0  0  0  0  0  0  0  0  0  0
    0.8230  -16.6165    2.5578 C   0  0  0  0  0  0  0  0  0  0  0  0
    0.3271  -17.2680    1.8895 C   0  0  0  0  0  0  0  0  0  0  0  0
    0.0930  -17.0376    0.5676 C   0  0  0  0  0  0  0  0  0  0  0  0
  1  2  1  0
  3  4  1  0
  2  6  1  0
  5  6  1  0
  3  7  1  0
 10 13  1  0
  6 14  2  0
 13 15  1  0
 15 16  1  0
 16 17  2  3
 17 18  1  0
  1  3  1  0
  4  5  1  0
  7  8  2  0
  8  9  1  0
  9 10  2  0
 10 11  1  0
 11 12  2  0
  7 12  1  0
M  END

$$$$
No_3102-/export/home/yangzhenyu/potential_scad_32_flow//YTHDC2/2024-12-06-03-22-00/
     RDKit          3D

 17 18  0  0  0  0  0  0  0  0999 V2000
    1.1787   -8.0297    3.5154 C   0  0  0  0  0  0  0  0  0  0  0  0
    1.1048   -9.2215    3.2892 C   0  0  0  0  0  0  0  0  0  0  0  0
    1.3627  -10.1721    4.3044 C   0  0  0  0  0  0  0  0  0  0  0  0
    2.3720  -10.8948    4.2468 C   0  0  0  0  0  0  0  0  0  0  0  0
    0.8234   -7.0464    2.5717 C   0  0  0  0  0  0  0  0  0  0  0  0
    0.4328   -7.4736    1.3042 C   0  0  0  0  0  0  0  0  0  0  0  0
    0.3532   -8.7488    0.9919 C   0  0  0  0  0  0  0  0  0  0  0  0
    0.7039   -9.7094    1.9672 C   0  0  0  0  0  0  0  0  0  0  0  0
    0.6986  -10.9809    1.7122 C   0  0  0  0  0  0  0  0  0  0  0  0
   -0.1824  -11.8267    2.1190 C   0  0  0  0  0  0  0  0  0  0  0  0
   -0.0651  -13.2415    1.9847 C   0  0  0  0  0  0  0  0  0  0  0  0
   -1.0025  -14.1068    2.5488 C   0  0  0  0  0  0  0  0  0  0  0  0
   -0.7541  -15.4645    2.6837 C   0  0  0  0  0  0  0  0  0  0  0  0
    0.4840  -15.9435    2.6570 C   0  0  0  0  0  0  0  0  0  0  0  0
    1.6465  -15.1736    2.2388 C   0  0  0  0  0  0  0  0  0  0  0  0
    1.3164  -13.7493    2.0310 C   0  0  0  0  0  0  0  0  0  0  0  0
    0.9964   -5.3781    2.7989 C   0  0  0  0  0  0  0  0  0  0  0  0
  2  3  1  0
  3  4  1  0
  8  9  1  0
  9 10  1  0
  5 17  1  0
 10 11  1  0
 11 12  2  0
 12 13  1  0
 13 14  2  0
 14 15  1  0
 15 16  2  0
 11 16  1  0
  1  2  2  0
  2  8  1  0
  7  8  2  0
  6  7  1  0
  5  6  2  0
  1  5  1  0
M  END

$$$$
No_3103-/export/home/yangzhenyu/potential_scad_32_flow//YTHDC2/2024-12-06-03-22-00/
     RDKit          3D

 17 19  0  0  0  0  0  0  0  0999 V2000
    1.1787   -8.0297    3.5154 C   0  0  0  0  0  0  0  0  0  0  0  0
    1.0491   -6.8434    2.9820 C   0  0  0  0  0  0  0  0  0  0  0  0
    0.9905   -9.0774    2.6527 C   0  0  0  0  0  0  0  0  0  0  0  0
    0.9687   -8.6883    1.3634 C   0  0  0  0  0  0  0  0  0  0  0  0
    1.0948   -6.3768    1.7686 C   0  0  0  0  0  0  0  0  0  0  0  0
    0.9504   -7.3975    0.8471 C   0  0  0  0  0  0  0  0  0  0  0  0
    0.9617   -9.7173    0.3352 C   0  0  0  0  0  0  0  0  0  0  0  0
    1.3407  -10.9614    0.6281 N   0  0  0  0  0  0  0  0  0  0  0  0
    1.3365  -10.4712    2.9087 N   0  0  0  0  0  0  0  0  0  0  0  0
    1.4305  -11.3245    1.8711 C   0  0  0  0  0  0  0  0  0  0  0  0
    1.7304  -12.6078    2.4086 C   0  0  0  0  0  0  0  0  0  0  0  0
    1.5299  -13.1144    3.4825 C   0  0  0  0  0  0  0  0  0  0  0  0
    2.2382  -13.5048    1.2910 C   0  0  0  0  0  0  0  0  0  0  0  0
    1.3839  -14.5743    3.4943 C   0  0  0  0  0  0  0  0  0  0  0  0
    1.6563  -15.3977    2.5884 C   0  0  0  0  0  0  0  0  0  0  0  0
    2.1000  -14.8353    1.4020 C   0  0  0  0  0  0  0  0  0  0  0  0
    1.0057   -5.0289    1.3861 Br  0  0  0  0  0  0  0  0  0  0  0  0
 10 11  1  0
  5 17  1  0
  4  7  2  0
  7  8  1  0
  8 10  2  0
  9 10  1  0
  3  9  2  0
 11 12  2  0
 12 14  1  0
 14 15  2  0
 15 16  1  0
 13 16  2  0
 11 13  1  0
  1  2  2  0
  2  5  1  0
  5  6  2  0
  4  6  1  0
  3  4  1  0
  1  3  1  0
M  END

$$$$
No_3104-/export/home/yangzhenyu/potential_scad_32_flow//YTHDC2/2024-12-06-03-22-00/
     RDKit          3D

 17 18  0  0  0  0  0  0  0  0999 V2000
    1.1787   -8.0297    3.5154 C   0  0  0  0  0  0  0  0  0  0  0  0
    1.1048   -9.2215    3.2892 C   0  0  0  0  0  0  0  0  0  0  0  0
    1.3627  -10.1721    4.3044 C   0  0  0  0  0  0  0  0  0  0  0  0
    1.0682  -11.5187    4.0618 C   0  0  0  0  0  0  0  0  0  0  0  0
    0.6332  -11.9655    2.9682 C   0  0  0  0  0  0  0  0  0  0  0  0
    0.4776  -11.1308    1.9203 C   0  0  0  0  0  0  0  0  0  0  0  0
    0.7470   -9.8274    2.0368 C   0  0  0  0  0  0  0  0  0  0  0  0
    0.5536   -7.1314    2.6861 C   0  0  0  0  0  0  0  0  0  0  0  0
    0.2950   -7.6000    1.3275 C   0  0  0  0  0  0  0  0  0  0  0  0
    0.2693   -8.8631    1.0973 C   0  0  0  0  0  0  0  0  0  0  0  0
    0.4787  -13.3960    2.7088 C   0  0  0  0  0  0  0  0  0  0  0  0
    0.8701  -14.0431    1.7712 C   0  0  0  0  0  0  0  0  0  0  0  0
    1.7399  -14.9033    2.0153 C   0  0  0  0  0  0  0  0  0  0  0  0
    1.7283  -15.6885    3.2280 F   0  0  0  0  0  0  0  0  0  0  0  0
    2.7721  -15.4565    1.3618 O   0  0  0  0  0  0  0  0  0  0  0  0
   -0.1153   -9.2745   -0.2243 C   0  0  0  0  0  0  0  0  0  0  0  0
    0.6167   -9.2421   -1.2313 C   0  0  0  0  0  0  0  0  0  0  0  0
  5 11  1  0
 11 12  1  0
 12 13  2  3
 13 14  1  0
 13 15  1  0
 10 16  1  0
 16 17  1  0
  2  3  1  0
  3  4  2  0
  4  5  1  0
  5  6  2  0
  6  7  1  0
  1  2  2  0
  2  7  1  0
  7 10  2  0
  9 10  1  0
  8  9  2  0
  1  8  1  0
M  END

$$$$
No_3105-/export/home/yangzhenyu/potential_scad_32_flow//YTHDC2/2024-12-06-03-22-00/
     RDKit          3D

 20 21  0  0  0  0  0  0  0  0999 V2000
    1.1787   -8.0297    3.5154 C   0  0  0  0  0  0  0  0  0  0  0  0
    1.0491   -6.8434    2.9820 C   0  0  0  0  0  0  0  0  0  0  0  0
    0.0950   -8.8404    3.2292 C   0  0  0  0  0  0  0  0  0  0  0  0
   -0.9173   -8.4596    2.5152 C   0  0  0  0  0  0  0  0  0  0  0  0
   -1.0331   -7.2162    2.0653 C   0  0  0  0  0  0  0  0  0  0  0  0
   -0.0105   -6.3168    2.3081 C   0  0  0  0  0  0  0  0  0  0  0  0
    0.1935  -10.3737    3.7416 C   0  0  0  0  0  0  0  0  0  0  0  0
    1.2406  -10.8901    4.0986 C   0  0  0  0  0  0  0  0  0  0  0  0
    1.1186  -12.3145    4.4006 C   0  0  0  0  0  0  0  0  0  0  0  0
    0.8333  -12.9811    3.2728 C   0  0  0  0  0  0  0  0  0  0  0  0
    0.7667  -14.4534    3.4730 C   0  0  0  0  0  0  0  0  0  0  0  0
    0.7549  -15.3617    2.4627 C   0  0  0  0  0  0  0  0  0  0  0  0
    0.4923  -14.8369    1.1927 C   0  0  0  0  0  0  0  0  0  0  0  0
    0.4218  -13.4485    1.0043 C   0  0  0  0  0  0  0  0  0  0  0  0
    0.6481  -12.5693    1.9240 C   0  0  0  0  0  0  0  0  0  0  0  0
   -0.0383   -4.9781    1.8471 C   0  0  0  0  0  0  0  0  0  0  0  0
   -0.8051   -4.1320    2.3124 C   0  0  0  0  0  0  0  0  0  0  0  0
   -0.7081   -2.7810    1.7251 C   0  0  0  0  0  0  0  0  0  0  0  0
    0.0236   -2.4713    0.7087 C   0  0  0  0  0  0  0  0  0  0  0  0
    0.7911   -3.4189    0.1071 C   0  0  0  0  0  0  0  0  0  0  0  0
  3  7  1  0
  7  8  2  3
  8  9  1  0
  6 16  1  0
 16 17  1  0
 17 18  2  3
 18 19  1  0
 19 20  2  0
  9 10  1  0
  1  2  2  0
  2  6  1  0
  5  6  2  0
  4  5  1  0
  3  4  2  0
  1  3  1  0
 10 11  2  0
 11 12  1  0
 12 13  2  0
 13 14  1  0
 14 15  2  0
 10 15  1  0
M  END

$$$$
No_3106-/export/home/yangzhenyu/potential_scad_32_flow//YTHDC2/2024-12-06-03-22-00/
     RDKit          3D

 19 20  0  0  1  0  0  0  0  0999 V2000
    1.1787   -8.0297    3.5154 C   0  0  0  0  0  0  0  0  0  0  0  0
    1.1048   -9.2215    3.2892 C   0  0  0  0  0  0  0  0  0  0  0  0
    1.3627  -10.1721    4.3044 C   0  0  0  0  0  0  0  0  0  0  0  0
    1.7354  -11.4730    3.9024 C   0  0  0  0  0  0  0  0  0  0  0  0
    1.8080  -11.8127    2.7216 C   0  0  0  0  0  0  0  0  0  0  0  0
    1.5854  -11.0021    1.7249 C   0  0  0  0  0  0  0  0  0  0  0  0
    1.3573   -9.7389    1.9287 C   0  0  0  0  0  0  0  0  0  0  0  0
    1.2865   -8.8078    0.9161 C   0  0  0  0  0  0  0  0  0  0  0  0
    0.9210   -7.5140    1.1674 C   0  0  0  0  0  0  0  0  0  0  0  0
    1.0097   -7.0192    2.4369 C   0  0  0  0  0  0  0  0  0  0  0  0
    2.0674  -13.4733    2.3896 C   0  0  0  0  0  0  0  0  0  0  0  0
    2.1038  -14.2387    3.2890 O   0  0  0  0  0  0  0  0  0  0  0  0
    2.1306  -13.7440    1.1839 O   0  0  0  0  0  0  0  0  0  0  0  0
    0.8750   -5.5896    2.6742 Cl  0  0  0  0  0  0  0  0  0  0  0  0
    1.4250   -9.3457   -0.5772 Cl  0  0  0  0  0  0  0  0  0  0  0  0
    2.0515  -15.5865    2.9442 C   0  0  2  0  0  0  0  0  0  0  0  0
    3.1307  -16.2586    2.5646 C   0  0  0  0  0  0  0  0  0  0  0  0
    0.7867  -15.8379    2.2734 C   0  0  0  0  0  0  0  0  0  0  0  0
   -0.3567  -15.6109    2.7897 C   0  0  0  0  0  0  0  0  0  0  0  0
  5 11  1  0
 11 12  1  0
 11 13  2  0
 10 14  1  0
  8 15  1  0
 12 16  1  0
 16 17  1  6
 16 18  1  0
 18 19  1  0
  1  2  2  0
  7  8  2  0
  8  9  1  0
  9 10  2  0
  1 10  1  0
  2  3  1  0
  3  4  2  0
  4  5  1  0
  5  6  2  0
  6  7  1  0
  2  7  1  0
M  END

$$$$
No_3107-/export/home/yangzhenyu/potential_scad_32_flow//YTHDC2/2024-12-06-03-22-00/
     RDKit          3D

 19 21  0  0  0  0  0  0  0  0999 V2000
    1.1787   -8.0297    3.5154 C   0  0  0  0  0  0  0  0  0  0  0  0
    1.0491   -6.8434    2.9820 C   0  0  0  0  0  0  0  0  0  0  0  0
    1.9985   -8.9840    2.8958 C   0  0  0  0  0  0  0  0  0  0  0  0
    1.9135  -10.3404    3.6266 C   0  0  0  0  0  0  0  0  0  0  0  0
    1.3291  -11.3908    3.0222 C   0  0  0  0  0  0  0  0  0  0  0  0
    1.2749  -12.5326    3.7562 C   0  0  0  0  0  0  0  0  0  0  0  0
    1.2373   -6.5190    1.7857 C   0  0  0  0  0  0  0  0  0  0  0  0
    1.5105   -7.4908    0.8100 C   0  0  0  0  0  0  0  0  0  0  0  0
    1.8993   -8.7823    1.3476 C   0  0  0  0  0  0  0  0  0  0  0  0
    0.7313  -13.7247    3.2117 C   0  0  0  0  0  0  0  0  0  0  0  0
    0.3347  -13.6844    1.9252 C   0  0  0  0  0  0  0  0  0  0  0  0
    0.5398  -12.6478    1.1107 C   0  0  0  0  0  0  0  0  0  0  0  0
    1.0796  -11.4671    1.6421 C   0  0  0  0  0  0  0  0  0  0  0  0
    0.8613   -5.2334    1.2037 Cl  0  0  0  0  0  0  0  0  0  0  0  0
    2.4787   -9.6932    0.5773 C   0  0  0  0  0  0  0  0  0  0  0  0
    1.7607  -10.9145    0.5297 C   0  0  0  0  0  0  0  0  0  0  0  0
   -0.2190  -15.1113    1.3498 C   0  0  0  0  0  0  0  0  0  0  0  0
    0.6962  -16.0895    1.3860 C   0  0  0  0  0  0  0  0  0  0  0  0
    1.8412  -16.0078    1.3902 C   0  0  0  0  0  0  0  0  0  0  0  0
  3  4  1  0
  4  5  1  0
  7 14  1  0
  9 15  1  0
 13 16  1  0
 15 16  1  0
 11 17  1  0
 17 18  1  0
 18 19  2  0
  1  2  2  0
  2  7  1  0
  7  8  2  0
  8  9  1  0
  3  9  2  0
  1  3  1  0
  5  6  2  0
  6 10  1  0
 10 11  2  0
 11 12  1  0
 12 13  2  0
  5 13  1  0
M  END

$$$$
No_3108-/export/home/yangzhenyu/potential_scad_32_flow//YTHDC2/2024-12-06-03-22-00/
     RDKit          3D

 19 19  0  0  0  0  0  0  0  0999 V2000
    1.1787   -8.0297    3.5154 C   0  0  0  0  0  0  0  0  0  0  0  0
    1.0491   -6.8434    2.9820 C   0  0  0  0  0  0  0  0  0  0  0  0
    0.0950   -8.8404    3.2292 C   0  0  0  0  0  0  0  0  0  0  0  0
   -0.9173   -8.4596    2.5152 C   0  0  0  0  0  0  0  0  0  0  0  0
   -1.0331   -7.2162    2.0653 C   0  0  0  0  0  0  0  0  0  0  0  0
   -0.0105   -6.3168    2.3081 C   0  0  0  0  0  0  0  0  0  0  0  0
    0.0485   -4.9783    1.8782 C   0  0  0  0  0  0  0  0  0  0  0  0
    0.9625   -4.1072    2.3252 N   0  0  0  0  0  0  0  0  0  0  0  0
   -0.0507   -4.7728    0.4871 O   0  0  0  0  0  0  0  0  0  0  0  0
    0.1527  -10.2796    3.6613 O   0  0  0  0  0  0  0  0  0  0  0  0
    1.2368  -10.9507    4.0498 C   0  0  0  0  0  0  0  0  0  0  0  0
    2.2558  -10.6338    4.1284 C   0  0  0  0  0  0  0  0  0  0  0  0
    0.7933  -12.3425    4.0878 C   0  0  0  0  0  0  0  0  0  0  0  0
   -0.2591  -12.7863    3.5807 C   0  0  0  0  0  0  0  0  0  0  0  0
   -0.2262  -13.0810    2.2994 C   0  0  0  0  0  0  0  0  0  0  0  0
   -0.7618  -12.4063    1.3307 O   0  0  0  0  0  0  0  0  0  0  0  0
    0.7717  -13.9534    1.8071 N   0  0  0  0  0  0  0  0  0  0  0  0
    1.1121  -14.2025    0.5211 C   0  0  0  0  0  0  0  0  0  0  0  0
    0.2098  -14.8505   -0.0844 C   0  0  0  0  0  0  0  0  0  0  0  0
  6  7  1  0
  7  8  1  0
  7  9  2  0
  3 10  1  0
 10 11  1  0
 11 12  2  0
 11 13  1  0
 13 14  1  0
 14 15  1  0
 15 16  2  0
 15 17  1  0
 17 18  1  0
 18 19  1  0
  1  2  2  0
  2  6  1  0
  5  6  2  0
  4  5  1  0
  3  4  2  0
  1  3  1  0
M  END

$$$$
No_3109-/export/home/yangzhenyu/potential_scad_32_flow//YTHDC2/2024-12-06-03-22-00/
     RDKit          3D

 20 22  0  0  1  0  0  0  0  0999 V2000
    1.1787   -8.0297    3.5154 C   0  0  0  0  0  0  0  0  0  0  0  0
    1.1048   -9.2215    3.2892 C   0  0  0  0  0  0  0  0  0  0  0  0
    1.2339   -9.7611    2.0189 C   0  0  0  0  0  0  0  0  0  0  0  0
    1.3583   -9.0036    0.9764 C   0  0  0  0  0  0  0  0  0  0  0  0
    1.5996   -7.6362    1.1311 C   0  0  0  0  0  0  0  0  0  0  0  0
    1.4830   -7.0928    2.3626 C   0  0  0  0  0  0  0  0  0  0  0  0
    1.1008  -11.2372    1.8542 C   0  0  2  0  0  0  0  0  0  0  0  0
    0.4812  -11.6084    0.6459 C   0  0  0  0  0  0  0  0  0  0  0  0
   -0.6166  -12.2864    0.7859 C   0  0  0  0  0  0  0  0  0  0  0  0
   -0.4917  -13.4151    1.6039 C   0  0  1  0  0  0  0  0  0  0  0  0
    0.2672  -13.1823    2.8893 N   0  0  0  0  0  0  0  0  0  0  0  0
    1.2342  -12.1794    2.8320 C   0  0  2  0  0  0  0  0  0  0  0  0
    2.0914  -12.1502    3.7661 F   0  0  0  0  0  0  0  0  0  0  0  0
   -1.4383  -14.3758    1.8482 C   0  0  0  0  0  0  0  0  0  0  0  0
    1.6062   -5.6635    2.6496 C   0  0  0  0  0  0  0  0  0  0  0  0
   -1.2038  -15.6056    2.2958 C   0  0  0  0  0  0  0  0  0  0  0  0
   -2.1251  -16.5547    2.6262 C   0  0  0  0  0  0  0  0  0  0  0  0
   -3.3727  -16.2916    2.1697 C   0  0  0  0  0  0  0  0  0  0  0  0
   -3.6914  -15.1856    1.5035 C   0  0  0  0  0  0  0  0  0  0  0  0
   -2.7096  -14.1713    1.2851 C   0  0  0  0  0  0  0  0  0  0  0  0
  7  3  1  1
  7  8  1  0
  8  9  1  0
  9 10  1  0
 10 11  1  0
  7 12  1  0
 11 12  1  0
 12 13  1  1
 10 14  1  1
  6 15  1  0
  1  2  2  0
  2  3  1  0
  3  4  2  0
  4  5  1  0
  5  6  2  0
  1  6  1  0
 14 16  2  0
 16 17  1  0
 17 18  2  0
 18 19  1  0
 19 20  2  0
 14 20  1  0
M  END

$$$$
No_3110-/export/home/yangzhenyu/potential_scad_32_flow//YTHDC2/2024-12-06-03-22-00/
     RDKit          3D

 19 21  0  0  0  0  0  0  0  0999 V2000
    1.1787   -8.0297    3.5154 C   0  0  0  0  0  0  0  0  0  0  0  0
    1.0491   -6.8434    2.9820 C   0  0  0  0  0  0  0  0  0  0  0  0
    0.9905   -9.0774    2.6527 C   0  0  0  0  0  0  0  0  0  0  0  0
    0.7897   -8.9519    1.3691 C   0  0  0  0  0  0  0  0  0  0  0  0
    0.7018   -7.7198    0.7892 C   0  0  0  0  0  0  0  0  0  0  0  0
    0.8918   -6.5957    1.6117 C   0  0  0  0  0  0  0  0  0  0  0  0
    1.0998  -10.4710    3.2437 C   0  0  0  0  0  0  0  0  0  0  0  0
    0.0472  -11.2546    3.3963 C   0  0  0  0  0  0  0  0  0  0  0  0
    0.1622  -12.5732    3.4140 C   0  0  0  0  0  0  0  0  0  0  0  0
    1.4182  -13.1957    3.4048 C   0  0  0  0  0  0  0  0  0  0  0  0
    2.5550  -12.3947    3.0877 C   0  0  0  0  0  0  0  0  0  0  0  0
    2.4166  -11.0849    2.9699 C   0  0  0  0  0  0  0  0  0  0  0  0
    0.8666   -5.2662    1.1708 O   0  0  0  0  0  0  0  0  0  0  0  0
    1.4152  -14.5597    3.3707 C   0  0  0  0  0  0  0  0  0  0  0  0
    2.3089  -15.3467    2.7025 C   0  0  0  0  0  0  0  0  0  0  0  0
    2.3192  -16.7544    2.7814 C   0  0  0  0  0  0  0  0  0  0  0  0
    1.5096  -17.4221    3.4403 C   0  0  0  0  0  0  0  0  0  0  0  0
    0.5662  -16.7638    4.2170 C   0  0  0  0  0  0  0  0  0  0  0  0
    0.5032  -15.3861    4.1821 C   0  0  0  0  0  0  0  0  0  0  0  0
  1  2  1  0
  3  4  1  0
  2  6  1  0
  5  6  1  0
  3  7  1  0
  6 13  2  0
 10 14  1  0
  1  3  1  0
  4  5  1  0
 14 15  2  0
 15 16  1  0
 16 17  2  0
 17 18  1  0
 18 19  2  0
 14 19  1  0
  7  8  2  0
  8  9  1  0
  9 10  2  0
 10 11  1  0
 11 12  2  0
  7 12  1  0
M  END

$$$$
No_3111-/export/home/yangzhenyu/potential_scad_32_flow//YTHDC2/2024-12-06-03-22-00/
     RDKit          3D

 17 17  0  0  0  0  0  0  0  0999 V2000
    1.1787   -8.0297    3.5154 C   0  0  0  0  0  0  0  0  0  0  0  0
    1.0491   -6.8434    2.9820 C   0  0  0  0  0  0  0  0  0  0  0  0
    1.9985   -8.9840    2.8958 C   0  0  0  0  0  0  0  0  0  0  0  0
    1.9135  -10.3404    3.6266 C   0  0  0  0  0  0  0  0  0  0  0  0
    0.7479  -10.9191    3.7202 C   0  0  0  0  0  0  0  0  0  0  0  0
    1.3327   -6.5751    1.7543 O   0  0  0  0  0  0  0  0  0  0  0  0
    0.6590  -12.2975    3.5884 C   0  0  0  0  0  0  0  0  0  0  0  0
    0.9773   -5.7206    3.6622 O   0  0  0  0  0  0  0  0  0  0  0  0
   -0.1701  -12.8422    2.7518 C   0  0  0  0  0  0  0  0  0  0  0  0
   -1.3064  -12.1155    2.4676 C   0  0  0  0  0  0  0  0  0  0  0  0
   -1.4086  -10.8297    2.7917 C   0  0  0  0  0  0  0  0  0  0  0  0
   -0.3653  -10.1766    3.4163 C   0  0  0  0  0  0  0  0  0  0  0  0
   -0.0794  -14.1799    2.4054 C   0  0  0  0  0  0  0  0  0  0  0  0
   -1.1095  -15.0043    2.0777 C   0  0  0  0  0  0  0  0  0  0  0  0
    1.3583  -14.7260    2.2713 C   0  0  0  0  0  0  0  0  0  0  0  0
    1.5705  -16.0844    2.1395 C   0  0  0  0  0  0  0  0  0  0  0  0
    3.0676  -16.4781    2.1491 C   0  0  0  0  0  0  0  0  0  0  0  0
  1  2  1  0
  1  3  1  0
  3  4  1  0
  4  5  1  0
  2  6  2  0
  2  8  1  0
  9 13  1  0
 13 14  2  0
 13 15  1  0
 15 16  2  3
 16 17  1  0
  5  7  2  0
  7  9  1  0
  9 10  2  0
 10 11  1  0
 11 12  2  0
  5 12  1  0
M  END

$$$$
No_3112-/export/home/yangzhenyu/potential_scad_32_flow//YTHDC2/2024-12-06-03-22-00/
     RDKit          3D

 18 18  0  0  1  0  0  0  0  0999 V2000
    1.1787   -8.0297    3.5154 C   0  0  0  0  0  0  0  0  0  0  0  0
    1.1048   -9.2215    3.2892 C   0  0  0  0  0  0  0  0  0  0  0  0
    1.2339   -9.7611    2.0189 C   0  0  0  0  0  0  0  0  0  0  0  0
    1.3583   -9.0036    0.9764 C   0  0  0  0  0  0  0  0  0  0  0  0
    1.5996   -7.6362    1.1311 C   0  0  0  0  0  0  0  0  0  0  0  0
    1.4830   -7.0928    2.3626 C   0  0  0  0  0  0  0  0  0  0  0  0
    1.5395   -5.7300    2.6182 C   0  0  0  0  0  0  0  0  0  0  0  0
    1.1775  -11.2233    1.8407 C   0  0  0  0  0  0  0  0  0  0  0  0
    0.5085  -11.9762    2.1989 C   0  0  0  0  0  0  0  0  0  0  0  0
    0.4247  -13.3704    2.0465 C   0  0  2  0  0  0  0  0  0  0  0  0
    1.6054  -14.1557    2.4664 C   0  0  0  0  0  0  0  0  0  0  0  0
    1.8180  -15.4260    2.0939 C   0  0  0  0  0  0  0  0  0  0  0  0
    0.9720  -16.3583    2.3542 C   0  0  0  0  0  0  0  0  0  0  0  0
    1.3386  -17.7988    2.1989 C   0  0  0  0  0  0  0  0  0  0  0  0
    2.7448  -18.1273    2.7236 C   0  0  0  0  0  0  0  0  0  0  0  0
   -0.0807  -13.8562    0.7426 C   0  0  0  0  0  0  0  0  0  0  0  0
    1.2995   -4.7978    1.6869 O   0  0  0  0  0  0  0  0  0  0  0  0
    1.5083   -5.1727    3.9115 O   0  0  0  0  0  0  0  0  0  0  0  0
  6  7  1  0
  3  8  1  0
  8  9  2  3
  9 10  1  0
 10 11  1  0
 11 12  1  0
 12 13  1  0
 13 14  1  0
 14 15  1  0
 10 16  1  6
  7 17  2  0
  7 18  1  0
  1  2  2  0
  2  3  1  0
  3  4  2  0
  4  5  1  0
  5  6  2  0
  1  6  1  0
M  END

$$$$
No_3113-/export/home/yangzhenyu/potential_scad_32_flow//YTHDC2/2024-12-06-03-22-00/
     RDKit          3D

 19 21  0  0  0  0  0  0  0  0999 V2000
    1.1787   -8.0297    3.5154 C   0  0  0  0  0  0  0  0  0  0  0  0
    1.1048   -9.2215    3.2892 N   0  0  0  0  0  0  0  0  0  0  0  0
    1.0346   -9.7785    2.1176 C   0  0  0  0  0  0  0  0  0  0  0  0
    1.1237  -11.2310    2.0784 C   0  0  0  0  0  0  0  0  0  0  0  0
    1.4532  -12.1118    3.1715 C   0  0  0  0  0  0  0  0  0  0  0  0
    1.0405   -7.1954    2.2050 N   0  0  0  0  0  0  0  0  0  0  0  0
    1.0579   -7.7228    1.1136 C   0  0  0  0  0  0  0  0  0  0  0  0
    1.1050   -9.1062    0.9013 C   0  0  0  0  0  0  0  0  0  0  0  0
    1.0236  -13.3470    3.0328 C   0  0  0  0  0  0  0  0  0  0  0  0
    0.6903  -13.9477    1.9219 C   0  0  0  0  0  0  0  0  0  0  0  0
    0.5354  -13.2407    0.8079 C   0  0  0  0  0  0  0  0  0  0  0  0
    0.8090  -11.9021    0.8636 C   0  0  0  0  0  0  0  0  0  0  0  0
    0.9977   -9.5453   -0.3771 I   0  0  0  0  0  0  0  0  0  0  0  0
    0.5163  -15.4057    1.9478 C   0  0  0  0  0  0  0  0  0  0  0  0
    1.5859  -16.1862    2.1517 C   0  0  0  0  0  0  0  0  0  0  0  0
    1.5169  -17.5920    2.2849 C   0  0  0  0  0  0  0  0  0  0  0  0
    0.3296  -18.1728    2.1440 C   0  0  0  0  0  0  0  0  0  0  0  0
   -0.7724  -17.4347    1.9117 C   0  0  0  0  0  0  0  0  0  0  0  0
   -0.6893  -16.0580    1.8268 C   0  0  0  0  0  0  0  0  0  0  0  0
  3  4  1  0
  8 13  1  0
 10 14  1  0
 14 15  2  0
 15 16  1  0
 16 17  2  0
 17 18  1  0
 18 19  2  0
 14 19  1  0
  1  2  2  0
  2  3  1  0
  3  8  2  0
  7  8  1  0
  6  7  2  0
  1  6  1  0
  4  5  2  0
  5  9  1  0
  9 10  2  0
 10 11  1  0
 11 12  2  0
  4 12  1  0
M  END

$$$$
No_3114-/export/home/yangzhenyu/potential_scad_32_flow//YTHDC2/2024-12-06-03-22-00/
     RDKit          3D

 17 17  0  0  0  0  0  0  0  0999 V2000
    1.1787   -8.0297    3.5154 C   0  0  0  0  0  0  0  0  0  0  0  0
    1.1048   -9.2215    3.2892 C   0  0  0  0  0  0  0  0  0  0  0  0
    1.3627  -10.1721    4.3044 C   0  0  0  0  0  0  0  0  0  0  0  0
    1.7354  -11.4730    3.9023 C   0  0  0  0  0  0  0  0  0  0  0  0
    1.8080  -11.8127    2.7216 C   0  0  0  0  0  0  0  0  0  0  0  0
    1.5854  -11.0021    1.7249 C   0  0  0  0  0  0  0  0  0  0  0  0
    1.3573   -9.7389    1.9287 C   0  0  0  0  0  0  0  0  0  0  0  0
    1.1102   -8.8712    0.9017 C   0  0  0  0  0  0  0  0  0  0  0  0
    0.5299   -7.6926    1.0325 O   0  0  0  0  0  0  0  0  0  0  0  0
    1.3970   -9.2634   -0.4035 O   0  0  0  0  0  0  0  0  0  0  0  0
    2.1059  -13.2053    2.3252 O   0  0  0  0  0  0  0  0  0  0  0  0
    1.8703  -13.7377    1.0683 C   0  0  0  0  0  0  0  0  0  0  0  0
    0.5742  -13.8978    0.8101 C   0  0  0  0  0  0  0  0  0  0  0  0
    0.2235  -13.5847   -0.4465 C   0  0  0  0  0  0  0  0  0  0  0  0
   -1.1012  -13.8360   -0.8476 C   0  0  0  0  0  0  0  0  0  0  0  0
   -1.9557  -14.2860   -0.1048 C   0  0  0  0  0  0  0  0  0  0  0  0
   -1.6778  -14.5114    1.2632 C   0  0  0  0  0  0  0  0  0  0  0  0
  1  2  1  0
  7  8  1  0
  8  9  2  0
  8 10  1  0
  5 11  1  0
 11 12  1  0
 12 13  1  0
 13 14  1  0
 14 15  2  3
 15 16  1  0
 16 17  2  0
  2  3  2  0
  3  4  1  0
  4  5  2  0
  5  6  1  0
  6  7  2  0
  2  7  1  0
M  END

$$$$
No_3115-/export/home/yangzhenyu/potential_scad_32_flow//YTHDC2/2024-12-06-03-22-00/
     RDKit          3D

 17 18  0  0  0  0  0  0  0  0999 V2000
    1.1787   -8.0297    3.5154 C   0  0  0  0  0  0  0  0  0  0  0  0
    1.0491   -6.8434    2.9820 C   0  0  0  0  0  0  0  0  0  0  0  0
    0.0950   -8.8404    3.2292 C   0  0  0  0  0  0  0  0  0  0  0  0
   -0.9173   -8.4596    2.5152 C   0  0  0  0  0  0  0  0  0  0  0  0
   -1.0331   -7.2162    2.0653 C   0  0  0  0  0  0  0  0  0  0  0  0
   -0.0105   -6.3168    2.3081 C   0  0  0  0  0  0  0  0  0  0  0  0
    0.1465  -10.2446    3.6981 C   0  0  0  0  0  0  0  0  0  0  0  0
   -1.0337  -10.8619    3.9439 O   0  0  0  0  0  0  0  0  0  0  0  0
    1.2606  -10.8123    4.2483 N   0  0  0  0  0  0  0  0  0  0  0  0
    2.4950  -10.5628    3.9349 O   0  0  0  0  0  0  0  0  0  0  0  0
   -0.0559   -4.8502    1.7617 C   0  0  0  0  0  0  0  0  0  0  0  0
    0.8166   -4.0284    2.2587 C   0  0  0  0  0  0  0  0  0  0  0  0
    0.9435   -2.7087    1.6789 C   0  0  0  0  0  0  0  0  0  0  0  0
    0.7096   -2.5038    0.3838 C   0  0  0  0  0  0  0  0  0  0  0  0
   -0.1019   -3.4686   -0.2799 C   0  0  0  0  0  0  0  0  0  0  0  0
   -0.4972   -4.6525    0.4460 C   0  0  0  0  0  0  0  0  0  0  0  0
   -0.8724   -3.1907   -1.4063 C   0  0  0  0  0  0  0  0  0  0  0  0
  3  7  1  0
  7  8  2  0
  7  9  1  0
  9 10  2  0
  6 11  1  0
 15 17  1  0
 11 12  2  0
 12 13  1  0
 13 14  2  0
 14 15  1  0
 15 16  2  0
 11 16  1  0
  1  2  2  0
  2  6  1  0
  5  6  2  0
  4  5  1  0
  3  4  2  0
  1  3  1  0
M  END

$$$$
No_3116-/export/home/yangzhenyu/potential_scad_32_flow//YTHDC2/2024-12-06-03-22-00/
     RDKit          3D

 18 18  0  0  0  0  0  0  0  0999 V2000
    1.1787   -8.0297    3.5154 C   0  0  0  0  0  0  0  0  0  0  0  0
    1.1048   -9.2215    3.2892 C   0  0  0  0  0  0  0  0  0  0  0  0
    1.3627  -10.1721    4.3044 I   0  0  0  0  0  0  0  0  0  0  0  0
    0.9283   -6.8899    2.5623 C   0  0  0  0  0  0  0  0  0  0  0  0
    0.6032   -7.3278    1.3253 C   0  0  0  0  0  0  0  0  0  0  0  0
    0.3772   -8.5791    1.0232 C   0  0  0  0  0  0  0  0  0  0  0  0
    0.6902   -9.5756    1.9076 C   0  0  0  0  0  0  0  0  0  0  0  0
    0.4374  -10.8493    1.5565 C   0  0  0  0  0  0  0  0  0  0  0  0
    1.5671  -11.6800    1.2469 C   0  0  0  0  0  0  0  0  0  0  0  0
    2.7544  -11.1376    0.8912 O   0  0  0  0  0  0  0  0  0  0  0  0
    1.5688  -12.9790    0.9479 N   0  0  0  0  0  0  0  0  0  0  0  0
    1.1300   -5.4985    2.9254 Cl  0  0  0  0  0  0  0  0  0  0  0  0
    0.0902   -8.9538   -0.3220 C   0  0  0  0  0  0  0  0  0  0  0  0
   -1.2275   -9.3159   -0.6852 O   0  0  0  0  0  0  0  0  0  0  0  0
    0.7794   -8.5939   -1.4002 O   0  0  0  0  0  0  0  0  0  0  0  0
    0.4618  -13.7970    1.0418 C   0  0  0  0  0  0  0  0  0  0  0  0
    0.3852  -14.5703    2.0956 C   0  0  0  0  0  0  0  0  0  0  0  0
    1.3523  -14.5957    3.1415 C   0  0  0  0  0  0  0  0  0  0  0  0
  2  3  1  0
  7  8  1  0
  8  9  1  0
  9 10  2  0
  9 11  1  0
  4 12  1  0
  6 13  1  0
 13 14  2  0
 13 15  1  0
 11 16  1  0
 16 17  1  0
 17 18  1  0
  1  2  2  0
  2  7  1  0
  6  7  2  0
  5  6  1  0
  4  5  2  0
  1  4  1  0
M  END

$$$$
No_3117-/export/home/yangzhenyu/potential_scad_32_flow//YTHDC2/2024-12-06-03-22-00/
     RDKit          3D

 18 18  0  0  1  0  0  0  0  0999 V2000
    1.1787   -8.0297    3.5154 C   0  0  0  0  0  0  0  0  0  0  0  0
    1.1048   -9.2215    3.2892 C   0  0  0  0  0  0  0  0  0  0  0  0
    1.3627  -10.1721    4.3044 C   0  0  0  0  0  0  0  0  0  0  0  0
    2.3720  -10.8948    4.2468 C   0  0  0  0  0  0  0  0  0  0  0  0
    1.0579   -7.0441    2.4219 C   0  0  0  0  0  0  0  0  0  0  0  0
    0.8578   -7.4970    1.1686 C   0  0  0  0  0  0  0  0  0  0  0  0
    0.7382   -8.7683    0.8754 C   0  0  0  0  0  0  0  0  0  0  0  0
    0.8882   -9.7347    1.9238 C   0  0  0  0  0  0  0  0  0  0  0  0
    0.9437  -11.0299    1.7005 C   0  0  0  0  0  0  0  0  0  0  0  0
    0.4602  -11.5370    0.8140 O   0  0  0  0  0  0  0  0  0  0  0  0
    1.8018  -11.8887    2.3914 Br  0  0  0  0  0  0  0  0  0  0  0  0
    3.5301  -10.0778    5.0331 O   0  0  0  0  0  0  0  0  0  0  0  0
    1.1906   -5.5975    2.7169 O   0  0  0  0  0  0  0  0  0  0  0  0
    0.7665   -4.7215    1.8557 C   0  0  1  0  0  0  0  0  0  0  0  0
   -0.5634   -4.6199    1.8936 Cl  0  0  0  0  0  0  0  0  0  0  0  0
    1.5631   -3.3183    2.2121 C   0  0  0  0  0  0  0  0  0  0  0  0
    1.8607   -2.5720    1.3143 C   0  0  0  0  0  0  0  0  0  0  0  0
    1.6534   -1.2887    1.4426 C   0  0  0  0  0  0  0  0  0  0  0  0
  2  3  1  0
  3  4  1  0
  8  9  1  0
  9 10  2  0
  9 11  1  0
  4 12  1  0
  5 13  1  0
 13 14  1  0
 14 15  1  1
 14 16  1  0
 16 17  1  0
 17 18  1  0
  1  2  2  0
  2  8  1  0
  7  8  2  0
  6  7  1  0
  5  6  2  0
  1  5  1  0
M  END

$$$$
No_3118-/export/home/yangzhenyu/potential_scad_32_flow//YTHDC2/2024-12-06-03-22-00/
     RDKit          3D

 19 19  0  0  0  0  0  0  0  0999 V2000
    1.1787   -8.0297    3.5154 C   0  0  0  0  0  0  0  0  0  0  0  0
    1.0491   -6.8434    2.9820 C   0  0  0  0  0  0  0  0  0  0  0  0
    0.9905   -9.0774    2.6527 C   0  0  0  0  0  0  0  0  0  0  0  0
    0.7897   -8.9519    1.3691 C   0  0  0  0  0  0  0  0  0  0  0  0
    0.7018   -7.7198    0.7892 C   0  0  0  0  0  0  0  0  0  0  0  0
    0.8918   -6.5957    1.6117 C   0  0  0  0  0  0  0  0  0  0  0  0
    1.0998  -10.4710    3.2437 C   0  0  0  0  0  0  0  0  0  0  0  0
    1.3102  -11.5554    2.5214 C   0  0  0  0  0  0  0  0  0  0  0  0
    1.4257  -12.8124    3.1919 C   0  0  0  0  0  0  0  0  0  0  0  0
    1.4301  -14.0627    2.4374 C   0  0  0  0  0  0  0  0  0  0  0  0
    0.8799   -5.2656    1.2046 C   0  0  0  0  0  0  0  0  0  0  0  0
    2.4117  -14.2020    1.4705 O   0  0  0  0  0  0  0  0  0  0  0  0
    1.5707  -15.2542    3.3145 O   0  0  0  0  0  0  0  0  0  0  0  0
    0.1870   -4.2989    1.9982 O   0  0  0  0  0  0  0  0  0  0  0  0
    0.2628   -2.9563    1.5934 C   0  0  0  0  0  0  0  0  0  0  0  0
    1.0748   -2.2821    2.2089 C   0  0  0  0  0  0  0  0  0  0  0  0
    2.3301   -2.3212    1.9834 C   0  0  0  0  0  0  0  0  0  0  0  0
   -0.3660   -2.5717    0.4443 O   0  0  0  0  0  0  0  0  0  0  0  0
    0.6237  -10.1168    0.2634 O   0  0  0  0  0  0  0  0  0  0  0  0
  3  7  1  0
  7  8  2  3
  8  9  1  0
  9 10  1  0
  6 11  1  0
 10 12  1  0
 10 13  2  0
 11 14  1  0
 14 15  1  0
 15 16  1  0
 16 17  1  0
 15 18  2  0
  4 19  1  0
  1  2  2  0
  2  6  1  0
  5  6  2  0
  4  5  1  0
  3  4  2  0
  1  3  1  0
M  END

$$$$
No_3119-/export/home/yangzhenyu/potential_scad_32_flow//YTHDC2/2024-12-06-03-22-00/
     RDKit          3D

 18 19  0  0  0  0  0  0  0  0999 V2000
    1.1787   -8.0297    3.5154 C   0  0  0  0  0  0  0  0  0  0  0  0
    1.1048   -9.2215    3.2892 C   0  0  0  0  0  0  0  0  0  0  0  0
    1.2339   -9.7611    2.0189 C   0  0  0  0  0  0  0  0  0  0  0  0
    1.3583   -9.0036    0.9764 C   0  0  0  0  0  0  0  0  0  0  0  0
    1.5996   -7.6362    1.1311 C   0  0  0  0  0  0  0  0  0  0  0  0
    1.4830   -7.0928    2.3626 C   0  0  0  0  0  0  0  0  0  0  0  0
    1.5395   -5.7300    2.6182 C   0  0  0  0  0  0  0  0  0  0  0  0
    1.1969  -11.3760    1.8433 C   0  0  0  0  0  0  0  0  0  0  0  0
    1.7910  -12.1287    2.5491 C   0  0  0  0  0  0  0  0  0  0  0  0
    1.6251  -13.4926    2.1118 C   0  0  0  0  0  0  0  0  0  0  0  0
    0.9177  -13.8665    1.0867 C   0  0  0  0  0  0  0  0  0  0  0  0
    0.3045  -12.8579    0.2778 C   0  0  0  0  0  0  0  0  0  0  0  0
    0.4464  -11.5554    0.6353 C   0  0  0  0  0  0  0  0  0  0  0  0
    2.2715  -14.5026    2.9519 C   0  0  0  0  0  0  0  0  0  0  0  0
    2.1058  -15.8813    2.3343 N   0  0  0  0  0  0  0  0  0  0  0  0
    1.2832  -16.7426    2.7077 C   0  0  0  0  0  0  0  0  0  0  0  0
    1.1736  -17.9417    2.1737 C   0  0  0  0  0  0  0  0  0  0  0  0
    1.1088  -18.8754    2.9995 C   0  0  0  0  0  0  0  0  0  0  0  0
  6  7  1  0
  3  8  1  0
 10 14  1  0
 14 15  1  0
 15 16  1  0
 16 17  1  0
 17 18  2  0
  1  2  2  0
  2  3  1  0
  3  4  2  0
  4  5  1  0
  5  6  2  0
  1  6  1  0
  8  9  2  0
  9 10  1  0
 10 11  2  0
 11 12  1  0
 12 13  2  0
  8 13  1  0
M  END

$$$$
No_3120-/export/home/yangzhenyu/potential_scad_32_flow//YTHDC2/2024-12-06-03-22-00/
     RDKit          3D

 20 22  0  0  0  0  0  0  0  0999 V2000
    1.1787   -8.0297    3.5154 C   0  0  0  0  0  0  0  0  0  0  0  0
    1.1048   -9.2215    3.2892 C   0  0  0  0  0  0  0  0  0  0  0  0
    1.2339   -9.7611    2.0189 C   0  0  0  0  0  0  0  0  0  0  0  0
    1.3583   -9.0036    0.9764 C   0  0  0  0  0  0  0  0  0  0  0  0
    1.5996   -7.6362    1.1311 C   0  0  0  0  0  0  0  0  0  0  0  0
    1.4830   -7.0928    2.3626 C   0  0  0  0  0  0  0  0  0  0  0  0
    1.1171  -11.3311    1.8661 C   0  0  0  0  0  0  0  0  0  0  0  0
    1.9975  -12.1095    2.2478 C   0  0  0  0  0  0  0  0  0  0  0  0
    1.7697  -13.4418    1.9079 C   0  0  0  0  0  0  0  0  0  0  0  0
    0.8824  -13.8564    1.1154 C   0  0  0  0  0  0  0  0  0  0  0  0
   -0.0664  -12.9335    0.5986 C   0  0  0  0  0  0  0  0  0  0  0  0
    0.1158  -11.5559    0.9634 C   0  0  0  0  0  0  0  0  0  0  0  0
    1.5680   -5.4347    2.6963 O   0  0  0  0  0  0  0  0  0  0  0  0
   -0.8332  -10.6602    0.5270 C   0  0  0  0  0  0  0  0  0  0  0  0
   -0.9968  -10.1939   -0.6900 C   0  0  0  0  0  0  0  0  0  0  0  0
   -1.9202   -9.2777   -1.1001 C   0  0  0  0  0  0  0  0  0  0  0  0
   -2.7871   -8.7915   -0.2845 C   0  0  0  0  0  0  0  0  0  0  0  0
   -2.7727   -9.2019    1.0605 C   0  0  0  0  0  0  0  0  0  0  0  0
   -1.8411  -10.1372    1.4372 C   0  0  0  0  0  0  0  0  0  0  0  0
   -1.9002   -8.7581   -2.4753 O   0  0  0  0  0  0  0  0  0  0  0  0
  3  7  1  0
  6 13  1  0
 12 14  1  0
 16 20  1  0
  1  2  2  0
  2  3  1  0
  3  4  2  0
  4  5  1  0
  5  6  2  0
  1  6  1  0
  7  8  2  0
  8  9  1  0
  9 10  2  0
 10 11  1  0
 11 12  2  0
  7 12  1  0
 14 15  2  0
 15 16  1  0
 16 17  2  0
 17 18  1  0
 18 19  2  0
 14 19  1  0
M  END

$$$$
No_3121-/export/home/yangzhenyu/potential_scad_32_flow//YTHDC2/2024-12-06-03-22-00/
     RDKit          3D

 18 18  0  0  1  0  0  0  0  0999 V2000
    1.1787   -8.0297    3.5154 C   0  0  0  0  0  0  0  0  0  0  0  0
    1.1048   -9.2215    3.2892 C   0  0  0  0  0  0  0  0  0  0  0  0
    1.2339   -9.7611    2.0189 C   0  0  0  0  0  0  0  0  0  0  0  0
    1.3583   -9.0036    0.9764 C   0  0  0  0  0  0  0  0  0  0  0  0
    1.5996   -7.6362    1.1311 C   0  0  0  0  0  0  0  0  0  0  0  0
    1.4830   -7.0928    2.3626 C   0  0  0  0  0  0  0  0  0  0  0  0
    1.5395   -5.7300    2.6182 C   0  0  0  0  0  0  0  0  0  0  0  0
    1.1775  -11.2233    1.8407 C   0  0  2  0  0  0  0  0  0  0  0  0
    0.7252  -11.5870    0.5412 C   0  0  0  0  0  0  0  0  0  0  0  0
   -0.1807  -10.9849   -0.0827 C   0  0  0  0  0  0  0  0  0  0  0  0
    1.2365  -12.1196    2.8076 C   0  0  0  0  0  0  0  0  0  0  0  0
    1.7156  -13.4024    2.6017 C   0  0  0  0  0  0  0  0  0  0  0  0
    0.8778  -14.4654    2.9470 C   0  0  0  0  0  0  0  0  0  0  0  0
    1.5389  -15.8311    2.8989 O   0  0  0  0  0  0  0  0  0  0  0  0
   -0.1830  -14.4887    3.4223 O   0  0  0  0  0  0  0  0  0  0  0  0
    1.6419   -5.1748    3.8726 O   0  0  0  0  0  0  0  0  0  0  0  0
    1.0254   -4.8429    1.7055 O   0  0  0  0  0  0  0  0  0  0  0  0
   -1.1878  -10.2416    0.4639 C   0  0  0  0  0  0  0  0  0  0  0  0
  6  7  1  0
  3  8  1  0
  8  9  1  0
  9 10  2  3
  8 11  1  1
 11 12  1  0
 12 13  1  0
 13 14  1  0
 13 15  2  0
  7 16  1  0
  7 17  2  0
 10 18  1  0
  1  2  2  0
  2  3  1  0
  3  4  2  0
  4  5  1  0
  5  6  2  0
  1  6  1  0
M  END

$$$$
No_3122-/export/home/yangzhenyu/potential_scad_32_flow//YTHDC2/2024-12-06-03-22-00/
     RDKit          3D

 17 18  0  0  1  0  0  0  0  0999 V2000
    1.1787   -8.0297    3.5154 C   0  0  0  0  0  0  0  0  0  0  0  0
    1.0491   -6.8434    2.9820 C   0  0  0  0  0  0  0  0  0  0  0  0
    0.9905   -9.0774    2.6527 C   0  0  0  0  0  0  0  0  0  0  0  0
    0.7897   -8.9519    1.3691 C   0  0  0  0  0  0  0  0  0  0  0  0
    0.7018   -7.7198    0.7892 C   0  0  0  0  0  0  0  0  0  0  0  0
    0.8918   -6.5957    1.6117 C   0  0  0  0  0  0  0  0  0  0  0  0
    1.0711  -10.4814    3.2282 C   0  0  1  0  0  0  0  0  0  0  0  0
   -0.1055  -11.1328    3.5223 C   0  0  0  0  0  0  0  0  0  0  0  0
   -0.1824  -12.4513    3.3816 C   0  0  0  0  0  0  0  0  0  0  0  0
    0.9872  -13.1679    2.9157 C   0  0  0  0  0  0  0  0  0  0  0  0
    0.9909  -14.7089    2.8092 C   0  0  0  0  0  0  0  0  0  0  0  0
    2.2546  -15.1588    2.3688 C   0  0  0  0  0  0  0  0  0  0  0  0
    2.2901  -16.5991    2.4799 C   0  0  0  0  0  0  0  0  0  0  0  0
    1.3907  -17.3434    2.8191 C   0  0  0  0  0  0  0  0  0  0  0  0
    0.2326  -16.8967    3.1693 C   0  0  0  0  0  0  0  0  0  0  0  0
    0.0477  -15.4976    3.2371 C   0  0  0  0  0  0  0  0  0  0  0  0
    2.1902  -11.3894    3.1231 S   0  0  0  0  0  0  0  0  0  0  0  0
  3  7  1  0
  7  8  1  0
  8  9  2  3
  9 10  1  0
 10 11  1  0
  7 17  1  6
 11 12  2  0
 12 13  1  0
 13 14  2  0
 14 15  1  0
 15 16  2  0
 11 16  1  0
  1  2  2  0
  2  6  1  0
  5  6  2  0
  4  5  1  0
  3  4  2  0
  1  3  1  0
M  END

$$$$
No_3123-/export/home/yangzhenyu/potential_scad_32_flow//YTHDC2/2024-12-06-03-22-00/
     RDKit          3D

 20 21  0  0  0  0  0  0  0  0999 V2000
    1.1787   -8.0297    3.5154 C   0  0  0  0  0  0  0  0  0  0  0  0
    1.1048   -9.2215    3.2892 C   0  0  0  0  0  0  0  0  0  0  0  0
    1.2339   -9.7611    2.0189 C   0  0  0  0  0  0  0  0  0  0  0  0
    1.3583   -9.0036    0.9764 C   0  0  0  0  0  0  0  0  0  0  0  0
    1.5996   -7.6362    1.1311 C   0  0  0  0  0  0  0  0  0  0  0  0
    1.4830   -7.0928    2.3626 C   0  0  0  0  0  0  0  0  0  0  0  0
    1.4898   -5.7274    2.6199 C   0  0  0  0  0  0  0  0  0  0  0  0
    1.1681  -11.2222    1.8390 C   0  0  0  0  0  0  0  0  0  0  0  0
    1.9047  -12.1147    2.3357 N   0  0  0  0  0  0  0  0  0  0  0  0
    1.4419  -13.3075    2.6641 C   0  0  0  0  0  0  0  0  0  0  0  0
    0.2142  -13.2647    3.3281 C   0  0  0  0  0  0  0  0  0  0  0  0
   -0.2040  -14.7413    3.3757 C   0  0  0  0  0  0  0  0  0  0  0  0
    0.7090  -15.7151    2.8501 C   0  0  0  0  0  0  0  0  0  0  0  0
    1.9205  -15.5913    2.3874 C   0  0  0  0  0  0  0  0  0  0  0  0
    2.3602  -14.2521    2.2513 C   0  0  0  0  0  0  0  0  0  0  0  0
    0.6579  -11.6375    0.5382 O   0  0  0  0  0  0  0  0  0  0  0  0
    1.6575   -5.2021    3.8516 O   0  0  0  0  0  0  0  0  0  0  0  0
    1.3643   -4.8405    1.6612 O   0  0  0  0  0  0  0  0  0  0  0  0
    0.1935  -17.3294    3.1395 S   0  0  0  0  0  0  0  0  0  0  0  0
    0.1250  -17.6064    4.4252 O   0  0  0  0  0  0  0  0  0  0  0  0
  6  7  1  0
  3  8  1  0
  8  9  1  0
  9 10  1  0
  8 16  2  0
  7 17  1  0
  7 18  2  0
 13 19  1  0
 19 20  2  0
  1  2  2  0
  2  3  1  0
  3  4  2  0
  4  5  1  0
  5  6  2  0
  1  6  1  0
 10 11  2  0
 11 12  1  0
 12 13  2  0
 13 14  1  0
 14 15  2  0
 10 15  1  0
M  END

$$$$
No_3124-/export/home/yangzhenyu/potential_scad_32_flow//YTHDC2/2024-12-06-03-22-00/
     RDKit          3D

 19 20  0  0  0  0  0  0  0  0999 V2000
    1.1787   -8.0297    3.5154 C   0  0  0  0  0  0  0  0  0  0  0  0
    1.0491   -6.8434    2.9820 C   0  0  0  0  0  0  0  0  0  0  0  0
    0.0950   -8.8404    3.2292 C   0  0  0  0  0  0  0  0  0  0  0  0
   -0.9173   -8.4596    2.5152 C   0  0  0  0  0  0  0  0  0  0  0  0
   -1.0331   -7.2162    2.0653 C   0  0  0  0  0  0  0  0  0  0  0  0
   -0.0105   -6.3168    2.3081 C   0  0  0  0  0  0  0  0  0  0  0  0
    0.3809  -10.4500    3.4985 C   0  0  0  0  0  0  0  0  0  0  0  0
    1.4790  -10.8064    3.9265 C   0  0  0  0  0  0  0  0  0  0  0  0
    1.7267  -12.2494    4.1207 C   0  0  0  0  0  0  0  0  0  0  0  0
    0.5392  -12.9118    3.6195 C   0  0  0  0  0  0  0  0  0  0  0  0
   -0.5327  -12.5133    3.2315 C   0  0  0  0  0  0  0  0  0  0  0  0
   -0.6785  -11.1416    3.1563 C   0  0  0  0  0  0  0  0  0  0  0  0
   -0.1048   -4.8236    1.8125 C   0  0  0  0  0  0  0  0  0  0  0  0
   -0.8093   -4.1064    2.3441 C   0  0  0  0  0  0  0  0  0  0  0  0
   -0.4306   -2.8195    2.6607 N   0  0  0  0  0  0  0  0  0  0  0  0
   -2.1485   -4.2958    2.6527 C   0  0  0  0  0  0  0  0  0  0  0  0
    0.8073  -14.3810    3.8128 C   0  0  0  0  0  0  0  0  0  0  0  0
    1.8836  -14.9226    2.8805 O   0  0  0  0  0  0  0  0  0  0  0  0
    0.5089   -2.5063    2.4624 H   0  0  0  0  0  0  0  0  0  0  0  0
  3  7  1  0
  6 13  1  0
 13 14  1  0
 14 15  2  0
 14 16  1  0
 10 17  1  0
 17 18  2  0
  1  2  2  0
  2  6  1  0
  5  6  2  0
  4  5  1  0
  3  4  2  0
  1  3  1  0
  7  8  2  0
  8  9  1  0
  9 10  2  0
 10 11  1  0
 11 12  2  0
  7 12  1  0
 15 19  1  0
M  END

$$$$
No_3125-/export/home/yangzhenyu/potential_scad_32_flow//YTHDC2/2024-12-06-03-22-00/
     RDKit          3D

 18 18  0  0  1  0  0  0  0  0999 V2000
    1.1787   -8.0297    3.5154 C   0  0  0  0  0  0  0  0  0  0  0  0
    1.0491   -6.8434    2.9820 C   0  0  0  0  0  0  0  0  0  0  0  0
    0.9905   -9.0774    2.6527 C   0  0  0  0  0  0  0  0  0  0  0  0
    0.7897   -8.9519    1.3691 C   0  0  0  0  0  0  0  0  0  0  0  0
    0.7018   -7.7198    0.7892 C   0  0  0  0  0  0  0  0  0  0  0  0
    0.8918   -6.5957    1.6117 C   0  0  0  0  0  0  0  0  0  0  0  0
    1.0998  -10.4710    3.2437 C   0  0  0  0  0  0  0  0  0  0  0  0
    2.1917  -10.8879    3.7399 N   0  0  0  0  0  0  0  0  0  0  0  0
    0.8894   -5.2522    1.2118 O   0  0  0  0  0  0  0  0  0  0  0  0
    0.0698  -11.2440    3.3054 C   0  0  2  0  0  0  0  0  0  0  0  0
   -1.1177  -10.6361    3.7921 C   0  0  0  0  0  0  0  0  0  0  0  0
   -1.0341   -9.7431    4.9946 C   0  0  0  0  0  0  0  0  0  0  0  0
   -2.2071   -9.0642    5.3753 Cl  0  0  0  0  0  0  0  0  0  0  0  0
    0.2146  -12.4679    3.0021 C   0  0  0  0  0  0  0  0  0  0  0  0
    0.6274  -12.9469    2.0397 C   0  0  0  0  0  0  0  0  0  0  0  0
    0.9560  -14.3965    1.8625 C   0  0  0  0  0  0  0  0  0  0  0  0
    0.2506  -15.3654    2.0942 C   0  0  0  0  0  0  0  0  0  0  0  0
    0.2935  -16.0171    2.9567 C   0  0  0  0  0  0  0  0  0  0  0  0
  1  2  1  0
  3  4  1  0
  2  6  1  0
  5  6  1  0
  3  7  1  0
  7  8  1  0
  6  9  2  0
  7 10  1  0
 10 11  1  1
 11 12  1  0
 12 13  1  0
 10 14  1  0
 14 15  2  3
 15 16  1  0
 16 17  2  3
 17 18  1  0
  1  3  1  0
  4  5  1  0
M  END

$$$$
No_3126-/export/home/yangzhenyu/potential_scad_32_flow//YTHDC2/2024-12-06-03-22-00/
     RDKit          3D

 19 20  0  0  1  0  0  0  0  0999 V2000
    1.1787   -8.0297    3.5154 C   0  0  0  0  0  0  0  0  0  0  0  0
    1.1048   -9.2215    3.2892 C   0  0  0  0  0  0  0  0  0  0  0  0
    1.2339   -9.7611    2.0189 C   0  0  0  0  0  0  0  0  0  0  0  0
    1.3583   -9.0036    0.9764 C   0  0  0  0  0  0  0  0  0  0  0  0
    1.5996   -7.6362    1.1311 C   0  0  0  0  0  0  0  0  0  0  0  0
    1.4758   -7.0006    2.1892 C   0  0  0  0  0  0  0  0  0  0  0  0
    1.2040  -11.2406    1.9066 C   0  0  0  0  0  0  0  0  0  0  0  0
    1.2335  -11.6809    0.6522 O   0  0  0  0  0  0  0  0  0  0  0  0
    1.1284  -11.9845    2.9327 N   0  0  0  0  0  0  0  0  0  0  0  0
    1.1612  -13.4007    2.8602 C   0  0  1  0  0  0  0  0  0  0  0  0
    2.3410  -13.9454    2.3409 C   0  0  0  0  0  0  0  0  0  0  0  0
    1.4013   -5.4395    2.5279 Cl  0  0  0  0  0  0  0  0  0  0  0  0
    2.2324  -15.4426    2.3628 C   0  0  0  0  0  0  0  0  0  0  0  0
    1.1555  -16.1267    2.7440 C   0  0  2  0  0  0  0  0  0  0  0  0
    0.1295  -15.4350    3.4784 C   0  0  0  0  0  0  0  0  0  0  0  0
    0.0927  -14.0769    3.4302 C   0  0  0  0  0  0  0  0  0  0  0  0
    1.3174  -17.5345    2.8212 I   0  0  0  0  0  0  0  0  0  0  0  0
    1.6708   -9.4799   -0.3252 Cl  0  0  0  0  0  0  0  0  0  0  0  0
   -0.8973  -13.5131    3.8739 O   0  0  0  0  0  0  0  0  0  0  0  0
  3  7  1  0
  7  8  2  0
  7  9  1  0
 10  9  1  1
 10 11  1  0
  6 12  1  0
 13 14  1  0
 10 16  1  0
 15 16  1  0
 14 17  1  1
  4 18  1  0
 16 19  2  0
 11 13  1  0
 14 15  1  0
  1  2  2  0
  2  3  1  0
  3  4  2  0
  4  5  1  0
  5  6  2  0
  1  6  1  0
M  END

$$$$
No_3127-/export/home/yangzhenyu/potential_scad_32_flow//YTHDC2/2024-12-06-03-22-00/
     RDKit          3D

 19 19  0  0  1  0  0  0  0  0999 V2000
    1.1787   -8.0297    3.5154 C   0  0  0  0  0  0  0  0  0  0  0  0
    1.0491   -6.8434    2.9820 C   0  0  1  0  0  0  0  0  0  0  0  0
    1.9985   -8.9840    2.8958 C   0  0  0  0  0  0  0  0  0  0  0  0
    1.9135  -10.3404    3.6266 C   0  0  0  0  0  0  0  0  0  0  0  0
    1.3291  -11.3908    3.0222 N   0  0  0  0  0  0  0  0  0  0  0  0
    1.7430   -5.7618    3.3349 N   0  0  0  0  0  0  0  0  0  0  0  0
    1.3496  -12.5835    3.6683 C   0  0  0  0  0  0  0  0  0  0  0  0
    0.6796  -13.6273    2.8465 C   0  0  0  0  0  0  0  0  0  0  0  0
    0.9616  -13.8879    1.7798 C   0  0  0  0  0  0  0  0  0  0  0  0
    2.1051  -13.2111    1.2922 C   0  0  0  0  0  0  0  0  0  0  0  0
    0.3065   -6.6122    1.8804 C   0  0  0  0  0  0  0  0  0  0  0  0
   -0.2218   -7.5734    1.2357 C   0  0  0  0  0  0  0  0  0  0  0  0
    0.2127   -5.2754    1.5010 C   0  0  0  0  0  0  0  0  0  0  0  0
    1.0458  -11.2517    1.5120 C   0  0  0  0  0  0  0  0  0  0  0  0
    1.8132  -11.9981    0.6391 C   0  0  0  0  0  0  0  0  0  0  0  0
   -0.5931   -4.8377    0.7046 C   0  0  0  0  0  0  0  0  0  0  0  0
   -0.4914   -3.5176    0.1697 C   0  0  0  0  0  0  0  0  0  0  0  0
    0.6528   -2.8376    0.6106 C   0  0  0  0  0  0  0  0  0  0  0  0
    1.5625   -3.3104    1.5137 C   0  0  0  0  0  0  0  0  0  0  0  0
  1  2  1  0
  1  3  1  0
  3  4  1  0
  4  5  1  0
  2  6  1  6
  5  7  1  0
  7  8  1  0
  8  9  1  0
  9 10  1  0
  2 11  1  0
 11 12  1  0
 11 13  1  0
  5 14  1  0
 10 15  1  0
 14 15  1  0
 13 16  1  0
 16 17  2  3
 17 18  1  0
 18 19  2  0
M  END

$$$$
No_3128-/export/home/yangzhenyu/potential_scad_32_flow//YTHDC2/2024-12-06-03-22-00/
     RDKit          3D

 18 19  0  0  0  0  0  0  0  0999 V2000
    1.1787   -8.0297    3.5154 C   0  0  0  0  0  0  0  0  0  0  0  0
    1.1048   -9.2215    3.2892 C   0  0  0  0  0  0  0  0  0  0  0  0
    1.2339   -9.7611    2.0189 C   0  0  0  0  0  0  0  0  0  0  0  0
    1.3583   -9.0036    0.9764 C   0  0  0  0  0  0  0  0  0  0  0  0
    1.5996   -7.6362    1.1311 C   0  0  0  0  0  0  0  0  0  0  0  0
    1.4830   -7.0928    2.3626 C   0  0  0  0  0  0  0  0  0  0  0  0
    1.5395   -5.7300    2.6182 C   0  0  0  0  0  0  0  0  0  0  0  0
    1.1775  -11.2233    1.8407 C   0  0  0  0  0  0  0  0  0  0  0  0
    0.5085  -11.9762    2.1989 C   0  0  0  0  0  0  0  0  0  0  0  0
    0.4247  -13.3704    2.0465 C   0  0  0  0  0  0  0  0  0  0  0  0
    1.6054  -14.1557    2.4664 C   0  0  0  0  0  0  0  0  0  0  0  0
    1.8180  -15.4260    2.0939 C   0  0  0  0  0  0  0  0  0  0  0  0
    0.9438  -16.1028    1.4958 C   0  0  0  0  0  0  0  0  0  0  0  0
   -0.2598  -15.5795    1.2163 C   0  0  0  0  0  0  0  0  0  0  0  0
   -0.4852  -14.2047    1.4619 C   0  0  0  0  0  0  0  0  0  0  0  0
   -1.6749  -13.6497    1.0440 N   0  0  0  0  0  0  0  0  0  0  0  0
    1.2982   -4.7978    1.6881 O   0  0  0  0  0  0  0  0  0  0  0  0
    2.0921   -5.0895    3.7184 O   0  0  0  0  0  0  0  0  0  0  0  0
  6  7  1  0
  3  8  1  0
  8  9  2  3
  9 10  1  0
  7 17  2  0
  7 18  1  0
 15 16  1  0
  1  2  2  0
  2  3  1  0
  3  4  2  0
  4  5  1  0
  5  6  2  0
  1  6  1  0
 10 11  2  0
 11 12  1  0
 12 13  2  0
 13 14  1  0
 14 15  2  0
 10 15  1  0
M  END

$$$$
No_3129-/export/home/yangzhenyu/potential_scad_32_flow//YTHDC2/2024-12-06-03-22-00/
     RDKit          3D

 18 19  0  0  1  0  0  0  0  0999 V2000
    1.1787   -8.0297    3.5154 C   0  0  0  0  0  0  0  0  0  0  0  0
    1.1048   -9.2215    3.2892 C   0  0  0  0  0  0  0  0  0  0  0  0
    1.2339   -9.7611    2.0189 C   0  0  0  0  0  0  0  0  0  0  0  0
    1.3583   -9.0036    0.9764 C   0  0  0  0  0  0  0  0  0  0  0  0
    1.5996   -7.6362    1.1311 C   0  0  0  0  0  0  0  0  0  0  0  0
    1.4830   -7.0928    2.3626 C   0  0  0  0  0  0  0  0  0  0  0  0
    1.1008  -11.2372    1.8542 C   0  0  2  0  0  0  0  0  0  0  0  0
    1.9749  -12.0938    2.2342 C   0  0  0  0  0  0  0  0  0  0  0  0
    1.7533  -13.4231    1.8956 C   0  0  1  0  0  0  0  0  0  0  0  0
    0.8624  -13.8318    1.1071 C   0  0  0  0  0  0  0  0  0  0  0  0
   -0.0624  -12.9093    0.5581 C   0  0  0  0  0  0  0  0  0  0  0  0
    0.1157  -11.5285    0.9404 C   0  0  0  0  0  0  0  0  0  0  0  0
    1.5561   -5.6354    2.6426 O   0  0  0  0  0  0  0  0  0  0  0  0
   -0.8303  -10.6355    0.4874 O   0  0  0  0  0  0  0  0  0  0  0  0
    2.9216  -14.5447    2.5140 Cl  0  0  0  0  0  0  0  0  0  0  0  0
    0.8561   -4.7425    1.9737 C   0  0  0  0  0  0  0  0  0  0  0  0
    0.2786   -3.8632    2.7263 C   0  0  0  0  0  0  0  0  0  0  0  0
    1.1794   -3.0149    3.4513 C   0  0  0  0  0  0  0  0  0  0  0  0
  7  3  1  6
  7  8  1  0
  9 10  1  0
  7 12  1  0
 11 12  1  0
  6 13  1  0
 12 14  2  0
  9 15  1  6
 13 16  1  0
 16 17  1  0
 17 18  1  0
  8  9  1  0
 10 11  1  0
  1  2  2  0
  2  3  1  0
  3  4  2  0
  4  5  1  0
  5  6  2  0
  1  6  1  0
M  END

$$$$
No_3130-/export/home/yangzhenyu/potential_scad_32_flow//YTHDC2/2024-12-06-03-22-00/
     RDKit          3D

 20 22  0  0  0  0  0  0  0  0999 V2000
    1.1787   -8.0297    3.5154 C   0  0  0  0  0  0  0  0  0  0  0  0
    1.0491   -6.8434    2.9820 C   0  0  0  0  0  0  0  0  0  0  0  0
    0.0950   -8.8404    3.2292 C   0  0  0  0  0  0  0  0  0  0  0  0
   -0.9173   -8.4596    2.5152 C   0  0  0  0  0  0  0  0  0  0  0  0
   -1.0331   -7.2162    2.0653 C   0  0  0  0  0  0  0  0  0  0  0  0
   -0.0105   -6.3168    2.3081 C   0  0  0  0  0  0  0  0  0  0  0  0
    0.1465  -10.2446    3.6981 C   0  0  0  0  0  0  0  0  0  0  0  0
   -1.0337  -10.8619    3.9439 C   0  0  0  0  0  0  0  0  0  0  0  0
   -2.1702  -10.4673    3.2991 C   0  0  0  0  0  0  0  0  0  0  0  0
   -2.1358   -9.2084    2.5791 C   0  0  0  0  0  0  0  0  0  0  0  0
   -3.2932  -11.2079    3.0734 C   0  0  0  0  0  0  0  0  0  0  0  0
   -0.0436   -4.9790    1.8066 C   0  0  0  0  0  0  0  0  0  0  0  0
   -0.8316   -4.1137    2.1997 C   0  0  0  0  0  0  0  0  0  0  0  0
   -2.0001   -4.2513    2.4239 O   0  0  0  0  0  0  0  0  0  0  0  0
   -0.3698   -2.8407    2.5722 O   0  0  0  0  0  0  0  0  0  0  0  0
   -3.0507  -12.5217    2.7419 C   0  0  0  0  0  0  0  0  0  0  0  0
   -4.1514  -13.4814    2.9513 C   0  0  0  0  0  0  0  0  0  0  0  0
   -5.3586  -13.0184    3.5640 C   0  0  0  0  0  0  0  0  0  0  0  0
   -5.5117  -11.7533    4.0244 C   0  0  0  0  0  0  0  0  0  0  0  0
   -4.4426  -10.8798    3.8679 C   0  0  0  0  0  0  0  0  0  0  0  0
  9 11  1  0
  6 12  1  0
 12 13  1  0
 13 14  2  0
 13 15  1  0
  4 10  2  0
  9 10  1  0
  8  9  2  0
  7  8  1  0
  3  7  2  0
  1  2  2  0
  2  6  1  0
  5  6  2  0
  4  5  1  0
  3  4  1  0
  1  3  1  0
 11 16  2  0
 16 17  1  0
 17 18  2  0
 18 19  1  0
 19 20  2  0
 11 20  1  0
M  END

$$$$
No_3131-/export/home/yangzhenyu/potential_scad_32_flow//YTHDC2/2024-12-06-03-22-00/
     RDKit          3D

 20 22  0  0  0  0  0  0  0  0999 V2000
    1.1787   -8.0297    3.5154 C   0  0  0  0  0  0  0  0  0  0  0  0
    1.1048   -9.2215    3.2892 C   0  0  0  0  0  0  0  0  0  0  0  0
    1.2339   -9.7611    2.0189 C   0  0  0  0  0  0  0  0  0  0  0  0
    1.1954  -11.2312    1.8661 C   0  0  0  0  0  0  0  0  0  0  0  0
    1.5546  -12.1691    2.7931 C   0  0  0  0  0  0  0  0  0  0  0  0
    0.5849   -7.0929    2.5729 C   0  0  0  0  0  0  0  0  0  0  0  0
    0.5651   -5.6716    2.6680 C   0  0  0  0  0  0  0  0  0  0  0  0
   -0.3793   -4.9147    2.1532 C   0  0  0  0  0  0  0  0  0  0  0  0
   -1.1338   -5.5833    1.1338 C   0  0  0  0  0  0  0  0  0  0  0  0
   -1.0551   -6.8583    0.7774 C   0  0  0  0  0  0  0  0  0  0  0  0
   -0.2221   -7.6590    1.5184 C   0  0  0  0  0  0  0  0  0  0  0  0
    1.5228  -13.5421    2.4317 C   0  0  0  0  0  0  0  0  0  0  0  0
    1.1367  -13.9728    1.2787 C   0  0  0  0  0  0  0  0  0  0  0  0
    0.8413  -13.1109    0.2829 C   0  0  0  0  0  0  0  0  0  0  0  0
    0.8708  -11.7365    0.5765 C   0  0  0  0  0  0  0  0  0  0  0  0
    0.4485   -8.8585    1.0404 C   0  0  0  0  0  0  0  0  0  0  0  0
    1.9850  -14.5209    3.6652 N   0  0  0  0  0  0  0  0  0  0  0  0
   -0.5186   -3.5488    2.3461 Br  0  0  0  0  0  0  0  0  0  0  0  0
    0.7737  -15.4153    3.8089 C   0  0  0  0  0  0  0  0  0  0  0  0
   -2.0116   -4.8187    0.3388 N   0  0  0  0  0  0  0  0  0  0  0  0
  3  4  1  0
 12 17  1  0
  8 18  1  0
 17 19  1  0
  9 20  1  0
  1  2  2  0
  2  3  1  0
  3 16  2  0
 11 16  1  0
  1  6  1  0
  6  7  2  0
  7  8  1  0
  8  9  2  0
  9 10  1  0
 10 11  2  0
  6 11  1  0
  4  5  2  0
  5 12  1  0
 12 13  2  0
 13 14  1  0
 14 15  2  0
  4 15  1  0
M  END

$$$$
No_3132-/export/home/yangzhenyu/potential_scad_32_flow//YTHDC2/2024-12-06-03-22-00/
     RDKit          3D

 19 20  0  0  0  0  0  0  0  0999 V2000
    1.1787   -8.0297    3.5154 C   0  0  0  0  0  0  0  0  0  0  0  0
    1.1048   -9.2215    3.2892 C   0  0  0  0  0  0  0  0  0  0  0  0
    1.2339   -9.7611    2.0189 C   0  0  0  0  0  0  0  0  0  0  0  0
    1.3583   -9.0036    0.9764 C   0  0  0  0  0  0  0  0  0  0  0  0
    1.5996   -7.6362    1.1311 C   0  0  0  0  0  0  0  0  0  0  0  0
    1.4830   -7.0928    2.3626 C   0  0  0  0  0  0  0  0  0  0  0  0
    1.4898   -5.7274    2.6199 C   0  0  0  0  0  0  0  0  0  0  0  0
    1.1681  -11.2222    1.8390 C   0  0  0  0  0  0  0  0  0  0  0  0
    0.5014  -11.9760    2.2068 C   0  0  0  0  0  0  0  0  0  0  0  0
    0.4167  -13.3685    2.0527 C   0  0  0  0  0  0  0  0  0  0  0  0
   -0.6161  -14.0718    1.8701 C   0  0  0  0  0  0  0  0  0  0  0  0
   -0.5561  -15.5453    1.8466 C   0  0  0  0  0  0  0  0  0  0  0  0
    0.7310  -16.1377    2.1551 C   0  0  0  0  0  0  0  0  0  0  0  0
    1.8180  -15.4300    2.5124 C   0  0  0  0  0  0  0  0  0  0  0  0
    1.7507  -14.0019    2.4628 C   0  0  0  0  0  0  0  0  0  0  0  0
    0.6670   -4.9772    2.7273 O   0  0  0  0  0  0  0  0  0  0  0  0
    0.8373  -17.5184    2.2495 Cl  0  0  0  0  0  0  0  0  0  0  0  0
    1.5597   -9.4944   -0.5078 C   0  0  0  0  0  0  0  0  0  0  0  0
    2.5511   -9.5980   -1.0526 O   0  0  0  0  0  0  0  0  0  0  0  0
  6  7  1  0
  3  8  1  0
  8  9  2  3
  9 10  1  0
  7 16  2  0
 13 17  1  0
  4 18  1  0
 18 19  2  0
  1  2  2  0
  2  3  1  0
  3  4  2  0
  4  5  1  0
  5  6  2  0
  1  6  1  0
 10 11  2  0
 11 12  1  0
 12 13  2  0
 13 14  1  0
 14 15  2  0
 10 15  1  0
M  END

$$$$
No_3133-/export/home/yangzhenyu/potential_scad_32_flow//YTHDC2/2024-12-06-03-22-00/
     RDKit          3D

 19 19  0  0  1  0  0  0  0  0999 V2000
    1.1787   -8.0297    3.5154 C   0  0  0  0  0  0  0  0  0  0  0  0
    1.1048   -9.2215    3.2892 C   0  0  0  0  0  0  0  0  0  0  0  0
    1.2339   -9.7611    2.0189 C   0  0  0  0  0  0  0  0  0  0  0  0
    1.1954  -11.2312    1.8661 C   0  0  0  0  0  0  0  0  0  0  0  0
    1.5546  -12.1691    2.7931 C   0  0  0  0  0  0  0  0  0  0  0  0
    0.5849   -7.0929    2.5729 C   0  0  0  0  0  0  0  0  0  0  0  0
    0.5651   -5.6716    2.6680 C   0  0  1  0  0  0  0  0  0  0  0  0
    1.5967   -4.9664    3.3918 C   0  0  0  0  0  0  0  0  0  0  0  0
    1.4516  -13.4995    2.4920 C   0  0  0  0  0  0  0  0  0  0  0  0
    0.9791  -13.9176    1.3072 C   0  0  0  0  0  0  0  0  0  0  0  0
    0.5097  -13.1441    0.4168 C   0  0  0  0  0  0  0  0  0  0  0  0
    0.6450  -11.7432    0.6092 C   0  0  0  0  0  0  0  0  0  0  0  0
   -0.3143   -4.8975    1.9821 C   0  0  0  0  0  0  0  0  0  0  0  0
   -0.1706   -3.5928    1.8534 O   0  0  0  0  0  0  0  0  0  0  0  0
   -1.2297   -5.5070    1.0321 C   0  0  0  0  0  0  0  0  0  0  0  0
    0.2825  -10.8972   -0.4035 C   0  0  0  0  0  0  0  0  0  0  0  0
   -1.1074  -11.0280   -0.8362 O   0  0  0  0  0  0  0  0  0  0  0  0
    0.6392   -9.5847   -0.5178 O   0  0  0  0  0  0  0  0  0  0  0  0
    1.8616  -14.5872    3.7098 O   0  0  0  0  0  0  0  0  0  0  0  0
  1  2  1  0
  2  3  2  3
  3  4  1  0
  1  6  2  3
  6  7  1  0
  7  8  1  6
  7 13  1  0
 13 14  2  0
 13 15  1  0
 12 16  1  0
 16 17  1  0
 16 18  2  0
  9 19  1  0
  4  5  2  0
  5  9  1  0
  9 10  2  0
 10 11  1  0
 11 12  2  0
  4 12  1  0
M  END

$$$$
No_3134-/export/home/yangzhenyu/potential_scad_32_flow//YTHDC2/2024-12-06-03-22-00/
     RDKit          3D

 19 21  0  0  0  0  0  0  0  0999 V2000
    1.1787   -8.0297    3.5154 C   0  0  0  0  0  0  0  0  0  0  0  0
    1.1048   -9.2215    3.2892 N   0  0  0  0  0  0  0  0  0  0  0  0
    1.0346   -9.7785    2.1176 C   0  0  0  0  0  0  0  0  0  0  0  0
    1.2597   -9.0826    1.0431 C   0  0  0  0  0  0  0  0  0  0  0  0
    1.5530   -7.7656    1.0977 C   0  0  0  0  0  0  0  0  0  0  0  0
    1.5300   -7.1323    2.3379 C   0  0  0  0  0  0  0  0  0  0  0  0
    0.8242  -11.2361    2.0332 C   0  0  0  0  0  0  0  0  0  0  0  0
   -0.3006  -11.6042    1.4778 C   0  0  0  0  0  0  0  0  0  0  0  0
   -0.3935  -13.0274    1.1879 C   0  0  0  0  0  0  0  0  0  0  0  0
    0.5789  -13.9081    1.6843 C   0  0  0  0  0  0  0  0  0  0  0  0
    1.6637  -13.4566    2.3553 C   0  0  0  0  0  0  0  0  0  0  0  0
    1.7453  -12.0489    2.6746 C   0  0  0  0  0  0  0  0  0  0  0  0
    0.3976  -15.3118    1.5377 C   0  0  0  0  0  0  0  0  0  0  0  0
    0.7160  -16.1599    2.6067 C   0  0  0  0  0  0  0  0  0  0  0  0
    0.6575  -17.5736    2.4657 C   0  0  0  0  0  0  0  0  0  0  0  0
    0.2476  -18.0487    1.1982 C   0  0  0  0  0  0  0  0  0  0  0  0
   -0.1019  -17.2869    0.2459 C   0  0  0  0  0  0  0  0  0  0  0  0
   -0.0338  -15.8939    0.3931 C   0  0  0  0  0  0  0  0  0  0  0  0
    1.6169   -5.6760    2.5876 Cl  0  0  0  0  0  0  0  0  0  0  0  0
  3  7  1  0
 10 13  1  0
  6 19  1  0
  1  2  2  0
  2  3  1  0
  3  4  2  0
  4  5  1  0
  5  6  2  0
  1  6  1  0
 13 14  2  0
 14 15  1  0
 15 16  2  0
 16 17  1  0
 17 18  2  0
 13 18  1  0
  7  8  2  0
  8  9  1  0
  9 10  2  0
 10 11  1  0
 11 12  2  0
  7 12  1  0
M  END

$$$$
No_3135-/export/home/yangzhenyu/potential_scad_32_flow//YTHDC2/2024-12-06-03-22-00/
     RDKit          3D

 19 20  0  0  1  0  0  0  0  0999 V2000
    1.1787   -8.0297    3.5154 C   0  0  0  0  0  0  0  0  0  0  0  0
    1.0491   -6.8434    2.9820 C   0  0  0  0  0  0  0  0  0  0  0  0
    1.9985   -8.9840    2.8958 C   0  0  2  0  0  0  0  0  0  0  0  0
    1.7297   -9.2108    1.6335 C   0  0  0  0  0  0  0  0  0  0  0  0
    1.7343   -8.0566    0.8408 C   0  0  2  0  0  0  0  0  0  0  0  0
    1.0269   -6.8892    1.4456 C   0  0  0  0  0  0  0  0  0  0  0  0
    2.0740   -7.9416   -0.3682 C   0  0  0  0  0  0  0  0  0  0  0  0
    1.3156   -7.8710   -1.3006 N   0  0  0  0  0  0  0  0  0  0  0  0
    3.4634   -8.2354   -0.7112 N   0  0  0  0  0  0  0  0  0  0  0  0
    1.9753  -10.3679    3.5804 C   0  0  0  0  0  0  0  0  0  0  0  0
    1.1841  -11.2933    3.3340 C   0  0  2  0  0  0  0  0  0  0  0  0
   -0.1811  -11.0716    3.5308 C   0  0  0  0  0  0  0  0  0  0  0  0
   -0.6637  -10.2030    4.5867 C   0  0  0  0  0  0  0  0  0  0  0  0
   -1.9670   -9.7984    4.4567 C   0  0  0  0  0  0  0  0  0  0  0  0
   -2.8365  -10.5136    3.7416 C   0  0  0  0  0  0  0  0  0  0  0  0
   -2.4600  -11.4849    2.9315 C   0  0  0  0  0  0  0  0  0  0  0  0
   -1.1144  -11.7758    2.8079 C   0  0  0  0  0  0  0  0  0  0  0  0
    1.5994  -12.4768    2.9687 C   0  0  0  0  0  0  0  0  0  0  0  0
    0.3234   -7.7747   -1.1383 H   0  0  0  0  0  0  0  0  0  0  0  0
  1  2  1  0
  1  3  1  0
  3  4  1  0
  4  5  1  0
  2  6  1  0
  5  6  1  0
  5  7  1  6
  7  8  2  0
  7  9  1  0
  3 10  1  1
 10 11  1  0
 11 12  1  0
 11 18  1  1
 12 13  2  0
 13 14  1  0
 14 15  2  0
 15 16  1  0
 16 17  2  0
 12 17  1  0
  8 19  1  0
M  END

$$$$
No_3136-/export/home/yangzhenyu/potential_scad_32_flow//YTHDC2/2024-12-06-03-22-00/
     RDKit          3D

 18 18  0  0  1  0  0  0  0  0999 V2000
    1.1787   -8.0297    3.5154 C   0  0  0  0  0  0  0  0  0  0  0  0
    1.0491   -6.8434    2.9820 C   0  0  0  0  0  0  0  0  0  0  0  0
    0.0950   -8.8404    3.2292 C   0  0  0  0  0  0  0  0  0  0  0  0
    0.0602  -10.1764    3.8231 C   0  0  0  0  0  0  0  0  0  0  0  0
    0.2248   -6.3830    2.0648 C   0  0  0  0  0  0  0  0  0  0  0  0
   -0.6745   -7.2322    1.6857 C   0  0  0  0  0  0  0  0  0  0  0  0
   -0.7374   -8.4992    2.1291 C   0  0  0  0  0  0  0  0  0  0  0  0
   -0.1792  -11.3045    3.0702 N   0  0  0  0  0  0  0  0  0  0  0  0
    0.7002  -12.3631    3.1432 C   0  0  0  0  0  0  0  0  0  0  0  0
    1.3212  -12.8006    2.1146 C   0  0  2  0  0  0  0  0  0  0  0  0
    1.5936  -11.8750    1.0282 C   0  0  0  0  0  0  0  0  0  0  0  0
    0.3861   -5.0678    1.4761 C   0  0  0  0  0  0  0  0  0  0  0  0
    0.7755  -14.1720    1.6093 C   0  0  0  0  0  0  0  0  0  0  0  0
    2.4981  -10.8125    1.1834 P   0  0  0  0  0  0  0  0  0  0  0  0
    2.1805   -9.6715    0.2334 O   0  0  0  0  0  0  0  0  0  0  0  0
    2.0605  -10.0632    2.6831 O   0  0  0  0  0  0  0  0  0  0  0  0
    1.3204  -15.2640    2.0881 C   0  0  0  0  0  0  0  0  0  0  0  0
    2.5192  -15.3530    2.5974 C   0  0  0  0  0  0  0  0  0  0  0  0
  3  4  1  0
  4  8  1  0
  8  9  1  0
 10  9  1  1
 10 11  1  0
  5 12  1  0
 10 13  1  0
 11 14  1  0
 14 15  1  0
 14 16  1  0
 13 17  1  0
 17 18  1  0
  1  2  2  0
  2  5  1  0
  5  6  2  0
  6  7  1  0
  3  7  2  0
  1  3  1  0
M  END

$$$$
No_3137-/export/home/yangzhenyu/potential_scad_32_flow//YTHDC2/2024-12-06-03-22-00/
     RDKit          3D

 18 19  0  0  0  0  0  0  0  0999 V2000
    1.1787   -8.0297    3.5154 C   0  0  0  0  0  0  0  0  0  0  0  0
    1.0491   -6.8434    2.9820 C   0  0  0  0  0  0  0  0  0  0  0  0
    0.0950   -8.8404    3.2292 C   0  0  0  0  0  0  0  0  0  0  0  0
    0.0602  -10.1764    3.8231 C   0  0  0  0  0  0  0  0  0  0  0  0
    0.2248   -6.3830    2.0648 C   0  0  0  0  0  0  0  0  0  0  0  0
   -0.6745   -7.2322    1.6857 C   0  0  0  0  0  0  0  0  0  0  0  0
   -0.7374   -8.4992    2.1291 C   0  0  0  0  0  0  0  0  0  0  0  0
   -1.2516  -10.6630    3.9829 C   0  0  0  0  0  0  0  0  0  0  0  0
   -2.1645  -10.4099    2.9636 C   0  0  0  0  0  0  0  0  0  0  0  0
   -1.9676   -9.2338    2.1806 C   0  0  0  0  0  0  0  0  0  0  0  0
   -1.6974   -6.8749    0.8496 C   0  0  0  0  0  0  0  0  0  0  0  0
   -1.6549   -5.6618    0.0638 O   0  0  0  0  0  0  0  0  0  0  0  0
   -2.7604   -7.6538    0.4413 N   0  0  0  0  0  0  0  0  0  0  0  0
   -3.7017   -7.1894   -0.4063 C   0  0  0  0  0  0  0  0  0  0  0  0
   -4.6527   -8.0959   -0.7892 C   0  0  0  0  0  0  0  0  0  0  0  0
   -4.2669   -9.1764   -1.5405 C   0  0  0  0  0  0  0  0  0  0  0  0
   -4.5738  -10.3421   -1.2897 C   0  0  0  0  0  0  0  0  0  0  0  0
   -5.7176  -10.5619   -0.4788 C   0  0  0  0  0  0  0  0  0  0  0  0
  6 11  1  0
 11 12  2  0
 11 13  1  0
 13 14  1  0
 14 15  1  0
 15 16  1  0
 16 17  2  3
 17 18  1  0
  1  2  2  0
  2  5  1  0
  5  6  2  0
  6  7  1  0
  1  3  1  0
  3  4  2  0
  4  8  1  0
  8  9  2  0
  9 10  1  0
  7 10  2  0
  3  7  1  0
M  END

$$$$
No_3138-/export/home/yangzhenyu/potential_scad_32_flow//YTHDC2/2024-12-06-03-22-00/
     RDKit          3D

 18 18  0  0  0  0  0  0  0  0999 V2000
    1.1787   -8.0297    3.5154 C   0  0  0  0  0  0  0  0  0  0  0  0
    1.0491   -6.8434    2.9820 C   0  0  0  0  0  0  0  0  0  0  0  0
    0.9905   -9.0774    2.6527 C   0  0  0  0  0  0  0  0  0  0  0  0
    0.7897   -8.9519    1.3691 C   0  0  0  0  0  0  0  0  0  0  0  0
    0.7018   -7.7198    0.7892 C   0  0  0  0  0  0  0  0  0  0  0  0
    0.8918   -6.5957    1.6117 C   0  0  0  0  0  0  0  0  0  0  0  0
    1.0998  -10.4710    3.2437 C   0  0  0  0  0  0  0  0  0  0  0  0
    1.3102  -11.5554    2.5214 C   0  0  0  0  0  0  0  0  0  0  0  0
    1.4257  -12.8124    3.1919 C   0  0  0  0  0  0  0  0  0  0  0  0
    0.9222  -13.9339    2.5039 C   0  0  0  0  0  0  0  0  0  0  0  0
   -0.1904  -14.0081    1.9344 C   0  0  0  0  0  0  0  0  0  0  0  0
    0.8731   -5.2676    1.2061 C   0  0  0  0  0  0  0  0  0  0  0  0
   -1.1982  -13.6895    2.5177 N   0  0  0  0  0  0  0  0  0  0  0  0
    1.8882  -15.0566    2.5013 C   0  0  0  0  0  0  0  0  0  0  0  0
    1.3688  -16.2742    2.9744 O   0  0  0  0  0  0  0  0  0  0  0  0
    3.1035  -14.9958    2.1211 O   0  0  0  0  0  0  0  0  0  0  0  0
   -0.1970   -4.7705    0.7110 O   0  0  0  0  0  0  0  0  0  0  0  0
   -2.3666  -13.4978    2.3923 C   0  0  0  0  0  0  0  0  0  0  0  0
  3  7  1  0
  7  8  2  3
  8  9  1  0
  9 10  1  0
 10 11  1  0
  6 12  1  0
 11 13  1  0
 10 14  1  0
 14 15  1  0
 14 16  2  0
 12 17  1  0
 13 18  1  0
  1  2  2  0
  2  6  1  0
  5  6  2  0
  4  5  1  0
  3  4  2  0
  1  3  1  0
M  END

$$$$
No_3139-/export/home/yangzhenyu/potential_scad_32_flow//YTHDC2/2024-12-06-03-22-00/
     RDKit          3D

 13 14  0  0  0  0  0  0  0  0999 V2000
    1.1787   -8.0297    3.5154 C   0  0  0  0  0  0  0  0  0  0  0  0
    1.0491   -6.8434    2.9820 C   0  0  0  0  0  0  0  0  0  0  0  0
    0.0950   -8.8404    3.2292 C   0  0  0  0  0  0  0  0  0  0  0  0
   -0.9173   -8.4596    2.5152 C   0  0  0  0  0  0  0  0  0  0  0  0
   -1.0331   -7.2162    2.0653 C   0  0  0  0  0  0  0  0  0  0  0  0
   -0.0105   -6.3168    2.3081 C   0  0  0  0  0  0  0  0  0  0  0  0
    0.1465  -10.2446    3.6981 C   0  0  0  0  0  0  0  0  0  0  0  0
    0.1907  -11.3369    2.8651 C   0  0  0  0  0  0  0  0  0  0  0  0
    1.0128  -11.8996    2.5974 C   0  0  0  0  0  0  0  0  0  0  0  0
    1.2328  -13.0891    1.8129 C   0  0  0  0  0  0  0  0  0  0  0  0
   -0.1839  -13.1989    1.4972 C   0  0  0  0  0  0  0  0  0  0  0  0
   -0.7585  -12.0455    2.1177 C   0  0  0  0  0  0  0  0  0  0  0  0
    0.0255   -4.7971    1.8402 Cl  0  0  0  0  0  0  0  0  0  0  0  0
  3  7  1  0
  7  8  1  0
  8  9  1  0
  9 10  2  0
 10 11  1  0
  8 12  1  0
 11 12  1  0
  6 13  1  0
  1  2  2  0
  2  6  1  0
  5  6  2  0
  4  5  1  0
  3  4  2  0
  1  3  1  0
M  END

$$$$
No_3140-/export/home/yangzhenyu/potential_scad_32_flow//YTHDC2/2024-12-06-03-22-00/
     RDKit          3D

 18 19  0  0  1  0  0  0  0  0999 V2000
    1.1787   -8.0297    3.5154 C   0  0  0  0  0  0  0  0  0  0  0  0
    1.0491   -6.8434    2.9820 C   0  0  0  0  0  0  0  0  0  0  0  0
    1.9985   -8.9840    2.8958 C   0  0  2  0  0  0  0  0  0  0  0  0
    1.7297   -9.2108    1.6335 C   0  0  0  0  0  0  0  0  0  0  0  0
    1.7343   -8.0566    0.8408 C   0  0  1  0  0  0  0  0  0  0  0  0
    1.0269   -6.8892    1.4456 C   0  0  0  0  0  0  0  0  0  0  0  0
    2.4114   -7.8399   -0.2028 C   0  0  0  0  0  0  0  0  0  0  0  0
    2.3827  -10.1575    3.6636 C   0  0  0  0  0  0  0  0  0  0  0  0
    3.2225  -10.2301    4.5048 N   0  0  0  0  0  0  0  0  0  0  0  0
    1.7664  -11.3034    3.2821 C   0  0  2  0  0  0  0  0  0  0  0  0
    2.3894  -12.4189    4.0407 C   0  0  0  0  0  0  0  0  0  0  0  0
    1.8977  -13.6390    3.5788 N   0  0  0  0  0  0  0  0  0  0  0  0
    1.0112  -13.5493    2.6798 C   0  0  1  0  0  0  0  0  0  0  0  0
    0.9482  -12.0164    2.5251 C   0  0  0  0  0  0  0  0  0  0  0  0
    0.9367  -14.2396    1.7620 C   0  0  0  0  0  0  0  0  0  0  0  0
    2.3189   -8.6971   -1.3029 C   0  0  0  0  0  0  0  0  0  0  0  0
    1.1676   -8.9255   -1.7476 O   0  0  0  0  0  0  0  0  0  0  0  0
    3.7285   -9.4025    4.7860 H   0  0  0  0  0  0  0  0  0  0  0  0
  1  2  1  0
  1  3  1  0
  3  4  1  0
  4  5  1  0
  2  6  1  0
  5  6  1  0
  5  7  1  1
  3  8  1  1
  8  9  2  0
 10  8  1  6
 10 11  1  0
 11 12  2  0
 12 13  1  0
 10 14  1  0
 13 14  1  0
 13 15  1  6
  7 16  1  0
 16 17  1  0
  9 18  1  0
M  END

$$$$
No_3141-/export/home/yangzhenyu/potential_scad_32_flow//YTHDC2/2024-12-06-03-22-00/
     RDKit          3D

 11 11  0  0  1  0  0  0  0  0999 V2000
    1.1787   -8.0297    3.5154 C   0  0  0  0  0  0  0  0  0  0  0  0
    1.0491   -6.8434    2.9820 C   0  0  0  0  0  0  0  0  0  0  0  0
    0.9905   -9.0774    2.6527 C   0  0  0  0  0  0  0  0  0  0  0  0
    0.7897   -8.9519    1.3691 C   0  0  0  0  0  0  0  0  0  0  0  0
    0.7018   -7.7198    0.7892 C   0  0  0  0  0  0  0  0  0  0  0  0
    0.8918   -6.5957    1.6117 C   0  0  0  0  0  0  0  0  0  0  0  0
    1.0998  -10.4710    3.2437 C   0  0  0  0  0  0  0  0  0  0  0  0
    0.0472  -11.2546    3.3963 C   0  0  2  0  0  0  0  0  0  0  0  0
    0.1622  -12.5732    3.4140 F   0  0  0  0  0  0  0  0  0  0  0  0
    0.8503   -5.2795    1.2267 O   0  0  0  0  0  0  0  0  0  0  0  0
   -1.0166  -10.8344    2.6133 Cl  0  0  0  0  0  0  0  0  0  0  0  0
  1  2  1  0
  3  4  1  0
  2  6  1  0
  5  6  1  0
  3  7  1  0
  7  8  1  0
  8  9  1  6
  6 10  2  0
  8 11  1  0
  1  3  1  0
  4  5  1  0
M  END

$$$$
No_3142-/export/home/yangzhenyu/potential_scad_32_flow//YTHDC2/2024-12-06-03-22-00/
     RDKit          3D

 17 19  0  0  1  0  0  0  0  0999 V2000
    1.1787   -8.0297    3.5154 C   0  0  0  0  0  0  0  0  0  0  0  0
    1.1048   -9.2215    3.2892 C   0  0  0  0  0  0  0  0  0  0  0  0
    1.2339   -9.7611    2.0189 C   0  0  0  0  0  0  0  0  0  0  0  0
    1.3583   -9.0036    0.9764 C   0  0  0  0  0  0  0  0  0  0  0  0
    1.5996   -7.6362    1.1311 C   0  0  0  0  0  0  0  0  0  0  0  0
    1.4830   -7.0928    2.3626 C   0  0  0  0  0  0  0  0  0  0  0  0
    1.4898   -5.7274    2.6199 C   0  0  0  0  0  0  0  0  0  0  0  0
    1.1681  -11.2222    1.8390 C   0  0  1  0  0  0  0  0  0  0  0  0
    1.9047  -12.1147    2.3357 C   0  0  0  0  0  0  0  0  0  0  0  0
    1.6844  -13.4555    2.0602 N   0  0  0  0  0  0  0  0  0  0  0  0
    0.5352  -13.8437    2.1580 C   0  0  0  0  0  0  0  0  0  0  0  0
   -0.5379  -12.9888    1.7981 C   0  0  0  0  0  0  0  0  0  0  0  0
   -0.2122  -11.6401    1.6396 C   0  0  0  0  0  0  0  0  0  0  0  0
    0.2462  -15.2372    2.1366 C   0  0  0  0  0  0  0  0  0  0  0  0
   -0.7814  -15.8379    1.8067 C   0  0  0  0  0  0  0  0  0  0  0  0
   -1.9077  -14.9697    1.4767 C   0  0  0  0  0  0  0  0  0  0  0  0
   -1.7297  -13.5416    1.4465 C   0  0  0  0  0  0  0  0  0  0  0  0
  6  7  1  0
  8  3  1  1
  8  9  1  0
  9 10  1  0
 10 11  1  0
  8 13  1  0
 12 13  1  0
  1  2  2  0
  2  3  1  0
  3  4  2  0
  4  5  1  0
  5  6  2  0
  1  6  1  0
 11 12  2  0
 12 17  1  0
 16 17  2  0
 15 16  1  0
 14 15  2  0
 11 14  1  0
M  END

$$$$
No_3143-/export/home/yangzhenyu/potential_scad_32_flow//YTHDC2/2024-12-06-03-22-00/
     RDKit          3D

 16 17  0  0  0  0  0  0  0  0999 V2000
    1.1787   -8.0297    3.5154 C   0  0  0  0  0  0  0  0  0  0  0  0
    1.0491   -6.8434    2.9820 C   0  0  0  0  0  0  0  0  0  0  0  0
    0.9905   -9.0774    2.6527 C   0  0  0  0  0  0  0  0  0  0  0  0
    0.7897   -8.9519    1.3691 C   0  0  0  0  0  0  0  0  0  0  0  0
    0.7018   -7.7198    0.7892 C   0  0  0  0  0  0  0  0  0  0  0  0
    0.8918   -6.5957    1.6117 C   0  0  0  0  0  0  0  0  0  0  0  0
    1.0711  -10.4814    3.2282 C   0  0  0  0  0  0  0  0  0  0  0  0
   -0.1055  -11.1328    3.5223 C   0  0  0  0  0  0  0  0  0  0  0  0
   -0.1824  -12.4513    3.3816 C   0  0  0  0  0  0  0  0  0  0  0  0
    0.9472  -13.2655    3.1726 C   0  0  0  0  0  0  0  0  0  0  0  0
    2.1715  -12.6012    2.9116 C   0  0  0  0  0  0  0  0  0  0  0  0
    2.2064  -11.2741    2.8264 C   0  0  0  0  0  0  0  0  0  0  0  0
    0.8996  -14.6381    3.2447 C   0  0  0  0  0  0  0  0  0  0  0  0
    1.9200  -15.4182    2.8055 C   0  0  0  0  0  0  0  0  0  0  0  0
    1.8046  -16.8255    2.9268 N   0  0  0  0  0  0  0  0  0  0  0  0
    0.8342  -17.2920    3.5843 O   0  0  0  0  0  0  0  0  0  0  0  0
  3  7  1  0
 10 13  1  0
 13 14  2  3
 14 15  1  0
 15 16  2  0
  1  2  2  0
  2  6  1  0
  5  6  2  0
  4  5  1  0
  3  4  2  0
  1  3  1  0
  7  8  2  0
  8  9  1  0
  9 10  2  0
 10 11  1  0
 11 12  2  0
  7 12  1  0
M  END

$$$$
No_3144-/export/home/yangzhenyu/potential_scad_32_flow//YTHDC2/2024-12-06-03-22-00/
     RDKit          3D

 19 19  0  0  1  0  0  0  0  0999 V2000
    1.1787   -8.0297    3.5154 C   0  0  0  0  0  0  0  0  0  0  0  0
    1.1048   -9.2215    3.2892 C   0  0  0  0  0  0  0  0  0  0  0  0
    1.2339   -9.7611    2.0189 C   0  0  0  0  0  0  0  0  0  0  0  0
    1.3583   -9.0036    0.9764 C   0  0  0  0  0  0  0  0  0  0  0  0
    1.5996   -7.6362    1.1311 C   0  0  0  0  0  0  0  0  0  0  0  0
    1.4830   -7.0928    2.3626 C   0  0  0  0  0  0  0  0  0  0  0  0
    1.4898   -5.7274    2.6199 C   0  0  0  0  0  0  0  0  0  0  0  0
    1.1681  -11.2222    1.8390 C   0  0  1  0  0  0  0  0  0  0  0  0
    0.7145  -11.5870    0.5424 C   0  0  0  0  0  0  0  0  0  0  0  0
    0.5927  -13.0110    0.4509 O   0  0  0  0  0  0  0  0  0  0  0  0
    0.4183  -10.9766   -0.4165 O   0  0  0  0  0  0  0  0  0  0  0  0
    1.6798   -5.1777    3.8595 O   0  0  0  0  0  0  0  0  0  0  0  0
    0.9680   -4.8532    1.7154 O   0  0  0  0  0  0  0  0  0  0  0  0
    1.6684  -12.0433    2.7030 C   0  0  0  0  0  0  0  0  0  0  0  0
    0.9288  -12.7373    3.5083 C   0  0  0  0  0  0  0  0  0  0  0  0
    1.1625  -14.2144    3.2962 C   0  0  0  0  0  0  0  0  0  0  0  0
    0.2203  -15.2480    3.4137 O   0  0  0  0  0  0  0  0  0  0  0  0
    2.4065  -14.8335    3.3004 O   0  0  0  0  0  0  0  0  0  0  0  0
    0.4002  -16.3987    2.7468 C   0  0  0  0  0  0  0  0  0  0  0  0
  6  7  1  0
  3  8  1  0
  8  9  1  0
  9 10  2  0
  9 11  1  0
  7 12  1  0
  7 13  2  0
  8 14  1  6
 14 15  1  0
 15 16  1  0
 16 17  1  0
 16 18  2  0
 17 19  1  0
  1  2  2  0
  2  3  1  0
  3  4  2  0
  4  5  1  0
  5  6  2  0
  1  6  1  0
M  END

$$$$
No_3145-/export/home/yangzhenyu/potential_scad_32_flow//YTHDC2/2024-12-06-03-22-00/
     RDKit          3D

 13 14  0  0  0  0  0  0  0  0999 V2000
    1.1787   -8.0297    3.5154 C   0  0  0  0  0  0  0  0  0  0  0  0
    1.1048   -9.2215    3.2892 C   0  0  0  0  0  0  0  0  0  0  0  0
    1.3627  -10.1721    4.3044 C   0  0  0  0  0  0  0  0  0  0  0  0
    1.7354  -11.4730    3.9024 C   0  0  0  0  0  0  0  0  0  0  0  0
    1.8080  -11.8127    2.7216 C   0  0  0  0  0  0  0  0  0  0  0  0
    1.5854  -11.0021    1.7249 C   0  0  0  0  0  0  0  0  0  0  0  0
    1.3573   -9.7389    1.9287 C   0  0  0  0  0  0  0  0  0  0  0  0
    1.1102   -8.8712    0.9017 C   0  0  0  0  0  0  0  0  0  0  0  0
    1.5724   -9.1697   -0.3048 O   0  0  0  0  0  0  0  0  0  0  0  0
    0.8071   -7.5472    0.9953 N   0  0  0  0  0  0  0  0  0  0  0  0
    1.1912   -6.8653    2.6266 C   0  0  0  0  0  0  0  0  0  0  0  0
    0.8101   -5.6095    2.6523 O   0  0  0  0  0  0  0  0  0  0  0  0
    2.0475  -13.2359    2.3763 Cl  0  0  0  0  0  0  0  0  0  0  0  0
  1  2  1  0
  7  8  1  0
  8  9  2  0
  8 10  1  0
  1 11  1  0
 10 11  1  0
 11 12  2  0
  5 13  1  0
  2  3  2  0
  3  4  1  0
  4  5  2  0
  5  6  1  0
  6  7  2  0
  2  7  1  0
M  END

$$$$
No_3146-/export/home/yangzhenyu/potential_scad_32_flow//YTHDC2/2024-12-06-03-22-00/
     RDKit          3D

 17 17  0  0  1  0  0  0  0  0999 V2000
    1.1787   -8.0297    3.5154 N   0  0  0  0  0  0  0  0  0  0  0  0
    1.0818   -9.0751    3.2053 C   0  0  0  0  0  0  0  0  0  0  0  0
    0.7576   -9.3725    1.9159 C   0  0  0  0  0  0  0  0  0  0  0  0
    0.8823   -8.4917    1.0547 C   0  0  0  0  0  0  0  0  0  0  0  0
    1.4631   -7.3107    1.2451 C   0  0  0  0  0  0  0  0  0  0  0  0
    1.6470   -6.9326    2.5669 C   0  0  0  0  0  0  0  0  0  0  0  0
    0.8237  -10.1305    4.2407 C   0  0  0  0  0  0  0  0  0  0  0  0
    1.7644  -11.1125    4.2479 C   0  0  2  0  0  0  0  0  0  0  0  0
    0.8446   -8.8698   -0.4314 C   0  0  0  0  0  0  0  0  0  0  0  0
    1.7120   -8.8126   -1.2544 O   0  0  0  0  0  0  0  0  0  0  0  0
   -0.3402   -9.4623   -0.7863 O   0  0  0  0  0  0  0  0  0  0  0  0
    2.8741  -10.9748    4.3868 C   0  0  0  0  0  0  0  0  0  0  0  0
    1.2159  -12.3872    3.7442 C   0  0  0  0  0  0  0  0  0  0  0  0
    3.3400  -10.3232    5.8483 O   0  0  0  0  0  0  0  0  0  0  0  0
    1.9310  -13.2608    3.0350 C   0  0  0  0  0  0  0  0  0  0  0  0
    1.4014  -14.5461    2.7479 O   0  0  0  0  0  0  0  0  0  0  0  0
    0.3082  -14.7384    2.6900 C   0  0  0  0  0  0  0  0  0  0  0  0
  2  7  1  0
  8  7  1  6
  4  9  1  0
  9 10  2  0
  9 11  1  0
  8 12  1  0
  8 13  1  0
 12 14  1  0
 13 15  1  0
 15 16  1  0
 16 17  1  0
  1  2  2  0
  2  3  1  0
  3  4  2  0
  4  5  1  0
  5  6  2  0
  1  6  1  0
M  END

$$$$
No_3147-/export/home/yangzhenyu/potential_scad_32_flow//YTHDC2/2024-12-06-03-22-00/
     RDKit          3D

 18 19  0  0  0  0  0  0  0  0999 V2000
    1.1787   -8.0297    3.5154 C   0  0  0  0  0  0  0  0  0  0  0  0
    1.0491   -6.8434    2.9820 C   0  0  0  0  0  0  0  0  0  0  0  0
    0.2462   -8.9560    3.0873 C   0  0  0  0  0  0  0  0  0  0  0  0
    0.3295   -6.5187    1.9069 C   0  0  0  0  0  0  0  0  0  0  0  0
   -0.5260   -8.7862    2.1368 C   0  0  0  0  0  0  0  0  0  0  0  0
   -0.5458   -7.5614    1.5054 C   0  0  0  0  0  0  0  0  0  0  0  0
    0.4051  -10.4356    3.8147 C   0  0  0  0  0  0  0  0  0  0  0  0
    1.4760  -10.9959    4.0243 C   0  0  0  0  0  0  0  0  0  0  0  0
    1.6140  -12.3535    3.6608 C   0  0  0  0  0  0  0  0  0  0  0  0
    0.8352  -12.5036    2.4096 C   0  0  0  0  0  0  0  0  0  0  0  0
    0.8559  -14.0625    2.1465 C   0  0  0  0  0  0  0  0  0  0  0  0
    1.9216  -14.6925    2.3063 C   0  0  0  0  0  0  0  0  0  0  0  0
    0.2673   -5.3261    1.2554 O   0  0  0  0  0  0  0  0  0  0  0  0
    1.8543  -16.1451    2.4844 C   0  0  0  0  0  0  0  0  0  0  0  0
    0.8602  -16.7878    2.1730 C   0  0  0  0  0  0  0  0  0  0  0  0
   -0.3244  -16.1778    1.9996 C   0  0  0  0  0  0  0  0  0  0  0  0
   -0.3566  -14.7710    1.9893 C   0  0  0  0  0  0  0  0  0  0  0  0
   -1.5351  -14.0865    1.9356 C   0  0  0  0  0  0  0  0  0  0  0  0
  3  7  1  0
  7  8  1  0
  8  9  1  0
  9 10  1  0
 10 11  1  0
  4 13  1  0
 17 18  1  0
 11 12  2  0
 12 14  1  0
 14 15  2  0
 15 16  1  0
 16 17  2  0
 11 17  1  0
  1  2  2  0
  2  4  1  0
  4  6  2  0
  5  6  1  0
  3  5  2  0
  1  3  1  0
M  END

$$$$
No_3148-/export/home/yangzhenyu/potential_scad_32_flow//YTHDC2/2024-12-06-03-22-00/
     RDKit          3D

 12 12  0  0  0  0  0  0  0  0999 V2000
    1.1787   -8.0297    3.5154 C   0  0  0  0  0  0  0  0  0  0  0  0
    1.1048   -9.2215    3.2892 C   0  0  0  0  0  0  0  0  0  0  0  0
    1.2339   -9.7611    2.0189 C   0  0  0  0  0  0  0  0  0  0  0  0
    1.3583   -9.0036    0.9764 C   0  0  0  0  0  0  0  0  0  0  0  0
    1.5996   -7.6362    1.1311 C   0  0  0  0  0  0  0  0  0  0  0  0
    1.4830   -7.0928    2.3626 C   0  0  0  0  0  0  0  0  0  0  0  0
    1.4898   -5.7274    2.6199 C   0  0  0  0  0  0  0  0  0  0  0  0
    1.1681  -11.2222    1.8390 Cl  0  0  0  0  0  0  0  0  0  0  0  0
    1.2598   -4.8566    1.6168 O   0  0  0  0  0  0  0  0  0  0  0  0
    1.7698   -5.1473    3.7989 O   0  0  0  0  0  0  0  0  0  0  0  0
    1.5118   -9.4978   -0.3226 Cl  0  0  0  0  0  0  0  0  0  0  0  0
    0.9173  -10.1412    4.4082 Cl  0  0  0  0  0  0  0  0  0  0  0  0
  6  7  1  0
  3  8  1  0
  7  9  2  0
  7 10  1  0
  4 11  1  0
  2 12  1  0
  1  2  2  0
  2  3  1  0
  3  4  2  0
  4  5  1  0
  5  6  2  0
  1  6  1  0
M  END

$$$$
No_3149-/export/home/yangzhenyu/potential_scad_32_flow//YTHDC2/2024-12-06-03-22-00/
     RDKit          3D

 18 19  0  0  1  0  0  0  0  0999 V2000
    1.1787   -8.0297    3.5154 C   0  0  0  0  0  0  0  0  0  0  0  0
    1.1048   -9.2215    3.2892 C   0  0  0  0  0  0  0  0  0  0  0  0
    1.2339   -9.7611    2.0189 C   0  0  0  0  0  0  0  0  0  0  0  0
    1.3583   -9.0036    0.9764 C   0  0  0  0  0  0  0  0  0  0  0  0
    1.5996   -7.6362    1.1311 C   0  0  0  0  0  0  0  0  0  0  0  0
    1.4830   -7.0928    2.3626 C   0  0  0  0  0  0  0  0  0  0  0  0
    1.5395   -5.7300    2.6182 C   0  0  0  0  0  0  0  0  0  0  0  0
    1.1775  -11.2233    1.8407 C   0  0  0  0  0  0  0  0  0  0  0  0
    1.9057  -12.1147    2.3397 C   0  0  0  0  0  0  0  0  0  0  0  0
    1.6867  -13.4551    2.0621 C   0  0  2  0  0  0  0  0  0  0  0  0
    0.7025  -13.8511    1.3021 C   0  0  0  0  0  0  0  0  0  0  0  0
   -0.1111  -12.9140    0.6527 C   0  0  0  0  0  0  0  0  0  0  0  0
    0.1535  -11.5434    0.9240 C   0  0  0  0  0  0  0  0  0  0  0  0
    1.2825   -4.8055    1.6933 O   0  0  0  0  0  0  0  0  0  0  0  0
    1.5277   -5.1878    3.9178 O   0  0  0  0  0  0  0  0  0  0  0  0
    2.5145  -14.4245    2.7645 O   0  0  0  0  0  0  0  0  0  0  0  0
   -0.7712  -10.7098    0.4390 O   0  0  0  0  0  0  0  0  0  0  0  0
   -1.0870  -13.3936   -0.2568 O   0  0  0  0  0  0  0  0  0  0  0  0
  6  7  1  0
  3  8  1  0
  8  9  1  0
 10 11  1  0
  8 13  1  0
 12 13  1  0
  7 14  2  0
  7 15  1  0
 10 16  1  1
 13 17  2  0
 12 18  1  0
  9 10  1  0
 11 12  1  0
  1  2  2  0
  2  3  1  0
  3  4  2  0
  4  5  1  0
  5  6  2  0
  1  6  1  0
M  END

$$$$
No_3150-/export/home/yangzhenyu/potential_scad_32_flow//YTHDC2/2024-12-06-03-22-00/
     RDKit          3D

 19 21  0  0  0  0  0  0  0  0999 V2000
    1.1787   -8.0297    3.5154 C   0  0  0  0  0  0  0  0  0  0  0  0
    1.0491   -6.8434    2.9820 C   0  0  0  0  0  0  0  0  0  0  0  0
    0.0950   -8.8404    3.2292 C   0  0  0  0  0  0  0  0  0  0  0  0
    0.0602  -10.1764    3.8231 C   0  0  0  0  0  0  0  0  0  0  0  0
    0.3808   -6.2771    2.2009 C   0  0  0  0  0  0  0  0  0  0  0  0
   -0.5785   -7.1471    1.7089 C   0  0  0  0  0  0  0  0  0  0  0  0
   -0.6899   -8.4051    2.1311 C   0  0  0  0  0  0  0  0  0  0  0  0
    1.0260  -10.8775    4.0808 C   0  0  0  0  0  0  0  0  0  0  0  0
    1.3198  -12.0569    3.5425 C   0  0  0  0  0  0  0  0  0  0  0  0
    0.8028  -12.6139    2.6865 C   0  0  0  0  0  0  0  0  0  0  0  0
   -0.5909  -11.9479    2.3421 C   0  0  0  0  0  0  0  0  0  0  0  0
   -0.9072  -10.8279    2.8923 C   0  0  0  0  0  0  0  0  0  0  0  0
    0.9299  -13.9928    2.2902 C   0  0  0  0  0  0  0  0  0  0  0  0
    0.4014  -15.0484    2.7845 C   0  0  0  0  0  0  0  0  0  0  0  0
    1.2078  -16.2075    2.7333 C   0  0  0  0  0  0  0  0  0  0  0  0
    2.3955  -16.2717    2.0836 C   0  0  0  0  0  0  0  0  0  0  0  0
    3.0094  -15.1763    1.6446 N   0  0  0  0  0  0  0  0  0  0  0  0
    2.3226  -14.0140    1.7570 C   0  0  0  0  0  0  0  0  0  0  0  0
    0.5398   -4.9725    1.6186 Cl  0  0  0  0  0  0  0  0  0  0  0  0
  3  4  1  0
 10 13  1  0
  5 19  1  0
  4  8  2  0
  8  9  1  0
  9 10  2  0
 10 11  1  0
 11 12  2  0
  4 12  1  0
 13 14  2  0
 14 15  1  0
 15 16  2  0
 16 17  1  0
 17 18  2  0
 13 18  1  0
  1  2  2  0
  2  5  1  0
  5  6  2  0
  6  7  1  0
  3  7  2  0
  1  3  1  0
M  END

$$$$
No_3151-/export/home/yangzhenyu/potential_scad_32_flow//YTHDC2/2024-12-06-03-22-00/
     RDKit          3D

 11 11  0  0  0  0  0  0  0  0999 V2000
    1.1787   -8.0297    3.5154 O   0  0  0  0  0  0  0  0  0  0  0  0
    0.6747   -7.4019    2.7838 C   0  0  0  0  0  0  0  0  0  0  0  0
    0.7594   -8.0032    1.4295 C   0  0  0  0  0  0  0  0  0  0  0  0
    1.4743   -7.4398    0.6034 C   0  0  0  0  0  0  0  0  0  0  0  0
    1.8433   -8.4151   -0.4648 C   0  0  0  0  0  0  0  0  0  0  0  0
    1.3204   -9.5205   -0.5909 C   0  0  0  0  0  0  0  0  0  0  0  0
    0.4880  -10.0838    0.3555 C   0  0  0  0  0  0  0  0  0  0  0  0
    0.2363   -9.3226    1.4465 C   0  0  0  0  0  0  0  0  0  0  0  0
   -0.5984   -9.6542    2.4538 C   0  0  0  0  0  0  0  0  0  0  0  0
   -0.2111  -10.6503    3.2432 N   0  0  0  0  0  0  0  0  0  0  0  0
   -0.9621  -11.1471    4.2015 O   0  0  0  0  0  0  0  0  0  0  0  0
  1  2  1  0
  2  3  1  0
  8  9  1  0
  9 10  1  0
 10 11  2  0
  3  4  2  0
  4  5  1  0
  5  6  2  0
  6  7  1  0
  7  8  2  0
  3  8  1  0
M  END

$$$$
No_3152-/export/home/yangzhenyu/potential_scad_32_flow//YTHDC2/2024-12-06-03-22-00/
     RDKit          3D

 19 20  0  0  1  0  0  0  0  0999 V2000
    1.1787   -8.0297    3.5154 C   0  0  0  0  0  0  0  0  0  0  0  0
    1.0491   -6.8434    2.9820 C   0  0  0  0  0  0  0  0  0  0  0  0
    0.9905   -9.0774    2.6527 C   0  0  0  0  0  0  0  0  0  0  0  0
    0.7897   -8.9519    1.3691 C   0  0  0  0  0  0  0  0  0  0  0  0
    0.7018   -7.7198    0.7892 C   0  0  0  0  0  0  0  0  0  0  0  0
    0.8918   -6.5957    1.6117 C   0  0  0  0  0  0  0  0  0  0  0  0
    1.0600  -10.5680    3.3321 C   0  0  0  0  0  0  0  0  0  0  0  0
   -0.1041  -11.1772    3.5150 C   0  0  0  0  0  0  0  0  0  0  0  0
   -0.1608  -12.4876    3.3268 C   0  0  0  0  0  0  0  0  0  0  0  0
    1.0091  -13.1909    2.8821 C   0  0  0  0  0  0  0  0  0  0  0  0
    2.2195  -12.5255    2.7392 C   0  0  0  0  0  0  0  0  0  0  0  0
    2.2065  -11.1671    2.7621 C   0  0  0  0  0  0  0  0  0  0  0  0
    0.9349  -14.5745    2.7747 C   0  0  2  0  0  0  0  0  0  0  0  0
   -0.0626  -15.2901    3.1945 C   0  0  0  0  0  0  0  0  0  0  0  0
    2.0958  -15.2167    2.2844 C   0  0  0  0  0  0  0  0  0  0  0  0
    0.8542   -5.2503    1.1717 O   0  0  0  0  0  0  0  0  0  0  0  0
    3.0539  -14.7463    1.7841 N   0  0  0  0  0  0  0  0  0  0  0  0
    2.2506  -16.5886    2.5591 N   0  0  0  0  0  0  0  0  0  0  0  0
    3.0867  -13.7560    1.5882 H   0  0  0  0  0  0  0  0  0  0  0  0
  1  2  1  0
  3  4  1  0
  2  6  1  0
  5  6  1  0
  3  7  1  0
 10 13  1  0
 13 14  1  1
 13 15  1  0
  6 16  2  0
 15 17  2  0
 15 18  1  0
  1  3  1  0
  4  5  1  0
  7  8  2  0
  8  9  1  0
  9 10  2  0
 10 11  1  0
 11 12  2  0
  7 12  1  0
 17 19  1  0
M  END

$$$$
No_3153-/export/home/yangzhenyu/potential_scad_32_flow//YTHDC2/2024-12-06-03-22-00/
     RDKit          3D

 19 20  0  0  1  0  0  0  0  0999 V2000
    1.1787   -8.0297    3.5154 C   0  0  0  0  0  0  0  0  0  0  0  0
    1.1048   -9.2215    3.2892 C   0  0  0  0  0  0  0  0  0  0  0  0
    1.3627  -10.1721    4.3044 C   0  0  0  0  0  0  0  0  0  0  0  0
    1.0682  -11.5187    4.0618 C   0  0  0  0  0  0  0  0  0  0  0  0
    0.6332  -11.9655    2.9682 N   0  0  0  0  0  0  0  0  0  0  0  0
    0.4798  -11.1950    1.9671 C   0  0  0  0  0  0  0  0  0  0  0  0
    0.7468   -9.8707    2.0386 C   0  0  0  0  0  0  0  0  0  0  0  0
    0.9576   -7.0345    2.6107 C   0  0  1  0  0  0  0  0  0  0  0  0
    1.1213   -5.5534    2.8050 C   0  0  0  0  0  0  0  0  0  0  0  0
    0.7281   -9.0478    0.9423 C   0  0  0  0  0  0  0  0  0  0  0  0
    0.7830   -7.5720    1.0958 C   0  0  0  0  0  0  0  0  0  0  0  0
    0.6095   -9.3971   -0.3094 O   0  0  0  0  0  0  0  0  0  0  0  0
    0.8082   -6.7862    0.1855 O   0  0  0  0  0  0  0  0  0  0  0  0
    0.2571  -11.8172    0.7180 C   0  0  0  0  0  0  0  0  0  0  0  0
   -1.0959  -11.9829    0.3652 C   0  0  0  0  0  0  0  0  0  0  0  0
   -1.3352  -12.4328   -0.8317 C   0  0  0  0  0  0  0  0  0  0  0  0
   -1.4817  -13.7014   -1.1597 C   0  0  0  0  0  0  0  0  0  0  0  0
   -2.1235  -14.3312   -0.1343 C   0  0  0  0  0  0  0  0  0  0  0  0
   -2.1455  -13.7485    1.2188 C   0  0  0  0  0  0  0  0  0  0  0  0
  1  2  1  0
  8  9  1  6
  7 10  1  0
  8 11  1  0
 10 11  1  0
 10 12  2  0
 11 13  2  0
  6 14  1  0
 14 15  1  0
 15 16  1  0
 16 17  2  3
 17 18  1  0
 18 19  2  0
  1  8  1  0
  2  3  2  0
  3  4  1  0
  4  5  2  0
  5  6  1  0
  6  7  2  0
  2  7  1  0
M  END

$$$$
No_3154-/export/home/yangzhenyu/potential_scad_32_flow//YTHDC2/2024-12-06-03-22-00/
     RDKit          3D

 20 21  0  0  1  0  0  0  0  0999 V2000
    1.1787   -8.0297    3.5154 C   0  0  0  0  0  0  0  0  0  0  0  0
    1.0491   -6.8434    2.9820 C   0  0  0  0  0  0  0  0  0  0  0  0
    1.9985   -8.9840    2.8958 C   0  0  2  0  0  0  0  0  0  0  0  0
    1.7297   -9.2108    1.6335 C   0  0  1  0  0  0  0  0  0  0  0  0
    1.7343   -8.0566    0.8408 C   0  0  0  0  0  0  0  0  0  0  0  0
    1.0269   -6.8892    1.4456 C   0  0  0  0  0  0  0  0  0  0  0  0
    2.0740   -7.9416   -0.3682 O   0  0  0  0  0  0  0  0  0  0  0  0
    2.2757  -10.2253    3.6437 C   0  0  0  0  0  0  0  0  0  0  0  0
    1.8809  -11.2592    3.7161 O   0  0  0  0  0  0  0  0  0  0  0  0
    3.5337  -10.2014    4.4042 O   0  0  0  0  0  0  0  0  0  0  0  0
    0.8428   -5.6552    3.4922 O   0  0  0  0  0  0  0  0  0  0  0  0
    0.8848   -5.7506    0.8459 O   0  0  0  0  0  0  0  0  0  0  0  0
    2.4312  -10.2739    0.8404 C   0  0  0  0  0  0  0  0  0  0  0  0
    1.4506  -11.3081    0.5520 C   0  0  0  0  0  0  0  0  0  0  0  0
    0.2541  -11.0601    0.1384 C   0  0  0  0  0  0  0  0  0  0  0  0
   -0.6081  -11.6673    0.2401 C   0  0  0  0  0  0  0  0  0  0  0  0
   -0.5297  -13.0834    0.6243 C   0  0  0  0  0  0  0  0  0  0  0  0
    0.7181  -13.5004    1.0909 C   0  0  0  0  0  0  0  0  0  0  0  0
    1.7941  -12.5628    1.0982 C   0  0  0  0  0  0  0  0  0  0  0  0
   -1.6167  -14.1429    0.7597 N   0  0  0  0  0  0  0  0  0  0  0  0
  1  2  1  0
  1  3  1  0
  3  4  1  0
  4  5  1  0
  2  6  1  0
  5  6  1  0
  5  7  2  0
  3  8  1  1
  8  9  2  0
  8 10  1  0
  2 11  2  0
  6 12  2  0
  4 13  1  6
 13 14  1  0
 17 20  1  0
 14 15  2  0
 15 16  1  0
 16 17  2  0
 17 18  1  0
 18 19  2  0
 14 19  1  0
M  END

$$$$
No_3155-/export/home/yangzhenyu/potential_scad_32_flow//YTHDC2/2024-12-06-03-22-00/
     RDKit          3D

 18 18  0  0  0  0  0  0  0  0999 V2000
    1.1787   -8.0297    3.5154 C   0  0  0  0  0  0  0  0  0  0  0  0
    1.1048   -9.2215    3.2892 C   0  0  0  0  0  0  0  0  0  0  0  0
    1.2339   -9.7611    2.0189 C   0  0  0  0  0  0  0  0  0  0  0  0
    1.3583   -9.0036    0.9764 C   0  0  0  0  0  0  0  0  0  0  0  0
    1.5996   -7.6362    1.1311 C   0  0  0  0  0  0  0  0  0  0  0  0
    1.4830   -7.0928    2.3626 C   0  0  0  0  0  0  0  0  0  0  0  0
    1.1171  -11.3311    1.8661 C   0  0  0  0  0  0  0  0  0  0  0  0
    0.5042  -11.9974    2.3631 O   0  0  0  0  0  0  0  0  0  0  0  0
    2.1402  -11.7507    1.0393 O   0  0  0  0  0  0  0  0  0  0  0  0
    1.5310   -5.4613    2.6890 O   0  0  0  0  0  0  0  0  0  0  0  0
    1.4160   -9.3988   -0.6343 C   0  0  0  0  0  0  0  0  0  0  0  0
    0.7972   -8.6380   -1.2110 O   0  0  0  0  0  0  0  0  0  0  0  0
    0.5739   -4.9414    2.2643 C   0  0  0  0  0  0  0  0  0  0  0  0
    1.9012  -10.3141   -1.0034 O   0  0  0  0  0  0  0  0  0  0  0  0
    0.9142   -3.5211    1.9091 C   0  0  0  0  0  0  0  0  0  0  0  0
   -0.0522   -2.8050    1.6714 C   0  0  0  0  0  0  0  0  0  0  0  0
   -1.3782   -3.2704    1.4746 C   0  0  0  0  0  0  0  0  0  0  0  0
   -1.6851   -4.5306    1.6211 C   0  0  0  0  0  0  0  0  0  0  0  0
  3  7  1  0
  7  8  2  0
  7  9  1  0
  6 10  1  0
  4 11  1  0
 11 12  2  0
 10 13  1  0
 11 14  1  0
 13 15  1  0
 15 16  2  3
 16 17  1  0
 17 18  2  0
  1  2  2  0
  2  3  1  0
  3  4  2  0
  4  5  1  0
  5  6  2  0
  1  6  1  0
M  END

$$$$
No_3156-/export/home/yangzhenyu/potential_scad_32_flow//YTHDC2/2024-12-06-03-22-00/
     RDKit          3D

 11 11  0  0  0  0  0  0  0  0999 V2000
    1.1787   -8.0297    3.5154 C   0  0  0  0  0  0  0  0  0  0  0  0
    1.0491   -6.8434    2.9820 C   0  0  0  0  0  0  0  0  0  0  0  0
    0.9905   -9.0774    2.6527 C   0  0  0  0  0  0  0  0  0  0  0  0
    0.7897   -8.9519    1.3691 C   0  0  0  0  0  0  0  0  0  0  0  0
    0.7018   -7.7198    0.7892 C   0  0  0  0  0  0  0  0  0  0  0  0
    0.8918   -6.5957    1.6117 C   0  0  0  0  0  0  0  0  0  0  0  0
    1.0711  -10.4814    3.2282 Cl  0  0  0  0  0  0  0  0  0  0  0  0
    0.5952  -10.1763    0.4127 C   0  0  0  0  0  0  0  0  0  0  0  0
    1.4482  -10.8699    0.2120 O   0  0  0  0  0  0  0  0  0  0  0  0
   -0.6725  -10.3962    0.0686 O   0  0  0  0  0  0  0  0  0  0  0  0
    0.8543   -5.2766    1.1260 Cl  0  0  0  0  0  0  0  0  0  0  0  0
  3  7  1  0
  4  8  1  0
  8  9  2  0
  8 10  1  0
  6 11  1  0
  1  2  2  0
  2  6  1  0
  5  6  2  0
  4  5  1  0
  3  4  2  0
  1  3  1  0
M  END

$$$$
No_3157-/export/home/yangzhenyu/potential_scad_32_flow//YTHDC2/2024-12-06-03-22-00/
     RDKit          3D

 20 22  0  0  1  0  0  0  0  0999 V2000
    1.1787   -8.0297    3.5154 C   0  0  0  0  0  0  0  0  0  0  0  0
    1.0491   -6.8434    2.9820 C   0  0  0  0  0  0  0  0  0  0  0  0
    0.0950   -8.8404    3.2292 O   0  0  0  0  0  0  0  0  0  0  0  0
    0.8478   -6.8187    1.5373 C   0  0  0  0  0  0  0  0  0  0  0  0
   -0.0750   -7.6995    1.1643 C   0  0  0  0  0  0  0  0  0  0  0  0
    0.1287   -9.0253    1.6532 C   0  0  2  0  0  0  0  0  0  0  0  0
   -0.9970   -9.9192    1.3596 C   0  0  0  0  0  0  0  0  0  0  0  0
   -2.1259   -9.5140    1.2694 C   0  0  0  0  0  0  0  0  0  0  0  0
   -3.2022  -10.3955    0.8231 C   0  0  0  0  0  0  0  0  0  0  0  0
   -2.7801  -11.7460    0.6242 C   0  0  0  0  0  0  0  0  0  0  0  0
   -1.5529  -12.2020    0.8999 C   0  0  0  0  0  0  0  0  0  0  0  0
   -0.5595  -11.3110    1.3163 C   0  0  0  0  0  0  0  0  0  0  0  0
    0.7639  -11.7405    1.5179 C   0  0  0  0  0  0  0  0  0  0  0  0
    1.1079  -12.9653    1.9326 C   0  0  0  0  0  0  0  0  0  0  0  0
    0.1127  -13.9738    1.7282 C   0  0  0  0  0  0  0  0  0  0  0  0
   -1.1254  -13.6048    1.1793 C   0  0  0  0  0  0  0  0  0  0  0  0
    0.4616  -15.2484    1.9360 C   0  0  0  0  0  0  0  0  0  0  0  0
    1.6144  -15.6348    2.4088 C   0  0  0  0  0  0  0  0  0  0  0  0
    1.8962  -17.0473    2.7160 C   0  0  0  0  0  0  0  0  0  0  0  0
    1.1363  -17.9718    2.4253 C   0  0  0  0  0  0  0  0  0  0  0  0
  1  2  1  0
  1  3  1  0
  2  4  1  0
  4  5  1  0
  3  6  1  0
  5  6  1  0
  6  7  1  6
 15 17  1  0
 17 18  2  3
 18 19  1  0
 19 20  2  0
 12 13  2  0
 13 14  1  0
 14 15  2  0
 15 16  1  0
 11 16  2  0
  7  8  2  0
  8  9  1  0
  9 10  2  0
 10 11  1  0
 11 12  1  0
  7 12  1  0
M  END

$$$$
No_3158-/export/home/yangzhenyu/potential_scad_32_flow//YTHDC2/2024-12-06-03-22-00/
     RDKit          3D

 19 20  0  0  1  0  0  0  0  0999 V2000
    1.1787   -8.0297    3.5154 C   0  0  0  0  0  0  0  0  0  0  0  0
    1.0491   -6.8434    2.9820 C   0  0  0  0  0  0  0  0  0  0  0  0
    0.9905   -9.0774    2.6527 C   0  0  0  0  0  0  0  0  0  0  0  0
    0.7897   -8.9519    1.3691 C   0  0  0  0  0  0  0  0  0  0  0  0
    0.7018   -7.7198    0.7892 C   0  0  0  0  0  0  0  0  0  0  0  0
    0.8918   -6.5957    1.6117 C   0  0  0  0  0  0  0  0  0  0  0  0
    1.0998  -10.4710    3.2437 C   0  0  1  0  0  0  0  0  0  0  0  0
    0.0471  -11.2546    3.3963 C   0  0  0  0  0  0  0  0  0  0  0  0
   -0.3712  -11.7969    2.5371 C   0  0  0  0  0  0  0  0  0  0  0  0
    0.5261  -12.4782    1.6616 C   0  0  2  0  0  0  0  0  0  0  0  0
    1.8059  -11.8186    1.4781 C   0  0  0  0  0  0  0  0  0  0  0  0
    2.0775  -10.8941    2.3564 C   0  0  0  0  0  0  0  0  0  0  0  0
    0.9316   -5.2542    1.1825 C   0  0  0  0  0  0  0  0  0  0  0  0
    0.2387  -13.5092    0.7815 C   0  0  0  0  0  0  0  0  0  0  0  0
   -0.7339  -13.3475   -0.2157 O   0  0  0  0  0  0  0  0  0  0  0  0
    0.9984  -14.5467    0.5525 O   0  0  0  0  0  0  0  0  0  0  0  0
    1.5142   -4.2738    1.8424 O   0  0  0  0  0  0  0  0  0  0  0  0
   -0.0506   -4.7997    0.4512 O   0  0  0  0  0  0  0  0  0  0  0  0
    1.7219  -10.2892    4.6491 O   0  0  0  0  0  0  0  0  0  0  0  0
  3  7  1  0
  7  8  1  0
  9 10  1  0
 10 11  1  0
  7 12  1  0
 11 12  1  0
  6 13  1  0
 10 14  1  6
 14 15  2  0
 14 16  1  0
 13 17  1  0
 13 18  2  0
  7 19  1  1
  8  9  1  0
  1  2  2  0
  2  6  1  0
  5  6  2  0
  4  5  1  0
  3  4  2  0
  1  3  1  0
M  END

$$$$
No_3159-/export/home/yangzhenyu/potential_scad_32_flow//YTHDC2/2024-12-06-03-22-00/
     RDKit          3D

 17 18  0  0  0  0  0  0  0  0999 V2000
    1.1787   -8.0297    3.5154 C   0  0  0  0  0  0  0  0  0  0  0  0
    1.1048   -9.2215    3.2892 C   0  0  0  0  0  0  0  0  0  0  0  0
    1.2339   -9.7611    2.0189 C   0  0  0  0  0  0  0  0  0  0  0  0
    1.3583   -9.0036    0.9764 C   0  0  0  0  0  0  0  0  0  0  0  0
    1.5996   -7.6362    1.1311 C   0  0  0  0  0  0  0  0  0  0  0  0
    1.4830   -7.0928    2.3626 C   0  0  0  0  0  0  0  0  0  0  0  0
    1.1008  -11.2372    1.8542 C   0  0  0  0  0  0  0  0  0  0  0  0
    1.9749  -12.0938    2.2342 C   0  0  0  0  0  0  0  0  0  0  0  0
    1.7533  -13.4231    1.8956 C   0  0  0  0  0  0  0  0  0  0  0  0
    0.8624  -13.8318    1.1071 C   0  0  0  0  0  0  0  0  0  0  0  0
   -0.0624  -12.9093    0.5581 C   0  0  0  0  0  0  0  0  0  0  0  0
    0.1157  -11.5285    0.9404 C   0  0  0  0  0  0  0  0  0  0  0  0
    1.5561   -5.6354    2.6426 Cl  0  0  0  0  0  0  0  0  0  0  0  0
   -0.8311  -10.6449    0.4827 C   0  0  0  0  0  0  0  0  0  0  0  0
   -0.9854  -10.1997   -0.7385 C   0  0  0  0  0  0  0  0  0  0  0  0
   -1.9430   -9.2634   -1.1487 C   0  0  0  0  0  0  0  0  0  0  0  0
   -2.7921   -8.7740   -0.3304 C   0  0  0  0  0  0  0  0  0  0  0  0
  3  7  1  0
  6 13  1  0
 12 14  1  0
 14 15  1  0
 15 16  2  3
 16 17  1  0
  1  2  2  0
  2  3  1  0
  3  4  2  0
  4  5  1  0
  5  6  2  0
  1  6  1  0
  7  8  2  0
  8  9  1  0
  9 10  2  0
 10 11  1  0
 11 12  2  0
  7 12  1  0
M  END

$$$$
No_3160-/export/home/yangzhenyu/potential_scad_32_flow//YTHDC2/2024-12-06-03-22-00/
     RDKit          3D

 19 21  0  0  1  0  0  0  0  0999 V2000
    1.1787   -8.0297    3.5154 C   0  0  0  0  0  0  0  0  0  0  0  0
    1.1048   -9.2215    3.2892 C   0  0  0  0  0  0  0  0  0  0  0  0
    1.3627  -10.1721    4.3044 C   0  0  0  0  0  0  0  0  0  0  0  0
    1.7354  -11.4730    3.9023 C   0  0  0  0  0  0  0  0  0  0  0  0
    1.8080  -11.8127    2.7216 C   0  0  0  0  0  0  0  0  0  0  0  0
    1.5854  -11.0021    1.7249 C   0  0  0  0  0  0  0  0  0  0  0  0
    1.3573   -9.7389    1.9287 C   0  0  0  0  0  0  0  0  0  0  0  0
    1.1102   -8.8712    0.9017 C   0  0  0  0  0  0  0  0  0  0  0  0
    1.5724   -9.1697   -0.3048 O   0  0  0  0  0  0  0  0  0  0  0  0
    0.8071   -7.5472    0.9953 P   0  0  2  0  0  0  0  0  0  0  0  0
    1.1807   -6.9694    2.5358 C   0  0  0  0  0  0  0  0  0  0  0  0
   -0.7307   -7.3763    1.0881 O   0  0  0  0  0  0  0  0  0  0  0  0
    2.0756  -13.2419    2.3925 C   0  0  0  0  0  0  0  0  0  0  0  0
    2.4726  -13.6893    1.2003 N   0  0  0  0  0  0  0  0  0  0  0  0
    1.7096  -14.2778    3.1490 N   0  0  0  0  0  0  0  0  0  0  0  0
    1.2071   -6.6461    0.0757 O   0  0  0  0  0  0  0  0  0  0  0  0
    1.6704  -15.4782    2.7659 C   0  0  0  0  0  0  0  0  0  0  0  0
    2.2246  -15.7415    1.6106 C   0  0  0  0  0  0  0  0  0  0  0  0
    2.6044  -14.8167    0.8526 N   0  0  0  0  0  0  0  0  0  0  0  0
  1  2  1  0
  7  8  1  0
  8  9  2  0
  8 10  1  0
  1 11  1  0
 10 11  1  0
 10 12  1  1
  5 13  1  0
 10 16  2  0
  2  3  2  0
  3  4  1  0
  4  5  2  0
  5  6  1  0
  6  7  2  0
  2  7  1  0
 13 14  2  0
 14 19  1  0
 18 19  2  0
 17 18  1  0
 15 17  2  0
 13 15  1  0
M  END

$$$$
No_3161-/export/home/yangzhenyu/potential_scad_32_flow//YTHDC2/2024-12-06-03-22-00/
     RDKit          3D

 19 20  0  0  0  0  0  0  0  0999 V2000
    1.1787   -8.0297    3.5154 C   0  0  0  0  0  0  0  0  0  0  0  0
    1.0491   -6.8434    2.9820 C   0  0  0  0  0  0  0  0  0  0  0  0
    0.0950   -8.8404    3.2292 C   0  0  0  0  0  0  0  0  0  0  0  0
   -0.9173   -8.4596    2.5152 C   0  0  0  0  0  0  0  0  0  0  0  0
   -1.0331   -7.2162    2.0653 C   0  0  0  0  0  0  0  0  0  0  0  0
   -0.0105   -6.3168    2.3081 C   0  0  0  0  0  0  0  0  0  0  0  0
    0.0485   -4.9783    1.8782 C   0  0  0  0  0  0  0  0  0  0  0  0
    0.9625   -4.1072    2.3252 C   0  0  0  0  0  0  0  0  0  0  0  0
    0.1334  -10.2884    3.6719 C   0  0  0  0  0  0  0  0  0  0  0  0
    0.2155  -11.3675    2.8316 C   0  0  0  0  0  0  0  0  0  0  0  0
    0.9727  -12.5040    3.2074 C   0  0  0  0  0  0  0  0  0  0  0  0
    1.3484  -13.3200    2.4367 C   0  0  0  0  0  0  0  0  0  0  0  0
    1.0214  -13.4046    1.1796 C   0  0  0  0  0  0  0  0  0  0  0  0
    0.3746  -12.3095    0.5720 C   0  0  0  0  0  0  0  0  0  0  0  0
   -0.0447  -11.2544    1.4856 C   0  0  0  0  0  0  0  0  0  0  0  0
    2.0720  -14.6222    2.8420 O   0  0  0  0  0  0  0  0  0  0  0  0
   -0.6523   -4.4975    0.7681 O   0  0  0  0  0  0  0  0  0  0  0  0
   -0.1311  -10.4552    5.0122 O   0  0  0  0  0  0  0  0  0  0  0  0
    1.0947   -2.7743    1.8148 C   0  0  0  0  0  0  0  0  0  0  0  0
  6  7  1  0
  7  8  2  3
  3  9  1  0
  9 10  1  0
 12 16  1  0
  7 17  1  0
  9 18  2  0
  8 19  1  0
  1  2  2  0
  2  6  1  0
  5  6  2  0
  4  5  1  0
  3  4  2  0
  1  3  1  0
 10 11  2  0
 11 12  1  0
 12 13  2  0
 13 14  1  0
 14 15  2  0
 10 15  1  0
M  END

$$$$
No_3162-/export/home/yangzhenyu/potential_scad_32_flow//YTHDC2/2024-12-06-03-22-00/
     RDKit          3D

 19 20  0  0  0  0  0  0  0  0999 V2000
    1.1787   -8.0297    3.5154 C   0  0  0  0  0  0  0  0  0  0  0  0
    1.0491   -6.8434    2.9820 C   0  0  0  0  0  0  0  0  0  0  0  0
    0.9905   -9.0774    2.6527 C   0  0  0  0  0  0  0  0  0  0  0  0
    1.1655  -10.4663    3.1286 C   0  0  0  0  0  0  0  0  0  0  0  0
    1.2197  -11.4898    2.5831 C   0  0  0  0  0  0  0  0  0  0  0  0
    1.0589  -11.4458    1.1293 C   0  0  0  0  0  0  0  0  0  0  0  0
    0.9638  -10.3069    0.4651 C   0  0  0  0  0  0  0  0  0  0  0  0
    0.9191   -9.0789    1.1942 C   0  0  0  0  0  0  0  0  0  0  0  0
    0.9198   -7.8339    0.6158 C   0  0  0  0  0  0  0  0  0  0  0  0
    1.0184   -6.6904    1.4953 C   0  0  0  0  0  0  0  0  0  0  0  0
    1.3459  -12.8208    3.0776 C   0  0  0  0  0  0  0  0  0  0  0  0
    2.4563  -13.4572    3.0988 Br  0  0  0  0  0  0  0  0  0  0  0  0
    0.7702   -7.6047   -0.5078 O   0  0  0  0  0  0  0  0  0  0  0  0
    1.3100   -5.6288    3.6652 O   0  0  0  0  0  0  0  0  0  0  0  0
    0.0401  -13.3914    3.4368 O   0  0  0  0  0  0  0  0  0  0  0  0
    1.0271   -5.3711    1.0154 O   0  0  0  0  0  0  0  0  0  0  0  0
    1.2760  -10.4664    4.6019 F   0  0  0  0  0  0  0  0  0  0  0  0
    0.9903  -12.5569    0.2850 O   0  0  0  0  0  0  0  0  0  0  0  0
    0.0056  -13.3899    0.2044 C   0  0  0  0  0  0  0  0  0  0  0  0
  1  2  1  0
  8  9  1  0
  2 10  1  0
  9 10  1  0
  5 11  1  0
 11 12  1  0
  9 13  2  0
  2 14  2  0
 11 15  2  0
 10 16  2  0
  4 17  1  0
  6 18  1  0
 18 19  1  0
  1  3  1  0
  3  4  2  0
  4  5  1  0
  5  6  2  0
  6  7  1  0
  7  8  2  0
  3  8  1  0
M  END

$$$$
No_3163-/export/home/yangzhenyu/potential_scad_32_flow//YTHDC2/2024-12-06-03-22-00/
     RDKit          3D

 18 19  0  0  1  0  0  0  0  0999 V2000
    1.1787   -8.0297    3.5154 C   0  0  0  0  0  0  0  0  0  0  0  0
    1.0491   -6.8434    2.9820 C   0  0  0  0  0  0  0  0  0  0  0  0
    0.9905   -9.0774    2.6527 C   0  0  0  0  0  0  0  0  0  0  0  0
    1.1655  -10.4663    3.1286 C   0  0  2  0  0  0  0  0  0  0  0  0
    1.7409  -10.6480    4.4599 C   0  0  0  0  0  0  0  0  0  0  0  0
    1.0486   -6.3431    1.8833 C   0  0  0  0  0  0  0  0  0  0  0  0
    0.8094   -7.4673    0.8674 C   0  0  0  0  0  0  0  0  0  0  0  0
    0.8523   -8.7792    1.1982 C   0  0  0  0  0  0  0  0  0  0  0  0
    0.9300  -11.4784    2.3258 C   0  0  0  0  0  0  0  0  0  0  0  0
    0.3220  -12.4301    2.5405 C   0  0  0  0  0  0  0  0  0  0  0  0
    0.1512  -13.6447    1.7938 C   0  0  2  0  0  0  0  0  0  0  0  0
    0.9206  -14.7194    1.7701 C   0  0  0  0  0  0  0  0  0  0  0  0
    1.2116  -15.4974    1.0659 C   0  0  0  0  0  0  0  0  0  0  0  0
    1.1667  -14.8643   -0.2444 C   0  0  0  0  0  0  0  0  0  0  0  0
    0.0145  -14.0096   -0.2259 C   0  0  0  0  0  0  0  0  0  0  0  0
   -0.2515  -13.1443    0.6497 N   0  0  0  0  0  0  0  0  0  0  0  0
    0.7541   -9.6858    0.3009 C   0  0  0  0  0  0  0  0  0  0  0  0
   -0.0125  -10.5586    0.2898 O   0  0  0  0  0  0  0  0  0  0  0  0
  3  4  1  0
  4  5  1  6
  4  9  1  0
  9 10  2  3
 10 11  1  0
 11 12  1  6
 12 13  1  0
 13 14  1  0
 14 15  1  0
 11 16  1  0
 15 16  1  0
  8 17  1  0
 17 18  2  0
  1  2  2  0
  2  6  1  0
  6  7  2  0
  7  8  1  0
  3  8  2  0
  1  3  1  0
M  END

$$$$
No_3164-/export/home/yangzhenyu/potential_scad_32_flow//YTHDC2/2024-12-06-03-22-00/
     RDKit          3D

 19 20  0  0  1  0  0  0  0  0999 V2000
    1.1787   -8.0297    3.5154 C   0  0  0  0  0  0  0  0  0  0  0  0
    1.0491   -6.8434    2.9820 C   0  0  0  0  0  0  0  0  0  0  0  0
    0.9905   -9.0774    2.6527 C   0  0  0  0  0  0  0  0  0  0  0  0
    0.7897   -8.9519    1.3691 C   0  0  0  0  0  0  0  0  0  0  0  0
    0.7018   -7.7198    0.7892 C   0  0  0  0  0  0  0  0  0  0  0  0
    0.8918   -6.5957    1.6117 C   0  0  0  0  0  0  0  0  0  0  0  0
    1.0998  -10.4710    3.2437 C   0  0  1  0  0  0  0  0  0  0  0  0
    0.0472  -11.2546    3.3963 C   0  0  0  0  0  0  0  0  0  0  0  0
   -1.1989  -10.6161    3.7011 C   0  0  0  0  0  0  0  0  0  0  0  0
    0.8958   -5.2750    1.1754 C   0  0  0  0  0  0  0  0  0  0  0  0
   -2.3154  -10.8612    3.0663 C   0  0  0  0  0  0  0  0  0  0  0  0
   -2.3995  -12.0318    2.3626 C   0  0  0  0  0  0  0  0  0  0  0  0
   -1.2372  -12.7722    2.1357 C   0  0  0  0  0  0  0  0  0  0  0  0
    0.0099  -12.3594    2.5663 C   0  0  0  0  0  0  0  0  0  0  0  0
    2.3913  -10.8231    3.5247 C   0  0  0  0  0  0  0  0  0  0  0  0
    1.1176  -13.0980    2.3703 C   0  0  2  0  0  0  0  0  0  0  0  0
    1.7417  -13.0741    1.1946 C   0  0  0  0  0  0  0  0  0  0  0  0
    1.0943  -14.5968    2.7124 C   0  0  0  0  0  0  0  0  0  0  0  0
    0.4889  -15.0648    3.5993 C   0  0  0  0  0  0  0  0  0  0  0  0
  3  7  1  0
  7  8  1  0
  6 10  1  0
  7 15  1  6
 14 16  1  0
 16 17  1  6
 16 18  1  0
 18 19  1  0
  1  2  2  0
  2  6  1  0
  5  6  2  0
  4  5  1  0
  3  4  2  0
  1  3  1  0
  8  9  2  0
  9 11  1  0
 11 12  2  0
 12 13  1  0
 13 14  2  0
  8 14  1  0
M  END

$$$$
No_3165-/export/home/yangzhenyu/potential_scad_32_flow//YTHDC2/2024-12-06-03-22-00/
     RDKit          3D

 20 21  0  0  1  0  0  0  0  0999 V2000
    1.1787   -8.0297    3.5154 C   0  0  0  0  0  0  0  0  0  0  0  0
    1.0491   -6.8434    2.9820 C   0  0  0  0  0  0  0  0  0  0  0  0
    0.9905   -9.0774    2.6527 C   0  0  0  0  0  0  0  0  0  0  0  0
    0.9687   -8.6883    1.3634 C   0  0  0  0  0  0  0  0  0  0  0  0
    1.0948   -6.3768    1.7686 C   0  0  0  0  0  0  0  0  0  0  0  0
    0.9504   -7.3975    0.8471 C   0  0  0  0  0  0  0  0  0  0  0  0
    1.0175  -10.5389    3.0735 C   0  0  0  0  0  0  0  0  0  0  0  0
    2.0625  -11.0809    3.4130 C   0  0  0  0  0  0  0  0  0  0  0  0
    1.9703  -12.4715    3.7027 C   0  0  0  0  0  0  0  0  0  0  0  0
    0.8780  -13.1698    3.5323 C   0  0  0  0  0  0  0  0  0  0  0  0
   -0.2368  -12.5338    3.1178 C   0  0  0  0  0  0  0  0  0  0  0  0
   -0.1854  -11.1485    2.8839 C   0  0  0  0  0  0  0  0  0  0  0  0
    1.0819   -5.0568    1.2675 O   0  0  0  0  0  0  0  0  0  0  0  0
    0.8451  -14.5090    3.7814 O   0  0  0  0  0  0  0  0  0  0  0  0
    0.5455   -4.0434    2.0980 C   0  0  0  0  0  0  0  0  0  0  0  0
    1.5746  -15.3228    2.9375 C   0  0  2  0  0  0  0  0  0  0  0  0
    1.3960  -16.6888    3.3100 C   0  0  0  0  0  0  0  0  0  0  0  0
    2.3109  -17.5970    2.7024 C   0  0  0  0  0  0  0  0  0  0  0  0
    3.3012  -17.1208    1.8325 C   0  0  0  0  0  0  0  0  0  0  0  0
    2.4878  -14.9718    2.0806 C   0  0  0  0  0  0  0  0  0  0  0  0
  3  7  1  0
  5 13  1  0
 10 14  1  0
 13 15  1  0
 14 16  1  0
 16 17  1  0
 17 18  2  3
 18 19  1  0
 16 20  1  1
  1  2  2  0
  2  5  1  0
  5  6  2  0
  4  6  1  0
  3  4  2  0
  1  3  1  0
  7  8  2  0
  8  9  1  0
  9 10  2  0
 10 11  1  0
 11 12  2  0
  7 12  1  0
M  END

$$$$
No_3166-/export/home/yangzhenyu/potential_scad_32_flow//YTHDC2/2024-12-06-03-22-00/
     RDKit          3D

 22 23  0  0  0  0  0  0  0  0999 V2000
    1.1787   -8.0297    3.5154 C   0  0  0  0  0  0  0  0  0  0  0  0
    1.0491   -6.8434    2.9820 C   0  0  0  0  0  0  0  0  0  0  0  0
    0.9905   -9.0774    2.6527 C   0  0  0  0  0  0  0  0  0  0  0  0
    0.7897   -8.9519    1.3691 C   0  0  0  0  0  0  0  0  0  0  0  0
    0.7018   -7.7198    0.7892 C   0  0  0  0  0  0  0  0  0  0  0  0
    0.8918   -6.5957    1.6117 C   0  0  0  0  0  0  0  0  0  0  0  0
    1.0998  -10.4710    3.2437 C   0  0  0  0  0  0  0  0  0  0  0  0
    1.3102  -11.5554    2.5214 C   0  0  0  0  0  0  0  0  0  0  0  0
    1.4257  -12.8124    3.1919 C   0  0  0  0  0  0  0  0  0  0  0  0
    1.4301  -14.0627    2.4374 C   0  0  0  0  0  0  0  0  0  0  0  0
    0.8799   -5.2656    1.2046 C   0  0  0  0  0  0  0  0  0  0  0  0
    1.0419  -15.2242    3.0612 C   0  0  0  0  0  0  0  0  0  0  0  0
    1.4567  -16.5014    2.5928 O   0  0  0  0  0  0  0  0  0  0  0  0
    0.3541  -15.3086    4.1330 O   0  0  0  0  0  0  0  0  0  0  0  0
    1.5408   -4.3471    1.8964 O   0  0  0  0  0  0  0  0  0  0  0  0
    0.2874   -4.9140    0.2005 O   0  0  0  0  0  0  0  0  0  0  0  0
    2.0774  -14.1463    1.2926 N   0  0  0  0  0  0  0  0  0  0  0  0
    0.5901  -10.1574    0.2454 C   0  0  0  0  0  0  0  0  0  0  0  0
    1.1154  -11.4264    1.0406 C   0  0  0  0  0  0  0  0  0  0  0  0
   -0.7180  -10.3364    0.0654 O   0  0  0  0  0  0  0  0  0  0  0  0
   -1.2128  -10.0096   -1.1357 C   0  0  0  0  0  0  0  0  0  0  0  0
    2.1784  -15.0403    0.8336 H   0  0  0  0  0  0  0  0  0  0  0  0
  8  9  1  0
  9 10  1  0
  6 11  1  0
 10 12  1  0
 12 13  2  0
 12 14  1  0
 11 15  2  0
 11 16  1  0
 10 17  2  0
 18 20  1  0
 20 21  1  0
  1  2  2  0
  2  6  1  0
  5  6  2  0
  4  5  1  0
  1  3  1  0
  3  4  2  0
  4 18  1  0
 18 19  2  0
  8 19  1  0
  7  8  2  0
  3  7  1  0
 17 22  1  0
M  END

$$$$
No_3167-/export/home/yangzhenyu/potential_scad_32_flow//YTHDC2/2024-12-06-03-22-00/
     RDKit          3D

 20 22  0  0  0  0  0  0  0  0999 V2000
    1.1787   -8.0297    3.5154 C   0  0  0  0  0  0  0  0  0  0  0  0
    1.1048   -9.2215    3.2892 C   0  0  0  0  0  0  0  0  0  0  0  0
    1.3627  -10.1721    4.3044 C   0  0  0  0  0  0  0  0  0  0  0  0
    1.0682  -11.5187    4.0618 C   0  0  0  0  0  0  0  0  0  0  0  0
    0.6332  -11.9655    2.9682 C   0  0  0  0  0  0  0  0  0  0  0  0
    0.4776  -11.1308    1.9203 C   0  0  0  0  0  0  0  0  0  0  0  0
    0.7470   -9.8274    2.0368 C   0  0  0  0  0  0  0  0  0  0  0  0
    1.0387   -7.0301    2.5175 C   0  0  0  0  0  0  0  0  0  0  0  0
    0.9130   -7.5288    1.2013 C   0  0  0  0  0  0  0  0  0  0  0  0
    0.7893   -8.7979    0.9542 C   0  0  0  0  0  0  0  0  0  0  0  0
    0.3998  -13.3695    2.7114 C   0  0  0  0  0  0  0  0  0  0  0  0
   -0.8069  -13.8090    2.3159 N   0  0  0  0  0  0  0  0  0  0  0  0
    1.4627  -14.2407    2.2561 C   0  0  0  0  0  0  0  0  0  0  0  0
    1.2839  -15.5715    2.2105 N   0  0  0  0  0  0  0  0  0  0  0  0
    0.1106  -15.9567    2.2464 C   0  0  0  0  0  0  0  0  0  0  0  0
   -0.9720  -15.0917    2.4374 C   0  0  0  0  0  0  0  0  0  0  0  0
    0.4423   -9.3311   -0.4839 N   0  0  0  0  0  0  0  0  0  0  0  0
    0.7581   -8.8369   -1.4480 C   0  0  0  0  0  0  0  0  0  0  0  0
   -0.0695   -8.8176   -2.5119 O   0  0  0  0  0  0  0  0  0  0  0  0
    2.1612   -8.6613   -1.7033 O   0  0  0  0  0  0  0  0  0  0  0  0
  5 11  1  0
 10 17  1  0
 17 18  1  0
 18 19  2  0
 18 20  1  0
  2  3  1  0
  3  4  2  0
  4  5  1  0
  5  6  2  0
  6  7  1  0
  1  2  2  0
  2  7  1  0
  7 10  2  0
  9 10  1  0
  8  9  2  0
  1  8  1  0
 11 12  2  0
 12 16  1  0
 15 16  2  0
 14 15  1  0
 13 14  2  0
 11 13  1  0
M  END

$$$$
No_3168-/export/home/yangzhenyu/potential_scad_32_flow//YTHDC2/2024-12-06-03-22-00/
     RDKit          3D

 19 20  0  0  0  0  0  0  0  0999 V2000
    1.1787   -8.0297    3.5154 N   0  0  0  0  0  0  0  0  0  0  0  0
    0.8669   -7.0905    2.8589 C   0  0  0  0  0  0  0  0  0  0  0  0
    1.0447   -7.3244    1.4123 C   0  0  0  0  0  0  0  0  0  0  0  0
    1.3746   -8.4389    1.0864 C   0  0  0  0  0  0  0  0  0  0  0  0
    1.6686   -9.1952    2.5608 C   0  0  0  0  0  0  0  0  0  0  0  0
    2.0183  -10.4317    2.7666 C   0  0  0  0  0  0  0  0  0  0  0  0
    2.0323  -11.3372    1.7234 C   0  0  0  0  0  0  0  0  0  0  0  0
    1.8631  -10.7874    0.4025 C   0  0  0  0  0  0  0  0  0  0  0  0
    1.6340   -9.4953    0.1290 C   0  0  0  0  0  0  0  0  0  0  0  0
    2.0123  -10.8900    4.0851 Cl  0  0  0  0  0  0  0  0  0  0  0  0
    1.4228   -9.0109   -1.1301 O   0  0  0  0  0  0  0  0  0  0  0  0
    0.7102   -5.7529    3.3745 C   0  0  0  0  0  0  0  0  0  0  0  0
    1.9080   -4.8307    3.4862 C   0  0  0  0  0  0  0  0  0  0  0  0
    1.5284   -3.4802    3.1551 C   0  0  0  0  0  0  0  0  0  0  0  0
    1.5380   -3.1692    1.8351 O   0  0  0  0  0  0  0  0  0  0  0  0
    1.3763   -2.4809    3.9466 O   0  0  0  0  0  0  0  0  0  0  0  0
    2.3734  -12.6051    1.8336 O   0  0  0  0  0  0  0  0  0  0  0  0
    1.5919  -13.7027    1.8016 C   0  0  0  0  0  0  0  0  0  0  0  0
    2.2466  -14.8885    1.9804 C   0  0  0  0  0  0  0  0  0  0  0  0
  1  2  1  0
  2  3  2  0
  3  4  1  0
  1  5  1  0
  6 10  1  0
  9 11  1  0
  2 12  1  0
 12 13  1  0
 13 14  1  0
 14 15  2  0
 14 16  1  0
  7 17  1  0
 17 18  1  0
 18 19  1  0
  4  5  2  0
  5  6  1  0
  6  7  2  0
  7  8  1  0
  8  9  2  0
  4  9  1  0
M  END

$$$$
No_3169-/export/home/yangzhenyu/potential_scad_32_flow//YTHDC2/2024-12-06-03-22-00/
     RDKit          3D

 19 19  0  0  1  0  0  0  0  0999 V2000
    1.1787   -8.0297    3.5154 C   0  0  0  0  0  0  0  0  0  0  0  0
    1.1048   -9.2215    3.2892 C   0  0  0  0  0  0  0  0  0  0  0  0
    1.2339   -9.7611    2.0189 C   0  0  0  0  0  0  0  0  0  0  0  0
    1.3583   -9.0036    0.9764 C   0  0  0  0  0  0  0  0  0  0  0  0
    1.5996   -7.6362    1.1311 C   0  0  0  0  0  0  0  0  0  0  0  0
    1.4830   -7.0928    2.3626 C   0  0  0  0  0  0  0  0  0  0  0  0
    1.1008  -11.2372    1.8542 C   0  0  1  0  0  0  0  0  0  0  0  0
    0.4812  -11.6084    0.6459 C   0  0  0  0  0  0  0  0  0  0  0  0
    0.5134  -13.0269    0.4830 O   0  0  0  0  0  0  0  0  0  0  0  0
   -0.5338  -11.0173    0.2692 O   0  0  0  0  0  0  0  0  0  0  0  0
    1.5738   -5.6480    2.7076 Cl  0  0  0  0  0  0  0  0  0  0  0  0
    2.0411  -12.0087    2.4601 C   0  0  0  0  0  0  0  0  0  0  0  0
    1.4245  -12.7909    3.5461 C   0  0  0  0  0  0  0  0  0  0  0  0
    1.5358  -14.2929    3.1158 O   0  0  0  0  0  0  0  0  0  0  0  0
    2.3705  -14.8259    2.5098 C   0  0  0  0  0  0  0  0  0  0  0  0
    2.0519  -15.9805    1.9506 C   0  0  0  0  0  0  0  0  0  0  0  0
    2.9667  -17.0580    2.1899 O   0  0  0  0  0  0  0  0  0  0  0  0
    1.0279  -16.3260    1.4401 O   0  0  0  0  0  0  0  0  0  0  0  0
    1.5957   -9.4538   -0.3566 O   0  0  0  0  0  0  0  0  0  0  0  0
  3  7  1  0
  7  8  1  0
  8  9  2  0
  8 10  1  0
  6 11  1  0
  7 12  1  6
 12 13  1  0
 13 14  1  0
 14 15  1  0
 15 16  1  0
 16 17  1  0
 16 18  2  0
  4 19  1  0
  1  2  2  0
  2  3  1  0
  3  4  2  0
  4  5  1  0
  5  6  2  0
  1  6  1  0
M  END

$$$$
No_3170-/export/home/yangzhenyu/potential_scad_32_flow//YTHDC2/2024-12-06-03-22-00/
     RDKit          3D

 18 19  0  0  1  0  0  0  0  0999 V2000
    1.1787   -8.0297    3.5154 C   0  0  0  0  0  0  0  0  0  0  0  0
    1.0491   -6.8434    2.9820 C   0  0  0  0  0  0  0  0  0  0  0  0
    0.9905   -9.0774    2.6527 C   0  0  0  0  0  0  0  0  0  0  0  0
    0.7897   -8.9519    1.3691 C   0  0  0  0  0  0  0  0  0  0  0  0
    0.7018   -7.7198    0.7892 C   0  0  0  0  0  0  0  0  0  0  0  0
    0.8918   -6.5957    1.6117 C   0  0  0  0  0  0  0  0  0  0  0  0
    1.0998  -10.4710    3.2437 C   0  0  1  0  0  0  0  0  0  0  0  0
    0.0472  -11.2546    3.3963 C   0  0  0  0  0  0  0  0  0  0  0  0
   -1.1989  -10.6161    3.7011 C   0  0  0  0  0  0  0  0  0  0  0  0
    0.8958   -5.2750    1.1754 C   0  0  0  0  0  0  0  0  0  0  0  0
   -2.3154  -10.8612    3.0663 C   0  0  0  0  0  0  0  0  0  0  0  0
   -2.3995  -12.0318    2.3626 C   0  0  0  0  0  0  0  0  0  0  0  0
   -1.2372  -12.7722    2.1357 C   0  0  0  0  0  0  0  0  0  0  0  0
    0.0099  -12.3594    2.5663 C   0  0  0  0  0  0  0  0  0  0  0  0
    2.3913  -10.8231    3.5247 C   0  0  0  0  0  0  0  0  0  0  0  0
    1.1176  -13.0980    2.3703 C   0  0  0  0  0  0  0  0  0  0  0  0
    1.7417  -13.0741    1.1946 C   0  0  0  0  0  0  0  0  0  0  0  0
    1.0943  -14.5968    2.7124 C   0  0  0  0  0  0  0  0  0  0  0  0
  3  7  1  0
  7  8  1  0
  6 10  1  0
  7 15  1  6
 14 16  1  0
 16 17  1  0
 16 18  1  0
  1  2  2  0
  2  6  1  0
  5  6  2  0
  4  5  1  0
  3  4  2  0
  1  3  1  0
  8  9  2  0
  9 11  1  0
 11 12  2  0
 12 13  1  0
 13 14  2  0
  8 14  1  0
M  END

$$$$
No_3171-/export/home/yangzhenyu/potential_scad_32_flow//YTHDC2/2024-12-06-03-22-00/
     RDKit          3D

 19 20  0  0  1  0  0  0  0  0999 V2000
    1.1787   -8.0297    3.5154 C   0  0  0  0  0  0  0  0  0  0  0  0
    1.1048   -9.2215    3.2892 C   0  0  0  0  0  0  0  0  0  0  0  0
    1.2339   -9.7611    2.0189 C   0  0  0  0  0  0  0  0  0  0  0  0
    1.4306   -8.9466    1.1170 C   0  0  0  0  0  0  0  0  0  0  0  0
    1.6532   -7.5949    1.1786 C   0  0  0  0  0  0  0  0  0  0  0  0
    1.4973   -7.0739    2.4258 C   0  0  0  0  0  0  0  0  0  0  0  0
    1.4438   -5.6890    2.7316 C   0  0  0  0  0  0  0  0  0  0  0  0
    1.2541  -11.1952    1.8085 C   0  0  0  0  0  0  0  0  0  0  0  0
    0.4188  -11.8936    1.9052 C   0  0  0  0  0  0  0  0  0  0  0  0
    0.3684  -13.3025    1.6006 C   0  0  1  0  0  0  0  0  0  0  0  0
    1.4597  -14.1126    1.9459 C   0  0  0  0  0  0  0  0  0  0  0  0
    1.5083  -15.4004    1.7614 C   0  0  0  0  0  0  0  0  0  0  0  0
    0.3333  -16.0206    1.3405 C   0  0  0  0  0  0  0  0  0  0  0  0
   -0.7352  -15.3622    1.0675 C   0  0  0  0  0  0  0  0  0  0  0  0
   -0.7493  -13.9478    1.1946 C   0  0  0  0  0  0  0  0  0  0  0  0
   -1.8794  -15.9864    0.6006 C   0  0  0  0  0  0  0  0  0  0  0  0
   -1.8689  -16.6000   -0.4524 C   0  0  0  0  0  0  0  0  0  0  0  0
   -1.8724  -13.2561    0.9520 O   0  0  0  0  0  0  0  0  0  0  0  0
   -2.9516  -17.3718   -0.9350 C   0  0  0  0  0  0  0  0  0  0  0  0
  6  7  1  0
  3  8  1  0
  8  9  2  3
  9 10  1  0
 11 12  1  0
 13 14  1  0
 10 15  1  0
 14 15  1  0
 14 16  1  0
 16 17  2  3
 15 18  2  0
 17 19  1  0
 10 11  1  1
 12 13  1  0
  1  2  2  0
  2  3  1  0
  3  4  2  0
  4  5  1  0
  5  6  2  0
  1  6  1  0
M  END

$$$$
No_3172-/export/home/yangzhenyu/potential_scad_32_flow//YTHDC2/2024-12-06-03-22-00/
     RDKit          3D

 17 18  0  0  0  0  0  0  0  0999 V2000
    1.1787   -8.0297    3.5154 O   0  0  0  0  0  0  0  0  0  0  0  0
    0.9969   -8.9689    3.0048 C   0  0  0  0  0  0  0  0  0  0  0  0
    1.3055  -10.1056    3.6616 C   0  0  0  0  0  0  0  0  0  0  0  0
    1.1249  -11.3503    3.0941 C   0  0  0  0  0  0  0  0  0  0  0  0
    0.6932  -11.4484    1.8586 C   0  0  0  0  0  0  0  0  0  0  0  0
    0.5498  -10.3736    1.0579 C   0  0  0  0  0  0  0  0  0  0  0  0
    0.7643   -9.1185    1.6383 C   0  0  0  0  0  0  0  0  0  0  0  0
    0.5937   -7.8467    1.0482 C   0  0  0  0  0  0  0  0  0  0  0  0
   -0.4358   -7.6746    0.4159 C   0  0  0  0  0  0  0  0  0  0  0  0
    1.2876  -12.8350    3.9391 C   0  0  0  0  0  0  0  0  0  0  0  0
   -0.9010   -6.4702   -0.1511 C   0  0  0  0  0  0  0  0  0  0  0  0
   -0.5701   -5.3348    0.5069 C   0  0  0  0  0  0  0  0  0  0  0  0
   -0.9984   -4.0665    0.0649 C   0  0  0  0  0  0  0  0  0  0  0  0
   -1.7580   -4.0017   -1.0853 C   0  0  0  0  0  0  0  0  0  0  0  0
   -2.1274   -5.1912   -1.6954 C   0  0  0  0  0  0  0  0  0  0  0  0
   -1.7362   -6.3716   -1.1963 C   0  0  0  0  0  0  0  0  0  0  0  0
   -2.9111   -5.0613   -2.9075 C   0  0  0  0  0  0  0  0  0  0  0  0
  1  2  1  0
  7  8  1  0
  8  9  2  3
  4 10  1  0
  9 11  1  0
 15 17  1  0
 11 12  2  0
 12 13  1  0
 13 14  2  0
 14 15  1  0
 15 16  2  0
 11 16  1  0
  2  3  2  0
  3  4  1  0
  4  5  2  0
  5  6  1  0
  6  7  2  0
  2  7  1  0
M  END

$$$$
No_3173-/export/home/yangzhenyu/potential_scad_32_flow//YTHDC2/2024-12-06-03-22-00/
     RDKit          3D

 18 20  0  0  1  0  0  0  0  0999 V2000
    1.1787   -8.0297    3.5154 N   0  0  0  0  0  0  0  0  0  0  0  0
    1.0818   -9.0751    3.2053 C   0  0  0  0  0  0  0  0  0  0  0  0
    1.5216  -10.1164    3.9747 C   0  0  0  0  0  0  0  0  0  0  0  0
    1.4420  -11.4363    3.6461 C   0  0  0  0  0  0  0  0  0  0  0  0
    0.6920  -11.5655    2.4829 C   0  0  0  0  0  0  0  0  0  0  0  0
    0.2617  -10.7217    1.7065 C   0  0  0  0  0  0  0  0  0  0  0  0
    0.5092   -9.4265    2.0110 C   0  0  0  0  0  0  0  0  0  0  0  0
    0.8979   -6.9247    2.6461 C   0  0  0  0  0  0  0  0  0  0  0  0
    0.5538   -7.9432    1.4325 C   0  0  2  0  0  0  0  0  0  0  0  0
    1.0039   -5.5875    2.4271 C   0  0  0  0  0  0  0  0  0  0  0  0
    0.1008   -7.5620    0.3299 C   0  0  0  0  0  0  0  0  0  0  0  0
    0.4678  -13.0485    1.9996 C   0  0  0  0  0  0  0  0  0  0  0  0
   -0.7361  -13.4213    1.6819 N   0  0  0  0  0  0  0  0  0  0  0  0
    1.4430  -13.9838    2.3648 C   0  0  0  0  0  0  0  0  0  0  0  0
    1.2056  -15.2877    2.5079 C   0  0  0  0  0  0  0  0  0  0  0  0
   -0.0117  -15.6926    2.1604 C   0  0  0  0  0  0  0  0  0  0  0  0
   -0.9589  -14.7858    1.7340 C   0  0  0  0  0  0  0  0  0  0  0  0
    0.4415   -8.2113   -0.7435 C   0  0  0  0  0  0  0  0  0  0  0  0
  1  2  1  0
  1  8  2  0
  7  9  1  0
  8  9  1  0
  8 10  1  0
  9 11  1  1
  5 12  1  0
 11 18  1  0
  2  3  2  0
  3  4  1  0
  4  5  2  0
  5  6  1  0
  6  7  2  0
  2  7  1  0
 12 13  2  0
 13 17  1  0
 16 17  2  0
 15 16  1  0
 14 15  2  0
 12 14  1  0
M  END

$$$$
No_3174-/export/home/yangzhenyu/potential_scad_32_flow//YTHDC2/2024-12-06-03-22-00/
     RDKit          3D

 20 21  0  0  0  0  0  0  0  0999 V2000
    1.1787   -8.0297    3.5154 C   0  0  0  0  0  0  0  0  0  0  0  0
    1.0491   -6.8434    2.9820 C   0  0  0  0  0  0  0  0  0  0  0  0
    1.9985   -8.9840    2.8958 C   0  0  0  0  0  0  0  0  0  0  0  0
    1.9135  -10.3404    3.6266 C   0  0  0  0  0  0  0  0  0  0  0  0
    1.3291  -11.3908    3.0222 C   0  0  0  0  0  0  0  0  0  0  0  0
    1.2749  -12.5326    3.7562 C   0  0  0  0  0  0  0  0  0  0  0  0
    1.8025   -5.7637    3.3237 C   0  0  0  0  0  0  0  0  0  0  0  0
    1.1021  -13.6947    3.1208 C   0  0  0  0  0  0  0  0  0  0  0  0
    1.0755  -13.7008    1.7104 C   0  0  0  0  0  0  0  0  0  0  0  0
    1.2767  -12.5764    0.9198 C   0  0  0  0  0  0  0  0  0  0  0  0
    1.4003  -11.3941    1.6084 C   0  0  0  0  0  0  0  0  0  0  0  0
    1.4574   -4.5194    2.7235 C   0  0  0  0  0  0  0  0  0  0  0  0
    0.5647   -4.4548    1.7602 C   0  0  0  0  0  0  0  0  0  0  0  0
    0.0171   -5.5734    1.2100 C   0  0  0  0  0  0  0  0  0  0  0  0
    0.2171   -6.8014    1.8164 C   0  0  0  0  0  0  0  0  0  0  0  0
   -0.4197   -7.8303    1.4466 C   0  0  0  0  0  0  0  0  0  0  0  0
   -1.4843   -8.4019    2.1944 O   0  0  0  0  0  0  0  0  0  0  0  0
   -0.2512   -8.4080    0.2700 S   0  0  0  0  0  0  0  0  0  0  0  0
    0.3306   -2.9560    0.9621 C   0  0  0  0  0  0  0  0  0  0  0  0
    1.1862   -2.4130    0.7607 O   0  0  0  0  0  0  0  0  0  0  0  0
  1  2  1  0
  1  3  1  0
  3  4  1  0
  4  5  1  0
 15 16  1  0
 16 17  1  0
 16 18  2  0
 13 19  1  0
 19 20  2  0
  5  6  2  0
  6  8  1  0
  8  9  2  0
  9 10  1  0
 10 11  2  0
  5 11  1  0
  2  7  2  0
  7 12  1  0
 12 13  2  0
 13 14  1  0
 14 15  2  0
  2 15  1  0
M  END

$$$$
No_3175-/export/home/yangzhenyu/potential_scad_32_flow//YTHDC2/2024-12-06-03-22-00/
     RDKit          3D

 18 19  0  0  1  0  0  0  0  0999 V2000
    1.1787   -8.0297    3.5154 C   0  0  0  0  0  0  0  0  0  0  0  0
    1.0491   -6.8434    2.9820 C   0  0  0  0  0  0  0  0  0  0  0  0
    1.9985   -8.9840    2.8958 C   0  0  0  0  0  0  0  0  0  0  0  0
    1.1814  -10.1889    2.5497 C   0  0  0  0  0  0  0  0  0  0  0  0
    0.9817  -11.1388    2.8133 C   0  0  0  0  0  0  0  0  0  0  0  0
    0.1125  -12.0891    2.4837 C   0  0  0  0  0  0  0  0  0  0  0  0
   -0.6446  -11.8250    1.4596 C   0  0  0  0  0  0  0  0  0  0  0  0
   -0.2941  -10.7598    0.6431 C   0  0  0  0  0  0  0  0  0  0  0  0
    0.5711   -9.8346    1.1239 C   0  0  0  0  0  0  0  0  0  0  0  0
    0.3257   -6.8342    1.7752 C   0  0  0  0  0  0  0  0  0  0  0  0
    0.6503   -8.1159    0.6744 C   0  0  0  0  0  0  0  0  0  0  0  0
   -0.0474  -13.3977    3.1036 C   0  0  0  0  0  0  0  0  0  0  0  0
    1.1006  -14.1466    3.4685 C   0  0  0  0  0  0  0  0  0  0  0  0
    1.3789  -15.3160    2.5263 C   0  0  0  0  0  0  0  0  0  0  0  0
    0.7437  -16.4641    2.7085 C   0  0  1  0  0  0  0  0  0  0  0  0
    1.2993  -17.3450    2.6838 Br  0  0  0  0  0  0  0  0  0  0  0  0
    1.0370   -7.8994   -0.3954 O   0  0  0  0  0  0  0  0  0  0  0  0
   -0.4624  -16.3103    3.6680 C   0  0  0  0  0  0  0  0  0  0  0  0
  1  2  1  0
  1  3  1  0
  3  4  1  0
  2 10  1  0
  9 11  1  0
 10 11  1  0
  6 12  1  0
 12 13  1  0
 13 14  1  0
 14 15  1  0
 15 16  1  0
 11 17  2  0
 15 18  1  1
  4  5  2  0
  5  6  1  0
  6  7  2  0
  7  8  1  0
  8  9  2  0
  4  9  1  0
M  END

$$$$
No_3176-/export/home/yangzhenyu/potential_scad_32_flow//YTHDC2/2024-12-06-03-22-00/
     RDKit          3D

 19 20  0  0  1  0  0  0  0  0999 V2000
    1.1787   -8.0297    3.5154 C   0  0  0  0  0  0  0  0  0  0  0  0
    1.0491   -6.8434    2.9820 C   0  0  0  0  0  0  0  0  0  0  0  0
    0.0950   -8.8404    3.2292 C   0  0  0  0  0  0  0  0  0  0  0  0
   -0.9173   -8.4596    2.5152 C   0  0  0  0  0  0  0  0  0  0  0  0
   -1.0331   -7.2162    2.0653 C   0  0  0  0  0  0  0  0  0  0  0  0
   -2.2155   -6.7621    1.5011 C   0  0  2  0  0  0  0  0  0  0  0  0
    0.0919   -6.3006    2.2576 C   0  0  0  0  0  0  0  0  0  0  0  0
   -3.0717   -5.9641    2.1020 C   0  0  0  0  0  0  0  0  0  0  0  0
   -3.5128   -6.3086    3.2742 C   0  0  0  0  0  0  0  0  0  0  0  0
   -4.2678   -7.2814    3.5051 C   0  0  0  0  0  0  0  0  0  0  0  0
   -4.2886   -7.9914    4.8003 C   0  0  0  0  0  0  0  0  0  0  0  0
   -3.7858   -7.2076    5.8818 C   0  0  0  0  0  0  0  0  0  0  0  0
   -2.7859   -6.4507    5.5567 C   0  0  0  0  0  0  0  0  0  0  0  0
   -2.7084   -5.8001    4.3379 C   0  0  0  0  0  0  0  0  0  0  0  0
    0.0870   -4.8817    1.7013 O   0  0  0  0  0  0  0  0  0  0  0  0
   -2.5693   -7.5050    0.4446 C   0  0  0  0  0  0  0  0  0  0  0  0
   -1.6415   -8.0797   -0.4814 C   0  0  0  0  0  0  0  0  0  0  0  0
   -0.8676   -7.5057   -1.1717 C   0  0  0  0  0  0  0  0  0  0  0  0
   -0.0375   -8.3613   -2.0339 C   0  0  0  0  0  0  0  0  0  0  0  0
  5  6  1  0
  6  8  1  1
  8  9  1  0
  7 15  1  0
  6 16  1  0
 16 17  1  0
 17 18  1  0
 18 19  2  0
  1  2  2  0
  2  7  1  0
  5  7  2  0
  4  5  1  0
  3  4  2  0
  1  3  1  0
  9 10  2  0
 10 11  1  0
 11 12  2  0
 12 13  1  0
 13 14  2  0
  9 14  1  0
M  END

$$$$
No_3177-/export/home/yangzhenyu/potential_scad_32_flow//YTHDC2/2024-12-06-03-22-00/
     RDKit          3D

 19 19  0  0  1  0  0  0  0  0999 V2000
    1.1787   -8.0297    3.5154 O   0  0  0  0  0  0  0  0  0  0  0  0
    0.9969   -8.9689    3.0048 C   0  0  0  0  0  0  0  0  0  0  0  0
    1.3055  -10.1056    3.6616 C   0  0  0  0  0  0  0  0  0  0  0  0
    2.1315  -10.4529    4.2438 C   0  0  0  0  0  0  0  0  0  0  0  0
    0.4484   -8.8156    1.7225 C   0  0  2  0  0  0  0  0  0  0  0  0
   -0.0257   -7.6054    1.5545 C   0  0  0  0  0  0  0  0  0  0  0  0
   -1.2910   -7.5050    1.4309 O   0  0  0  0  0  0  0  0  0  0  0  0
    0.5802   -6.6479    0.8792 O   0  0  0  0  0  0  0  0  0  0  0  0
    2.5430  -11.8025    4.7957 C   0  0  0  0  0  0  0  0  0  0  0  0
    0.3517  -11.3119    3.3938 C   0  0  0  0  0  0  0  0  0  0  0  0
    0.6292  -12.5615    3.7213 C   0  0  0  0  0  0  0  0  0  0  0  0
    1.7994  -12.8360    4.3801 C   0  0  0  0  0  0  0  0  0  0  0  0
   -0.0802   -9.8763    1.0461 C   0  0  0  0  0  0  0  0  0  0  0  0
    0.0720   -9.7252   -0.3559 C   0  0  0  0  0  0  0  0  0  0  0  0
    1.1027   -9.1444   -0.9595 O   0  0  0  0  0  0  0  0  0  0  0  0
   -0.7806  -10.2953   -1.2135 O   0  0  0  0  0  0  0  0  0  0  0  0
   -0.2167  -13.5839    3.3691 C   0  0  0  0  0  0  0  0  0  0  0  0
    0.2465  -14.9703    3.4132 C   0  0  0  0  0  0  0  0  0  0  0  0
    1.4407  -15.3959    3.7087 C   0  0  0  0  0  0  0  0  0  0  0  0
  1  2  1  0
  2  3  1  0
  2  5  1  0
  5  6  1  0
  6  7  2  0
  6  8  1  0
  5 13  1  1
 13 14  1  0
 14 15  2  0
 14 16  1  0
 11 17  1  0
 17 18  2  3
 18 19  1  0
  3  4  2  0
  4  9  1  0
  9 12  2  0
 11 12  1  0
 10 11  2  0
  3 10  1  0
M  END

$$$$
No_3178-/export/home/yangzhenyu/potential_scad_32_flow//YTHDC2/2024-12-06-03-22-00/
     RDKit          3D

 18 20  0  0  1  0  0  0  0  0999 V2000
    1.1787   -8.0297    3.5154 C   0  0  0  0  0  0  0  0  0  0  0  0
    1.0491   -6.8434    2.9820 C   0  0  0  0  0  0  0  0  0  0  0  0
    0.0950   -8.8404    3.2292 C   0  0  0  0  0  0  0  0  0  0  0  0
   -0.9173   -8.4596    2.5152 C   0  0  0  0  0  0  0  0  0  0  0  0
   -1.0331   -7.2162    2.0653 C   0  0  0  0  0  0  0  0  0  0  0  0
   -0.0105   -6.3168    2.3081 C   0  0  0  0  0  0  0  0  0  0  0  0
    0.1465  -10.2446    3.6981 C   0  0  0  0  0  0  0  0  0  0  0  0
   -1.0336  -10.8619    3.9439 C   0  0  0  0  0  0  0  0  0  0  0  0
   -2.1702  -10.4673    3.2991 C   0  0  0  0  0  0  0  0  0  0  0  0
   -2.1358   -9.2084    2.5791 C   0  0  0  0  0  0  0  0  0  0  0  0
   -0.0074   -4.7440    1.7754 C   0  0  1  0  0  0  0  0  0  0  0  0
    0.8532   -4.0235    2.1730 C   0  0  0  0  0  0  0  0  0  0  0  0
    0.8275   -2.6762    1.6448 C   0  0  0  0  0  0  0  0  0  0  0  0
   -0.2030   -2.4834    0.6637 C   0  0  0  0  0  0  0  0  0  0  0  0
   -1.0221   -3.4069    0.1958 C   0  0  0  0  0  0  0  0  0  0  0  0
   -0.9322   -4.6522    0.6982 C   0  0  0  0  0  0  0  0  0  0  0  0
   -1.8143   -3.2006   -0.9481 O   0  0  0  0  0  0  0  0  0  0  0  0
    1.3067  -10.7131    4.5385 Cl  0  0  0  0  0  0  0  0  0  0  0  0
 11  6  1  6
 12 13  1  0
 14 15  1  0
 11 16  1  0
 15 16  1  0
 15 17  2  0
  7 18  1  0
 13 14  1  0
 11 12  1  0
  4 10  2  0
  9 10  1  0
  8  9  2  0
  7  8  1  0
  3  7  2  0
  1  2  2  0
  2  6  1  0
  5  6  2  0
  4  5  1  0
  3  4  1  0
  1  3  1  0
M  END

$$$$
No_3179-/export/home/yangzhenyu/potential_scad_32_flow//YTHDC2/2024-12-06-03-22-00/
     RDKit          3D

 18 19  0  0  0  0  0  0  0  0999 V2000
    1.1787   -8.0297    3.5154 C   0  0  0  0  0  0  0  0  0  0  0  0
    1.0491   -6.8434    2.9820 C   0  0  0  0  0  0  0  0  0  0  0  0
    0.0950   -8.8404    3.2292 C   0  0  0  0  0  0  0  0  0  0  0  0
   -0.9173   -8.4596    2.5152 C   0  0  0  0  0  0  0  0  0  0  0  0
   -1.0331   -7.2162    2.0653 C   0  0  0  0  0  0  0  0  0  0  0  0
   -0.0105   -6.3168    2.3081 C   0  0  0  0  0  0  0  0  0  0  0  0
    0.1935  -10.3737    3.7416 C   0  0  0  0  0  0  0  0  0  0  0  0
    0.3534  -11.4163    2.8027 C   0  0  0  0  0  0  0  0  0  0  0  0
   -0.2231  -11.5566    1.8523 C   0  0  0  0  0  0  0  0  0  0  0  0
    0.4381  -11.4450    0.6703 C   0  0  0  0  0  0  0  0  0  0  0  0
    1.7256  -11.1390    0.7652 C   0  0  0  0  0  0  0  0  0  0  0  0
    2.0377  -11.0874    2.1199 C   0  0  0  0  0  0  0  0  0  0  0  0
    0.0258   -4.8456    1.7229 C   0  0  0  0  0  0  0  0  0  0  0  0
    0.9564   -4.1180    1.9851 C   0  0  0  0  0  0  0  0  0  0  0  0
    1.0821   -2.8264    1.3691 C   0  0  0  0  0  0  0  0  0  0  0  0
    0.8243  -12.5745    3.7043 C   0  0  0  0  0  0  0  0  0  0  0  0
   -0.9118   -4.5060    0.7461 C   0  0  0  0  0  0  0  0  0  0  0  0
   -2.0027   -5.4169    0.4020 C   0  0  0  0  0  0  0  0  0  0  0  0
  3  7  1  0
  7  8  1  0
  8  9  1  0
  9 10  1  0
 10 11  1  0
  8 12  1  0
 11 12  1  0
  6 13  1  0
 13 14  2  3
 14 15  1  0
  8 16  1  0
 13 17  1  0
 17 18  1  0
  1  2  2  0
  2  6  1  0
  5  6  2  0
  4  5  1  0
  3  4  2  0
  1  3  1  0
M  END

$$$$
No_3180-/export/home/yangzhenyu/potential_scad_32_flow//YTHDC2/2024-12-06-03-22-00/
     RDKit          3D

 19 21  0  0  0  0  0  0  0  0999 V2000
    1.1787   -8.0297    3.5154 C   0  0  0  0  0  0  0  0  0  0  0  0
    1.1048   -9.2215    3.2892 C   0  0  0  0  0  0  0  0  0  0  0  0
    1.3627  -10.1721    4.3044 C   0  0  0  0  0  0  0  0  0  0  0  0
    1.7354  -11.4730    3.9023 C   0  0  0  0  0  0  0  0  0  0  0  0
    1.8080  -11.8127    2.7216 C   0  0  0  0  0  0  0  0  0  0  0  0
    1.5854  -11.0021    1.7249 C   0  0  0  0  0  0  0  0  0  0  0  0
    1.3573   -9.7389    1.9287 C   0  0  0  0  0  0  0  0  0  0  0  0
    1.2865   -8.8078    0.9161 C   0  0  0  0  0  0  0  0  0  0  0  0
    0.9210   -7.5140    1.1674 C   0  0  0  0  0  0  0  0  0  0  0  0
    1.0097   -7.0192    2.4369 C   0  0  0  0  0  0  0  0  0  0  0  0
    0.8553   -5.6437    2.6966 C   0  0  0  0  0  0  0  0  0  0  0  0
    2.0476  -13.2622    2.4252 O   0  0  0  0  0  0  0  0  0  0  0  0
   -0.2529   -5.0622    2.1034 N   0  0  0  0  0  0  0  0  0  0  0  0
   -0.1619   -3.8423    1.5847 C   0  0  0  0  0  0  0  0  0  0  0  0
   -0.7834   -3.5945    0.3618 C   0  0  0  0  0  0  0  0  0  0  0  0
   -0.6333   -2.2640   -0.2343 C   0  0  0  0  0  0  0  0  0  0  0  0
    0.3373   -1.4544    0.2320 C   0  0  0  0  0  0  0  0  0  0  0  0
    1.0943   -1.7570    1.3694 C   0  0  0  0  0  0  0  0  0  0  0  0
    0.8697   -2.9146    1.9631 C   0  0  0  0  0  0  0  0  0  0  0  0
 10 11  1  0
  5 12  1  0
 11 13  1  0
 13 14  1  0
  1  2  2  0
  7  8  2  0
  8  9  1  0
  9 10  2  0
  1 10  1  0
  2  3  1  0
  3  4  2  0
  4  5  1  0
  5  6  2  0
  6  7  1  0
  2  7  1  0
 14 15  2  0
 15 16  1  0
 16 17  2  0
 17 18  1  0
 18 19  2  0
 14 19  1  0
M  END

$$$$
No_3181-/export/home/yangzhenyu/potential_scad_32_flow//YTHDC2/2024-12-06-03-22-00/
     RDKit          3D

 14 15  0  0  1  0  0  0  0  0999 V2000
    1.1787   -8.0297    3.5154 C   0  0  0  0  0  0  0  0  0  0  0  0
    1.1048   -9.2215    3.2892 C   0  0  0  0  0  0  0  0  0  0  0  0
    1.2339   -9.7611    2.0189 C   0  0  0  0  0  0  0  0  0  0  0  0
    1.3583   -9.0036    0.9764 C   0  0  0  0  0  0  0  0  0  0  0  0
    1.5996   -7.6362    1.1311 C   0  0  0  0  0  0  0  0  0  0  0  0
    1.4830   -7.0928    2.3626 C   0  0  0  0  0  0  0  0  0  0  0  0
    1.1008  -11.2372    1.8542 C   0  0  2  0  0  0  0  0  0  0  0  0
    1.9749  -12.0938    2.2342 C   0  0  0  0  0  0  0  0  0  0  0  0
    1.7533  -13.4231    1.8956 C   0  0  0  0  0  0  0  0  0  0  0  0
    0.5760  -13.4522    1.0640 C   0  0  0  0  0  0  0  0  0  0  0  0
    0.2982  -11.9865    0.9898 C   0  0  0  0  0  0  0  0  0  0  0  0
    1.5399   -5.4280    2.6773 Br  0  0  0  0  0  0  0  0  0  0  0  0
    2.3846  -14.6515    2.1339 C   0  0  0  0  0  0  0  0  0  0  0  0
    3.1628  -15.2663    1.6274 F   0  0  0  0  0  0  0  0  0  0  0  0
  7  3  1  6
  7  8  1  0
  8  9  2  0
  9 10  1  0
  7 11  1  0
 10 11  1  0
  6 12  1  0
  9 13  1  0
 13 14  1  0
  1  2  2  0
  2  3  1  0
  3  4  2  0
  4  5  1  0
  5  6  2  0
  1  6  1  0
M  END

$$$$
No_3182-/export/home/yangzhenyu/potential_scad_32_flow//YTHDC2/2024-12-06-03-22-00/
     RDKit          3D

 20 21  0  0  0  0  0  0  0  0999 V2000
    1.1787   -8.0297    3.5154 C   0  0  0  0  0  0  0  0  0  0  0  0
    1.1048   -9.2215    3.2892 C   0  0  0  0  0  0  0  0  0  0  0  0
    1.2339   -9.7611    2.0189 C   0  0  0  0  0  0  0  0  0  0  0  0
    1.3583   -9.0036    0.9764 C   0  0  0  0  0  0  0  0  0  0  0  0
    1.5996   -7.6362    1.1311 C   0  0  0  0  0  0  0  0  0  0  0  0
    1.4830   -7.0928    2.3626 C   0  0  0  0  0  0  0  0  0  0  0  0
    1.1008  -11.2372    1.8542 C   0  0  0  0  0  0  0  0  0  0  0  0
    0.5178  -11.9759    2.3445 C   0  0  0  0  0  0  0  0  0  0  0  0
    0.4575  -13.3705    2.1281 C   0  0  0  0  0  0  0  0  0  0  0  0
    1.1632  -14.1013    2.0451 C   0  0  0  0  0  0  0  0  0  0  0  0
    2.4646  -13.5566    1.4445 C   0  0  0  0  0  0  0  0  0  0  0  0
    1.0647  -15.5680    1.9364 N   0  0  0  0  0  0  0  0  0  0  0  0
    0.0396  -16.0486    1.8732 C   0  0  0  0  0  0  0  0  0  0  0  0
   -0.5170  -16.6711    2.9142 C   0  0  0  0  0  0  0  0  0  0  0  0
   -1.7511  -17.0652    3.2622 C   0  0  0  0  0  0  0  0  0  0  0  0
   -2.6490  -16.6928    2.3500 C   0  0  0  0  0  0  0  0  0  0  0  0
   -2.3491  -16.0154    1.2202 C   0  0  0  0  0  0  0  0  0  0  0  0
   -0.9908  -15.6476    0.9695 C   0  0  0  0  0  0  0  0  0  0  0  0
    1.5670   -5.4745    2.6730 Cl  0  0  0  0  0  0  0  0  0  0  0  0
    0.7142  -17.0844    4.1750 O   0  0  0  0  0  0  0  0  0  0  0  0
  3  7  1  0
  7  8  2  3
  8  9  1  0
  9 10  2  3
 10 11  1  0
 10 12  1  0
 12 13  1  0
  6 19  1  0
 14 20  1  0
  1  2  2  0
  2  3  1  0
  3  4  2  0
  4  5  1  0
  5  6  2  0
  1  6  1  0
 13 14  2  0
 14 15  1  0
 15 16  2  0
 16 17  1  0
 17 18  2  0
 13 18  1  0
M  END

$$$$
No_3183-/export/home/yangzhenyu/potential_scad_32_flow//YTHDC2/2024-12-06-03-22-00/
     RDKit          3D

 19 21  0  0  0  0  0  0  0  0999 V2000
    1.1787   -8.0297    3.5154 C   0  0  0  0  0  0  0  0  0  0  0  0
    1.1048   -9.2215    3.2892 C   0  0  0  0  0  0  0  0  0  0  0  0
    1.2339   -9.7611    2.0189 C   0  0  0  0  0  0  0  0  0  0  0  0
    1.3583   -9.0036    0.9764 C   0  0  0  0  0  0  0  0  0  0  0  0
    1.5996   -7.6362    1.1311 C   0  0  0  0  0  0  0  0  0  0  0  0
    1.4830   -7.0928    2.3626 C   0  0  0  0  0  0  0  0  0  0  0  0
    1.4898   -5.7274    2.6199 C   0  0  0  0  0  0  0  0  0  0  0  0
    1.1681  -11.2222    1.8390 C   0  0  0  0  0  0  0  0  0  0  0  0
    1.9047  -12.1147    2.3357 C   0  0  0  0  0  0  0  0  0  0  0  0
    1.6844  -13.4555    2.0602 C   0  0  0  0  0  0  0  0  0  0  0  0
    0.6977  -13.8514    1.3046 C   0  0  0  0  0  0  0  0  0  0  0  0
    0.3647  -15.1223    0.8874 C   0  0  0  0  0  0  0  0  0  0  0  0
   -0.0618  -12.7663    0.7441 C   0  0  0  0  0  0  0  0  0  0  0  0
    0.1526  -11.5406    0.9044 C   0  0  0  0  0  0  0  0  0  0  0  0
    1.2395  -16.1752    1.4046 C   0  0  0  0  0  0  0  0  0  0  0  0
    0.7995  -17.5078    1.2374 N   0  0  0  0  0  0  0  0  0  0  0  0
   -0.2831  -17.8981    0.9658 C   0  0  0  0  0  0  0  0  0  0  0  0
   -1.1386  -17.0145    0.4022 C   0  0  0  0  0  0  0  0  0  0  0  0
   -0.8051  -15.6625    0.3855 C   0  0  0  0  0  0  0  0  0  0  0  0
  6  7  1  0
  3  8  1  0
 11 12  1  0
  1  2  2  0
  2  3  1  0
  3  4  2  0
  4  5  1  0
  5  6  2  0
  1  6  1  0
  8  9  2  0
  9 10  1  0
 10 11  2  0
 11 13  1  0
 13 14  2  0
  8 14  1  0
 12 15  2  0
 15 16  1  0
 16 17  2  0
 17 18  1  0
 18 19  2  0
 12 19  1  0
M  END

$$$$
No_3184-/export/home/yangzhenyu/potential_scad_32_flow//YTHDC2/2024-12-06-03-22-00/
     RDKit          3D

 18 19  0  0  1  0  0  0  0  0999 V2000
    1.1787   -8.0297    3.5154 O   0  0  0  0  0  0  0  0  0  0  0  0
    0.9969   -8.9689    3.0048 C   0  0  1  0  0  0  0  0  0  0  0  0
    0.9976   -8.9567    1.6341 C   0  0  0  0  0  0  0  0  0  0  0  0
    0.7663   -7.7728    1.0082 C   0  0  0  0  0  0  0  0  0  0  0  0
    1.1468   -6.5619    1.6541 C   0  0  2  0  0  0  0  0  0  0  0  0
    1.3592   -6.6155    3.0007 C   0  0  0  0  0  0  0  0  0  0  0  0
    1.2035  -10.1894    3.6215 C   0  0  0  0  0  0  0  0  0  0  0  0
    1.3724  -11.3423    2.8771 C   0  0  0  0  0  0  0  0  0  0  0  0
    1.3261  -11.2581    1.4865 C   0  0  0  0  0  0  0  0  0  0  0  0
    1.1771  -10.0721    0.8483 C   0  0  0  0  0  0  0  0  0  0  0  0
    1.0240  -10.1135   -0.3993 O   0  0  0  0  0  0  0  0  0  0  0  0
    1.6595  -12.8378    3.5594 F   0  0  0  0  0  0  0  0  0  0  0  0
    0.9863   -5.3549    1.0972 C   0  0  0  0  0  0  0  0  0  0  0  0
    0.1025   -4.3664    1.7684 C   0  0  0  0  0  0  0  0  0  0  0  0
    0.6955   -3.3379    2.3969 C   0  0  0  0  0  0  0  0  0  0  0  0
    0.2180   -2.9021    3.6406 C   0  0  0  0  0  0  0  0  0  0  0  0
   -1.1791   -3.0701    3.7548 C   0  0  0  0  0  0  0  0  0  0  0  0
   -1.8462   -3.9502    2.9573 C   0  0  0  0  0  0  0  0  0  0  0  0
  1  2  1  0
  2  3  1  0
  3  4  1  0
  4  5  1  0
  1  6  1  0
  5  6  1  0
  2  7  1  6
  8  9  1  0
  3 10  1  0
  9 10  1  0
 10 11  2  0
  8 12  1  0
  5 13  1  1
 13 14  1  0
 14 15  1  0
 15 16  2  3
 16 17  1  0
 17 18  2  0
  7  8  1  0
M  END

$$$$
No_3185-/export/home/yangzhenyu/potential_scad_32_flow//YTHDC2/2024-12-06-03-22-00/
     RDKit          3D

 19 20  0  0  1  0  0  0  0  0999 V2000
    1.1787   -8.0297    3.5154 C   0  0  0  0  0  0  0  0  0  0  0  0
    1.0491   -6.8434    2.9820 C   0  0  0  0  0  0  0  0  0  0  0  0
    0.9905   -9.0774    2.6527 C   0  0  0  0  0  0  0  0  0  0  0  0
    0.7897   -8.9519    1.3691 C   0  0  0  0  0  0  0  0  0  0  0  0
    0.7018   -7.7198    0.7892 C   0  0  0  0  0  0  0  0  0  0  0  0
    0.8918   -6.5957    1.6117 C   0  0  0  0  0  0  0  0  0  0  0  0
    1.0600  -10.5680    3.3321 C   0  0  0  0  0  0  0  0  0  0  0  0
   -0.1041  -11.1772    3.5150 C   0  0  0  0  0  0  0  0  0  0  0  0
   -0.1608  -12.4876    3.3268 N   0  0  0  0  0  0  0  0  0  0  0  0
    1.0497  -13.1802    3.2846 C   0  0  0  0  0  0  0  0  0  0  0  0
    0.9338   -5.2905    1.1240 O   0  0  0  0  0  0  0  0  0  0  0  0
   -1.2166  -10.5144    3.9904 O   0  0  0  0  0  0  0  0  0  0  0  0
    1.1252  -14.0785    2.1885 C   0  0  1  0  0  0  0  0  0  0  0  0
    2.0037  -15.0904    2.1350 C   0  0  0  0  0  0  0  0  0  0  0  0
    1.8747  -16.1696    2.3767 N   0  0  0  0  0  0  0  0  0  0  0  0
    0.7203  -16.6041    2.7741 C   0  0  0  0  0  0  0  0  0  0  0  0
   -0.0308  -15.0734    1.9771 C   0  0  0  0  0  0  0  0  0  0  0  0
    0.6162  -10.0018    0.3800 C   0  0  0  0  0  0  0  0  0  0  0  0
    1.6916  -10.8517    0.2302 S   0  0  0  0  0  0  0  0  0  0  0  0
  1  2  1  0
  3  4  1  0
  2  6  1  0
  5  6  1  0
  3  7  1  0
  7  8  1  0
  8  9  1  0
  9 10  1  0
  6 11  2  0
  8 12  2  0
 13 10  1  1
 13 14  1  0
 14 15  1  0
 15 16  1  0
 13 17  1  0
 16 17  1  0
  4 18  1  0
 18 19  1  0
  1  3  1  0
  4  5  1  0
M  END

$$$$
No_3186-/export/home/yangzhenyu/potential_scad_32_flow//YTHDC2/2024-12-06-03-22-00/
     RDKit          3D

 20 21  0  0  0  0  0  0  0  0999 V2000
    1.1787   -8.0297    3.5154 O   0  0  0  0  0  0  0  0  0  0  0  0
    0.6747   -7.4019    2.7838 C   0  0  0  0  0  0  0  0  0  0  0  0
    0.7594   -8.0032    1.4295 C   0  0  0  0  0  0  0  0  0  0  0  0
    1.4743   -7.4398    0.6034 C   0  0  0  0  0  0  0  0  0  0  0  0
    1.8433   -8.4151   -0.4648 C   0  0  0  0  0  0  0  0  0  0  0  0
    1.3204   -9.5205   -0.5909 C   0  0  0  0  0  0  0  0  0  0  0  0
    0.4880  -10.0838    0.3555 C   0  0  0  0  0  0  0  0  0  0  0  0
    0.2363   -9.3226    1.4465 C   0  0  0  0  0  0  0  0  0  0  0  0
   -1.1207   -9.2205    1.6475 C   0  0  0  0  0  0  0  0  0  0  0  0
   -2.0340   -8.3450    1.1544 O   0  0  0  0  0  0  0  0  0  0  0  0
   -1.5960   -9.6749    2.8687 N   0  0  0  0  0  0  0  0  0  0  0  0
   -0.7505  -10.5905    3.6357 C   0  0  0  0  0  0  0  0  0  0  0  0
   -0.0188   -9.9054    4.6945 C   0  0  0  0  0  0  0  0  0  0  0  0
   -0.2501   -8.6862    4.5027 C   0  0  0  0  0  0  0  0  0  0  0  0
   -1.5588   -8.3974    5.0132 C   0  0  0  0  0  0  0  0  0  0  0  0
   -2.3736   -9.1403    5.8089 C   0  0  0  0  0  0  0  0  0  0  0  0
   -3.7425   -9.1007    5.5854 C   0  0  0  0  0  0  0  0  0  0  0  0
   -4.3056   -8.1859    4.8285 C   0  0  0  0  0  0  0  0  0  0  0  0
   -3.4989   -7.1597    4.3577 C   0  0  0  0  0  0  0  0  0  0  0  0
   -2.1265   -7.2490    4.3878 C   0  0  0  0  0  0  0  0  0  0  0  0
  1  2  1  0
  2  3  1  0
  8  9  1  0
  9 10  2  0
  9 11  1  0
 11 12  1  0
 12 13  1  0
 13 14  1  0
 14 15  1  0
 15 16  2  0
 16 17  1  0
 17 18  2  0
 18 19  1  0
 19 20  2  0
 15 20  1  0
  3  4  2  0
  4  5  1  0
  5  6  2  0
  6  7  1  0
  7  8  2  0
  3  8  1  0
M  END

$$$$
No_3187-/export/home/yangzhenyu/potential_scad_32_flow//YTHDC2/2024-12-06-03-22-00/
     RDKit          3D

 18 18  0  0  1  0  0  0  0  0999 V2000
    1.1787   -8.0297    3.5154 C   0  0  0  0  0  0  0  0  0  0  0  0
    1.1048   -9.2215    3.2892 C   0  0  2  0  0  0  0  0  0  0  0  0
    1.3627  -10.1721    4.3044 C   0  0  0  0  0  0  0  0  0  0  0  0
    1.7354  -11.4730    3.9023 C   0  0  0  0  0  0  0  0  0  0  0  0
    1.6166  -11.5515    2.5159 C   0  0  0  0  0  0  0  0  0  0  0  0
    1.4080  -10.1475    2.0704 C   0  0  0  0  0  0  0  0  0  0  0  0
    1.0667   -7.1428    2.2573 C   0  0  0  0  0  0  0  0  0  0  0  0
    1.0322   -5.7036    2.3984 C   0  0  0  0  0  0  0  0  0  0  0  0
    1.5441   -5.1607    3.5827 O   0  0  0  0  0  0  0  0  0  0  0  0
    0.9333   -4.9258    1.4290 O   0  0  0  0  0  0  0  0  0  0  0  0
    1.4032   -9.6871    0.8296 C   0  0  1  0  0  0  0  0  0  0  0  0
    2.5116   -9.3072    0.2113 Cl  0  0  0  0  0  0  0  0  0  0  0  0
    1.8117  -12.5326    1.7852 O   0  0  0  0  0  0  0  0  0  0  0  0
    0.2277   -9.9558    0.1074 C   0  0  0  0  0  0  0  0  0  0  0  0
   -0.1982   -9.1656   -0.8520 F   0  0  0  0  0  0  0  0  0  0  0  0
    0.4433  -11.1831   -0.6895 Br  0  0  0  0  0  0  0  0  0  0  0  0
   -0.9411   -9.9704    0.8777 F   0  0  0  0  0  0  0  0  0  0  0  0
    1.9733  -13.8156    2.1250 C   0  0  0  0  0  0  0  0  0  0  0  0
  2  1  1  1
  2  3  1  0
  3  4  2  0
  4  5  1  0
  2  6  1  0
  5  6  2  0
  1  7  2  3
  7  8  1  0
  8  9  1  0
  8 10  2  0
  6 11  1  0
 11 12  1  6
  5 13  1  0
 11 14  1  0
 14 15  1  0
 14 16  1  0
 14 17  1  0
 13 18  1  0
M  END

$$$$
No_3188-/export/home/yangzhenyu/potential_scad_32_flow//YTHDC2/2024-12-06-03-22-00/
     RDKit          3D

 20 21  0  0  1  0  0  0  0  0999 V2000
    1.1787   -8.0297    3.5154 N   0  0  0  0  0  0  0  0  0  0  0  0
    0.8669   -7.0905    2.8589 C   0  0  0  0  0  0  0  0  0  0  0  0
    1.0447   -7.3244    1.4123 C   0  0  0  0  0  0  0  0  0  0  0  0
    1.3746   -8.4389    1.0864 C   0  0  1  0  0  0  0  0  0  0  0  0
    1.8185   -8.7923   -0.3129 C   0  0  0  0  0  0  0  0  0  0  0  0
    1.7714   -9.1001    2.3120 C   0  0  2  0  0  0  0  0  0  0  0  0
    2.1345  -10.3511    2.5694 C   0  0  0  0  0  0  0  0  0  0  0  0
    2.6810   -8.5558   -0.8585 O   0  0  0  0  0  0  0  0  0  0  0  0
    0.7290   -9.4341   -0.9578 O   0  0  0  0  0  0  0  0  0  0  0  0
    2.1066  -10.9405    3.7175 C   0  0  0  0  0  0  0  0  0  0  0  0
    1.1008  -11.4709    4.1519 C   0  0  0  0  0  0  0  0  0  0  0  0
    0.0155  -11.4603    3.3303 C   0  0  0  0  0  0  0  0  0  0  0  0
    0.0246  -11.6413    2.0726 C   0  0  0  0  0  0  0  0  0  0  0  0
    1.2257  -10.8328    1.6062 C   0  0  0  0  0  0  0  0  0  0  0  0
    3.2144  -10.5111    4.5410 C   0  0  0  0  0  0  0  0  0  0  0  0
    3.9962  -11.2283    5.2205 O   0  0  0  0  0  0  0  0  0  0  0  0
    2.8003   -9.5768    5.5013 I   0  0  0  0  0  0  0  0  0  0  0  0
   -1.1367  -12.0958    1.0867 O   0  0  0  0  0  0  0  0  0  0  0  0
   -0.8425  -13.2835    0.6147 C   0  0  0  0  0  0  0  0  0  0  0  0
   -1.7295  -13.8957    0.6546 C   0  0  0  0  0  0  0  0  0  0  0  0
  1  2  1  0
  2  3  2  0
  3  4  1  0
  4  5  1  6
  1  6  1  0
  4  6  1  0
  6  7  1  1
  5  8  2  0
  5  9  1  0
 10 15  1  0
 15 16  2  0
 15 17  1  0
 13 18  1  0
 18 19  1  0
 19 20  1  0
  7 10  2  0
 10 11  1  0
 11 12  2  0
 12 13  1  0
 13 14  2  0
  7 14  1  0
M  END

$$$$
No_3189-/export/home/yangzhenyu/potential_scad_32_flow//YTHDC2/2024-12-06-03-22-00/
     RDKit          3D

 18 20  0  0  0  0  0  0  0  0999 V2000
    1.1787   -8.0297    3.5154 C   0  0  0  0  0  0  0  0  0  0  0  0
    1.1048   -9.2215    3.2892 C   0  0  0  0  0  0  0  0  0  0  0  0
    1.2339   -9.7611    2.0189 C   0  0  0  0  0  0  0  0  0  0  0  0
    1.3583   -9.0036    0.9764 C   0  0  0  0  0  0  0  0  0  0  0  0
    1.5996   -7.6362    1.1311 C   0  0  0  0  0  0  0  0  0  0  0  0
    1.4830   -7.0928    2.3626 C   0  0  0  0  0  0  0  0  0  0  0  0
    1.4898   -5.7274    2.6199 C   0  0  0  0  0  0  0  0  0  0  0  0
    1.1681  -11.2222    1.8390 C   0  0  0  0  0  0  0  0  0  0  0  0
    0.5014  -11.9760    2.2068 C   0  0  0  0  0  0  0  0  0  0  0  0
    0.4167  -13.3685    2.0527 C   0  0  0  0  0  0  0  0  0  0  0  0
   -0.6161  -14.0718    1.8701 C   0  0  0  0  0  0  0  0  0  0  0  0
   -1.8964  -13.5714    2.1813 C   0  0  0  0  0  0  0  0  0  0  0  0
   -1.9604  -12.2022    2.5261 C   0  0  0  0  0  0  0  0  0  0  0  0
   -3.2699  -11.6729    2.9749 C   0  0  0  0  0  0  0  0  0  0  0  0
   -3.2670  -10.3819    3.5527 C   0  0  0  0  0  0  0  0  0  0  0  0
   -1.9951   -9.7159    3.6862 C   0  0  0  0  0  0  0  0  0  0  0  0
   -0.9875  -11.6169    2.5910 C   0  0  0  0  0  0  0  0  0  0  0  0
   -0.8308  -10.1720    3.2738 C   0  0  0  0  0  0  0  0  0  0  0  0
  6  7  1  0
  3  8  1  0
  8  9  1  0
  9 10  2  0
 10 11  1  0
 11 12  2  0
 12 13  1  0
  9 17  1  0
  1  2  2  0
  2  3  1  0
  3  4  2  0
  4  5  1  0
  5  6  2  0
  1  6  1  0
 13 14  2  0
 14 15  1  0
 15 16  2  0
 16 18  1  0
 17 18  2  0
 13 17  1  0
M  END

$$$$
No_3190-/export/home/yangzhenyu/potential_scad_32_flow//YTHDC2/2024-12-06-03-22-00/
     RDKit          3D

 17 19  0  0  0  0  0  0  0  0999 V2000
    1.1787   -8.0297    3.5154 C   0  0  0  0  0  0  0  0  0  0  0  0
    1.1048   -9.2215    3.2892 C   0  0  0  0  0  0  0  0  0  0  0  0
    1.3627  -10.1721    4.3044 C   0  0  0  0  0  0  0  0  0  0  0  0
    1.7354  -11.4730    3.9023 C   0  0  0  0  0  0  0  0  0  0  0  0
    1.8080  -11.8127    2.7216 C   0  0  0  0  0  0  0  0  0  0  0  0
    1.5854  -11.0021    1.7249 C   0  0  0  0  0  0  0  0  0  0  0  0
    1.3573   -9.7389    1.9287 C   0  0  0  0  0  0  0  0  0  0  0  0
    1.2865   -8.8078    0.9161 C   0  0  0  0  0  0  0  0  0  0  0  0
    0.9210   -7.5140    1.1674 C   0  0  0  0  0  0  0  0  0  0  0  0
    1.0097   -7.0192    2.4369 C   0  0  0  0  0  0  0  0  0  0  0  0
    0.8553   -5.6437    2.6966 C   0  0  0  0  0  0  0  0  0  0  0  0
    2.0977  -13.4702    2.3918 O   0  0  0  0  0  0  0  0  0  0  0  0
    1.7376   -4.9719    3.3042 C   0  0  0  0  0  0  0  0  0  0  0  0
    1.4321   -3.5302    3.3501 C   0  0  0  0  0  0  0  0  0  0  0  0
   -0.2074   -5.0414    2.1047 C   0  0  0  0  0  0  0  0  0  0  0  0
   -0.4331   -3.7197    2.0725 C   0  0  0  0  0  0  0  0  0  0  0  0
    0.4070   -2.9295    2.9045 C   0  0  0  0  0  0  0  0  0  0  0  0
 10 11  1  0
  5 12  1  0
  1  2  2  0
  7  8  2  0
  8  9  1  0
  9 10  2  0
  1 10  1  0
  2  3  1  0
  3  4  2  0
  4  5  1  0
  5  6  2  0
  6  7  1  0
  2  7  1  0
 11 13  2  0
 13 14  1  0
 14 17  2  0
 16 17  1  0
 15 16  2  0
 11 15  1  0
M  END

$$$$
No_3191-/export/home/yangzhenyu/potential_scad_32_flow//YTHDC2/2024-12-06-03-22-00/
     RDKit          3D

 15 16  0  0  0  0  0  0  0  0999 V2000
    1.1787   -8.0297    3.5154 C   0  0  0  0  0  0  0  0  0  0  0  0
    1.1048   -9.2215    3.2892 C   0  0  0  0  0  0  0  0  0  0  0  0
    1.2339   -9.7611    2.0189 C   0  0  0  0  0  0  0  0  0  0  0  0
    1.3583   -9.0036    0.9764 C   0  0  0  0  0  0  0  0  0  0  0  0
    1.5996   -7.6362    1.1311 C   0  0  0  0  0  0  0  0  0  0  0  0
    1.4830   -7.0928    2.3626 C   0  0  0  0  0  0  0  0  0  0  0  0
    1.4898   -5.7274    2.6199 C   0  0  0  0  0  0  0  0  0  0  0  0
    1.1681  -11.2222    1.8390 C   0  0  0  0  0  0  0  0  0  0  0  0
    0.5014  -11.9760    2.2068 C   0  0  0  0  0  0  0  0  0  0  0  0
    0.4167  -13.3685    2.0527 C   0  0  0  0  0  0  0  0  0  0  0  0
   -0.6161  -14.0718    1.8701 C   0  0  0  0  0  0  0  0  0  0  0  0
   -0.5561  -15.5453    1.8466 N   0  0  0  0  0  0  0  0  0  0  0  0
    1.7374  -14.0753    2.2313 C   0  0  0  0  0  0  0  0  0  0  0  0
    1.8444  -15.3874    2.2575 C   0  0  0  0  0  0  0  0  0  0  0  0
    0.7610  -16.1519    2.1040 C   0  0  0  0  0  0  0  0  0  0  0  0
  6  7  1  0
  3  8  1  0
  8  9  2  3
  9 10  1  0
  1  2  2  0
  2  3  1  0
  3  4  2  0
  4  5  1  0
  5  6  2  0
  1  6  1  0
 10 11  2  0
 11 12  1  0
 12 15  2  0
 14 15  1  0
 13 14  2  0
 10 13  1  0
M  END

$$$$
No_3192-/export/home/yangzhenyu/potential_scad_32_flow//YTHDC2/2024-12-06-03-22-00/
     RDKit          3D

 20 21  0  0  0  0  0  0  0  0999 V2000
    1.1787   -8.0297    3.5154 C   0  0  0  0  0  0  0  0  0  0  0  0
    1.1048   -9.2215    3.2892 C   0  0  0  0  0  0  0  0  0  0  0  0
    1.3627  -10.1721    4.3044 C   0  0  0  0  0  0  0  0  0  0  0  0
    1.7354  -11.4730    3.9023 C   0  0  0  0  0  0  0  0  0  0  0  0
    1.8080  -11.8127    2.7216 C   0  0  0  0  0  0  0  0  0  0  0  0
    1.5854  -11.0021    1.7249 C   0  0  0  0  0  0  0  0  0  0  0  0
    1.3573   -9.7389    1.9287 C   0  0  0  0  0  0  0  0  0  0  0  0
    1.2865   -8.8078    0.9161 C   0  0  0  0  0  0  0  0  0  0  0  0
    0.9210   -7.5140    1.1674 C   0  0  0  0  0  0  0  0  0  0  0  0
    1.0097   -7.0192    2.4369 C   0  0  0  0  0  0  0  0  0  0  0  0
    0.9449   -5.6296    2.7100 C   0  0  0  0  0  0  0  0  0  0  0  0
    2.0493  -13.2614    2.4251 C   0  0  0  0  0  0  0  0  0  0  0  0
    2.3806  -13.7446    1.3056 O   0  0  0  0  0  0  0  0  0  0  0  0
    2.3227  -14.1391    3.4113 N   0  0  0  0  0  0  0  0  0  0  0  0
    0.2785   -4.8149    1.9449 O   0  0  0  0  0  0  0  0  0  0  0  0
    1.6480   -5.1023    3.7278 O   0  0  0  0  0  0  0  0  0  0  0  0
    1.3741   -9.1975   -0.4031 C   0  0  0  0  0  0  0  0  0  0  0  0
    1.5246   -8.7277   -1.2890 O   0  0  0  0  0  0  0  0  0  0  0  0
    0.6204  -10.2558   -0.7842 O   0  0  0  0  0  0  0  0  0  0  0  0
    2.4680  -15.4950    3.0896 C   0  0  0  0  0  0  0  0  0  0  0  0
 10 11  1  0
  5 12  1  0
 12 13  2  0
 12 14  1  0
 11 15  2  0
 11 16  1  0
  8 17  1  0
 17 18  2  0
 17 19  1  0
 14 20  1  0
  1  2  2  0
  7  8  2  0
  8  9  1  0
  9 10  2  0
  1 10  1  0
  2  3  1  0
  3  4  2  0
  4  5  1  0
  5  6  2  0
  6  7  1  0
  2  7  1  0
M  END

$$$$
No_3193-/export/home/yangzhenyu/potential_scad_32_flow//YTHDC2/2024-12-06-03-22-00/
     RDKit          3D

 18 19  0  0  1  0  0  0  0  0999 V2000
    1.1787   -8.0297    3.5154 C   0  0  0  0  0  0  0  0  0  0  0  0
    1.1048   -9.2215    3.2892 C   0  0  0  0  0  0  0  0  0  0  0  0
    1.3627  -10.1721    4.3044 C   0  0  0  0  0  0  0  0  0  0  0  0
    1.7354  -11.4730    3.9023 C   0  0  0  0  0  0  0  0  0  0  0  0
    1.8080  -11.8127    2.7216 C   0  0  0  0  0  0  0  0  0  0  0  0
    1.5854  -11.0021    1.7249 C   0  0  0  0  0  0  0  0  0  0  0  0
    1.3573   -9.7389    1.9287 C   0  0  0  0  0  0  0  0  0  0  0  0
    1.2865   -8.8078    0.9161 C   0  0  0  0  0  0  0  0  0  0  0  0
    1.6845   -9.1638   -0.2896 N   0  0  0  0  0  0  0  0  0  0  0  0
    0.9954   -7.4968    1.1120 O   0  0  0  0  0  0  0  0  0  0  0  0
    0.9187   -7.0337    2.3793 C   0  0  2  0  0  0  0  0  0  0  0  0
    0.8366   -5.6507    2.5364 C   0  0  0  0  0  0  0  0  0  0  0  0
    2.0716  -13.2238    2.3689 C   0  0  0  0  0  0  0  0  0  0  0  0
    1.8852  -14.2494    3.1135 O   0  0  0  0  0  0  0  0  0  0  0  0
    2.0477  -13.5211    0.9847 O   0  0  0  0  0  0  0  0  0  0  0  0
    1.6750   -5.1298    3.3256 O   0  0  0  0  0  0  0  0  0  0  0  0
    0.1446   -4.9655    1.7930 O   0  0  0  0  0  0  0  0  0  0  0  0
    1.9708  -10.1161   -0.4662 H   0  0  0  0  0  0  0  0  0  0  0  0
  1  2  1  0
  7  8  1  0
  8  9  2  0
  8 10  1  0
  1 11  1  0
 10 11  1  0
 11 12  1  6
  5 13  1  0
 13 14  1  0
 13 15  2  0
 12 16  1  0
 12 17  2  0
  2  3  2  0
  3  4  1  0
  4  5  2  0
  5  6  1  0
  6  7  2  0
  2  7  1  0
  9 18  1  0
M  END

$$$$
No_3194-/export/home/yangzhenyu/potential_scad_32_flow//YTHDC2/2024-12-06-03-22-00/
     RDKit          3D

 19 19  0  0  1  0  0  0  0  0999 V2000
    1.1787   -8.0297    3.5154 C   0  0  0  0  0  0  0  0  0  0  0  0
    1.1048   -9.2215    3.2892 C   0  0  2  0  0  0  0  0  0  0  0  0
    1.3627  -10.1721    4.3044 C   0  0  0  0  0  0  0  0  0  0  0  0
    2.3720  -10.8948    4.2468 C   0  0  0  0  0  0  0  0  0  0  0  0
    0.8234   -7.0464    2.5717 C   0  0  0  0  0  0  0  0  0  0  0  0
    1.0480   -5.6900    2.5722 C   0  0  0  0  0  0  0  0  0  0  0  0
    3.3804  -10.3837    4.4201 C   0  0  0  0  0  0  0  0  0  0  0  0
    4.4064  -11.1884    4.9711 N   0  0  0  0  0  0  0  0  0  0  0  0
    1.5118   -5.2102    3.8131 O   0  0  0  0  0  0  0  0  0  0  0  0
    0.8868   -4.7992    1.6784 O   0  0  0  0  0  0  0  0  0  0  0  0
    0.8665   -9.7901    2.0225 C   0  0  0  0  0  0  0  0  0  0  0  0
    1.9180   -9.7378    1.0772 O   0  0  0  0  0  0  0  0  0  0  0  0
   -0.2213  -10.2529    1.5996 N   0  0  0  0  0  0  0  0  0  0  0  0
   -1.3585  -10.4094    2.3348 C   0  0  0  0  0  0  0  0  0  0  0  0
   -2.2109   -9.3468    2.4437 C   0  0  0  0  0  0  0  0  0  0  0  0
   -2.7216   -8.9871    3.6889 C   0  0  0  0  0  0  0  0  0  0  0  0
   -2.6543   -9.9033    4.6755 C   0  0  0  0  0  0  0  0  0  0  0  0
   -2.0084  -11.0995    4.5022 C   0  0  0  0  0  0  0  0  0  0  0  0
   -1.3397  -11.3605    3.3647 C   0  0  0  0  0  0  0  0  0  0  0  0
  1  2  1  0
  2  3  1  6
  3  4  1  0
  1  5  2  3
  5  6  1  0
  4  7  1  0
  7  8  1  0
  6  9  1  0
  6 10  2  0
  2 11  1  0
 11 12  2  0
 11 13  1  0
 13 14  1  0
 14 15  2  0
 15 16  1  0
 16 17  2  0
 17 18  1  0
 18 19  2  0
 14 19  1  0
M  END

$$$$
No_3195-/export/home/yangzhenyu/potential_scad_32_flow//YTHDC2/2024-12-06-03-22-00/
     RDKit          3D

 16 17  0  0  0  0  0  0  0  0999 V2000
    1.1787   -8.0297    3.5154 C   0  0  0  0  0  0  0  0  0  0  0  0
    1.1048   -9.2215    3.2892 C   0  0  0  0  0  0  0  0  0  0  0  0
    1.2339   -9.7611    2.0189 C   0  0  0  0  0  0  0  0  0  0  0  0
    1.3583   -9.0036    0.9764 C   0  0  0  0  0  0  0  0  0  0  0  0
    1.5996   -7.6362    1.1311 C   0  0  0  0  0  0  0  0  0  0  0  0
    1.4830   -7.0928    2.3626 C   0  0  0  0  0  0  0  0  0  0  0  0
    1.3121   -5.7497    2.5440 C   0  0  0  0  0  0  0  0  0  0  0  0
    1.1998  -11.2296    1.8484 C   0  0  0  0  0  0  0  0  0  0  0  0
    0.5667  -11.9521    2.1899 C   0  0  0  0  0  0  0  0  0  0  0  0
    0.5480  -13.3850    1.9692 C   0  0  0  0  0  0  0  0  0  0  0  0
    1.7268  -14.0955    1.9058 C   0  0  0  0  0  0  0  0  0  0  0  0
    1.9231  -15.3287    2.1479 C   0  0  0  0  0  0  0  0  0  0  0  0
    0.9117  -16.1194    2.4031 C   0  0  0  0  0  0  0  0  0  0  0  0
   -0.3874  -15.5498    2.5645 C   0  0  0  0  0  0  0  0  0  0  0  0
   -0.5368  -14.2412    2.3806 C   0  0  0  0  0  0  0  0  0  0  0  0
    1.7761   -5.1377    3.6679 C   0  0  0  0  0  0  0  0  0  0  0  0
  6  7  1  0
  3  8  1  0
  8  9  2  3
  9 10  1  0
  7 16  1  0
  1  2  2  0
  2  3  1  0
  3  4  2  0
  4  5  1  0
  5  6  2  0
  1  6  1  0
 10 11  2  0
 11 12  1  0
 12 13  2  0
 13 14  1  0
 14 15  2  0
 10 15  1  0
M  END

$$$$
No_3196-/export/home/yangzhenyu/potential_scad_32_flow//YTHDC2/2024-12-06-03-22-00/
     RDKit          3D

 17 18  0  0  1  0  0  0  0  0999 V2000
    1.1787   -8.0297    3.5154 N   0  0  0  0  0  0  0  0  0  0  0  0
    1.0818   -9.0751    3.2053 C   0  0  0  0  0  0  0  0  0  0  0  0
    1.5216  -10.1164    3.9747 C   0  0  0  0  0  0  0  0  0  0  0  0
    1.4420  -11.4363    3.6461 C   0  0  0  0  0  0  0  0  0  0  0  0
    0.5969  -11.7648    2.6785 C   0  0  0  0  0  0  0  0  0  0  0  0
    0.3540  -13.1626    2.3846 C   0  0  0  0  0  0  0  0  0  0  0  0
   -0.6826  -13.5777    1.9681 C   0  0  0  0  0  0  0  0  0  0  0  0
   -1.6970  -12.7744    1.5251 C   0  0  0  0  0  0  0  0  0  0  0  0
   -1.5138  -11.3796    1.7261 C   0  0  0  0  0  0  0  0  0  0  0  0
   -0.3712  -10.8944    2.3103 C   0  0  0  0  0  0  0  0  0  0  0  0
    0.0010   -9.5327    2.3852 N   0  0  0  0  0  0  0  0  0  0  0  0
    0.9875   -6.8589    2.6926 C   0  0  2  0  0  0  0  0  0  0  0  0
    1.2594   -7.1664    1.2996 C   0  0  0  0  0  0  0  0  0  0  0  0
    0.7089   -5.6543    3.1059 C   0  0  0  0  0  0  0  0  0  0  0  0
    1.4872   -5.0182    3.9041 O   0  0  0  0  0  0  0  0  0  0  0  0
   -0.1655   -4.8305    2.3427 N   0  0  0  0  0  0  0  0  0  0  0  0
    1.5068  -14.3311    3.0306 P   0  0  0  0  0  0  0  0  0  0  0  0
  1  2  1  0
  1 12  1  0
 12 13  1  1
 12 14  1  0
 14 15  2  0
 14 16  1  0
  6 17  1  0
  2  3  2  0
  3  4  1  0
  4  5  2  0
 10 11  2  0
  2 11  1  0
  5  6  1  0
  6  7  2  0
  7  8  1  0
  8  9  2  0
  9 10  1  0
  5 10  1  0
M  END

$$$$
No_3197-/export/home/yangzhenyu/potential_scad_32_flow//YTHDC2/2024-12-06-03-22-00/
     RDKit          3D

 19 20  0  0  1  0  0  0  0  0999 V2000
    1.1787   -8.0297    3.5154 C   0  0  0  0  0  0  0  0  0  0  0  0
    1.1048   -9.2215    3.2892 C   0  0  0  0  0  0  0  0  0  0  0  0
    1.3627  -10.1721    4.3044 C   0  0  0  0  0  0  0  0  0  0  0  0
    1.0682  -11.5187    4.0618 C   0  0  0  0  0  0  0  0  0  0  0  0
    0.6332  -11.9655    2.9682 C   0  0  1  0  0  0  0  0  0  0  0  0
    0.4776  -11.1308    1.9203 C   0  0  0  0  0  0  0  0  0  0  0  0
    0.7470   -9.8274    2.0368 C   0  0  0  0  0  0  0  0  0  0  0  0
    1.8805   -7.1616    3.5538 C   0  0  0  0  0  0  0  0  0  0  0  0
    0.3661  -13.4265    2.7867 C   0  0  0  0  0  0  0  0  0  0  0  0
   -0.7765  -13.9095    2.4152 C   0  0  0  0  0  0  0  0  0  0  0  0
   -0.8733  -15.3622    2.3420 C   0  0  0  0  0  0  0  0  0  0  0  0
    0.5171  -15.9912    2.7665 C   0  0  0  0  0  0  0  0  0  0  0  0
    1.6018  -15.4956    3.0713 C   0  0  0  0  0  0  0  0  0  0  0  0
    1.6301  -13.9662    2.9795 C   0  0  0  0  0  0  0  0  0  0  0  0
    0.8030   -9.0163    0.9537 O   0  0  0  0  0  0  0  0  0  0  0  0
    1.4939   -5.6726    3.6519 O   0  0  0  0  0  0  0  0  0  0  0  0
    0.3600  -17.4734    2.6797 O   0  0  0  0  0  0  0  0  0  0  0  0
    1.1639   -4.9330    2.5507 C   0  0  0  0  0  0  0  0  0  0  0  0
   -0.3355  -18.2018    2.2378 C   0  0  0  0  0  0  0  0  0  0  0  0
  1  2  1  0
  2  3  1  0
  4  5  1  0
  2  7  1  0
  6  7  1  0
  1  8  2  3
  5  9  1  6
  7 15  2  0
  8 16  1  0
 12 17  1  0
 16 18  1  0
 17 19  1  0
  3  4  1  0
  5  6  1  0
  9 10  2  0
 10 11  1  0
 11 12  2  0
 12 13  1  0
 13 14  2  0
  9 14  1  0
M  END

$$$$
No_3198-/export/home/yangzhenyu/potential_scad_32_flow//YTHDC2/2024-12-06-03-22-00/
     RDKit          3D

 18 19  0  0  0  0  0  0  0  0999 V2000
    1.1787   -8.0297    3.5154 C   0  0  0  0  0  0  0  0  0  0  0  0
    1.1048   -9.2215    3.2892 C   0  0  0  0  0  0  0  0  0  0  0  0
    1.3627  -10.1721    4.3044 C   0  0  0  0  0  0  0  0  0  0  0  0
    1.0682  -11.5187    4.0618 C   0  0  0  0  0  0  0  0  0  0  0  0
    0.6332  -11.9655    2.9682 C   0  0  0  0  0  0  0  0  0  0  0  0
    0.4776  -11.1308    1.9203 C   0  0  0  0  0  0  0  0  0  0  0  0
    0.7470   -9.8274    2.0368 C   0  0  0  0  0  0  0  0  0  0  0  0
    0.5535   -7.1314    2.6861 N   0  0  0  0  0  0  0  0  0  0  0  0
    0.3069   -7.6119    1.3920 C   0  0  0  0  0  0  0  0  0  0  0  0
    0.2579   -8.8240    1.1187 C   0  0  0  0  0  0  0  0  0  0  0  0
   -0.0304   -6.6302    0.5461 O   0  0  0  0  0  0  0  0  0  0  0  0
    0.4905  -13.3927    2.7167 C   0  0  0  0  0  0  0  0  0  0  0  0
    0.9005  -13.9996    1.7083 N   0  0  0  0  0  0  0  0  0  0  0  0
    2.1706  -13.7639    1.2320 C   0  0  0  0  0  0  0  0  0  0  0  0
    0.7094  -15.4544    1.4639 C   0  0  0  0  0  0  0  0  0  0  0  0
    1.5301  -16.2633    2.1246 C   0  0  0  0  0  0  0  0  0  0  0  0
    2.5799  -16.0732    2.7230 O   0  0  0  0  0  0  0  0  0  0  0  0
    1.1114  -17.5992    2.4901 N   0  0  0  0  0  0  0  0  0  0  0  0
  1  2  1  0
  8  9  1  0
  7 10  1  0
  9 10  1  0
  9 11  2  0
  5 12  1  0
 12 13  1  0
 13 14  1  0
 13 15  1  0
 15 16  1  0
 16 17  2  0
 16 18  1  0
  1  8  1  0
  2  3  2  0
  3  4  1  0
  4  5  2  0
  5  6  1  0
  6  7  2  0
  2  7  1  0
M  END

$$$$
No_3199-/export/home/yangzhenyu/potential_scad_32_flow//YTHDC2/2024-12-06-03-22-00/
     RDKit          3D

 19 20  0  0  1  0  0  0  0  0999 V2000
    1.1787   -8.0297    3.5154 C   0  0  0  0  0  0  0  0  0  0  0  0
    1.0491   -6.8434    2.9820 C   0  0  0  0  0  0  0  0  0  0  0  0
    0.0950   -8.8404    3.2292 C   0  0  1  0  0  0  0  0  0  0  0  0
   -0.9173   -8.4596    2.5152 C   0  0  0  0  0  0  0  0  0  0  0  0
   -1.0331   -7.2162    2.0653 C   0  0  0  0  0  0  0  0  0  0  0  0
   -0.0105   -6.3168    2.3081 C   0  0  2  0  0  0  0  0  0  0  0  0
    0.1150   -4.9910    1.8495 C   0  0  0  0  0  0  0  0  0  0  0  0
   -0.5774   -4.1593    2.0596 N   0  0  0  0  0  0  0  0  0  0  0  0
    0.2075  -10.4620    3.7828 Cl  0  0  0  0  0  0  0  0  0  0  0  0
   -1.6510   -4.0837    2.1318 C   0  0  0  0  0  0  0  0  0  0  0  0
   -2.4204   -3.5113    3.2510 C   0  0  0  0  0  0  0  0  0  0  0  0
    1.1006   -4.8748    0.7851 O   0  0  0  0  0  0  0  0  0  0  0  0
   -2.6563   -4.3843    1.0466 C   0  0  0  0  0  0  0  0  0  0  0  0
   -4.0522   -4.3547    1.3432 C   0  0  0  0  0  0  0  0  0  0  0  0
   -4.5310   -3.9076    2.5888 C   0  0  0  0  0  0  0  0  0  0  0  0
   -3.6664   -3.4766    3.5169 C   0  0  0  0  0  0  0  0  0  0  0  0
   -1.2948   -3.3006    4.3674 C   0  0  0  0  0  0  0  0  0  0  0  0
   -4.9439   -4.6886    0.2715 Cl  0  0  0  0  0  0  0  0  0  0  0  0
    2.1809   -5.9467    3.2289 O   0  0  0  0  0  0  0  0  0  0  0  0
  1  2  1  0
  3  4  1  0
  2  6  1  0
  5  6  1  0
  6  7  1  6
  7  8  1  0
  3  9  1  6
  7 12  2  0
 11 17  1  0
 14 18  1  0
  2 19  2  0
  8 10  1  0
  1  3  1  0
  4  5  1  0
 10 11  2  0
 11 16  1  0
 15 16  2  0
 14 15  1  0
 13 14  2  0
 10 13  1  0
M  END

$$$$
No_3200-/export/home/yangzhenyu/potential_scad_32_flow//YTHDC2/2024-12-06-03-22-00/
     RDKit          3D

 19 20  0  0  0  0  0  0  0  0999 V2000
    1.1787   -8.0297    3.5154 C   0  0  0  0  0  0  0  0  0  0  0  0
    1.0491   -6.8434    2.9820 C   0  0  0  0  0  0  0  0  0  0  0  0
    0.9905   -9.0774    2.6527 C   0  0  0  0  0  0  0  0  0  0  0  0
    0.7897   -8.9519    1.3691 C   0  0  0  0  0  0  0  0  0  0  0  0
    0.7018   -7.7198    0.7892 C   0  0  0  0  0  0  0  0  0  0  0  0
    0.8918   -6.5957    1.6117 C   0  0  0  0  0  0  0  0  0  0  0  0
    1.0711  -10.4814    3.2282 C   0  0  0  0  0  0  0  0  0  0  0  0
    1.1227  -11.5770    2.4616 C   0  0  0  0  0  0  0  0  0  0  0  0
    1.1500  -12.9052    3.0782 C   0  0  0  0  0  0  0  0  0  0  0  0
    0.6702  -13.9897    2.4998 C   0  0  0  0  0  0  0  0  0  0  0  0
    0.9108  -15.3006    3.2837 C   0  0  0  0  0  0  0  0  0  0  0  0
    0.7872  -16.5087    2.6442 C   0  0  0  0  0  0  0  0  0  0  0  0
    1.6223  -17.4442    2.9301 C   0  0  0  0  0  0  0  0  0  0  0  0
    0.8412   -5.0862    1.1041 N   0  0  0  0  0  0  0  0  0  0  0  0
    1.3710  -18.5323    3.6373 C   0  0  0  0  0  0  0  0  0  0  0  0
    0.1474  -18.8590    3.9593 C   0  0  0  0  0  0  0  0  0  0  0  0
   -0.8534  -17.9671    3.6802 C   0  0  0  0  0  0  0  0  0  0  0  0
   -0.5168  -16.7990    3.0878 C   0  0  0  0  0  0  0  0  0  0  0  0
   -0.2986   -4.5966    0.9418 C   0  0  0  0  0  0  0  0  0  0  0  0
  3  7  1  0
  7  8  2  3
  8  9  1  0
  9 10  2  3
 10 11  1  0
 11 12  1  0
  6 14  1  0
 14 19  1  0
 12 13  2  0
 13 15  1  0
 15 16  2  0
 16 17  1  0
 17 18  2  0
 12 18  1  0
  1  2  2  0
  2  6  1  0
  5  6  2  0
  4  5  1  0
  3  4  2  0
  1  3  1  0
M  END

$$$$
No_3201-/export/home/yangzhenyu/potential_scad_32_flow//YTHDC2/2024-12-06-03-22-00/
     RDKit          3D

 19 20  0  0  0  0  0  0  0  0999 V2000
    1.1787   -8.0297    3.5154 C   0  0  0  0  0  0  0  0  0  0  0  0
    1.0491   -6.8434    2.9820 C   0  0  0  0  0  0  0  0  0  0  0  0
    0.0950   -8.8404    3.2292 C   0  0  0  0  0  0  0  0  0  0  0  0
   -0.9173   -8.4596    2.5152 C   0  0  0  0  0  0  0  0  0  0  0  0
   -1.0331   -7.2162    2.0653 C   0  0  0  0  0  0  0  0  0  0  0  0
   -0.0105   -6.3168    2.3081 C   0  0  0  0  0  0  0  0  0  0  0  0
    0.1935  -10.3737    3.7416 C   0  0  0  0  0  0  0  0  0  0  0  0
    1.2407  -10.8901    4.0986 C   0  0  0  0  0  0  0  0  0  0  0  0
    1.1186  -12.3145    4.4006 C   0  0  0  0  0  0  0  0  0  0  0  0
    0.1013  -12.9075    3.8532 C   0  0  0  0  0  0  0  0  0  0  0  0
   -0.9044  -12.4076    3.3546 C   0  0  0  0  0  0  0  0  0  0  0  0
   -0.9318  -11.0156    3.2558 C   0  0  0  0  0  0  0  0  0  0  0  0
   -0.1102   -4.8436    1.7461 F   0  0  0  0  0  0  0  0  0  0  0  0
   -2.1991   -6.6205    1.4628 N   0  0  0  0  0  0  0  0  0  0  0  0
   -2.9175   -7.1745    0.8202 C   0  0  0  0  0  0  0  0  0  0  0  0
   -4.0907   -7.4058    1.2524 C   0  0  0  0  0  0  0  0  0  0  0  0
   -4.5739   -6.6477    2.2627 C   0  0  0  0  0  0  0  0  0  0  0  0
   -5.4466   -6.7996    2.7902 C   0  0  0  0  0  0  0  0  0  0  0  0
   -6.1170   -8.0995    2.3704 C   0  0  0  0  0  0  0  0  0  0  0  0
  3  7  1  0
  6 13  1  0
  5 14  1  0
 14 15  1  0
 15 16  1  0
 16 17  1  0
 17 18  2  3
 18 19  1  0
  1  2  2  0
  2  6  1  0
  5  6  2  0
  4  5  1  0
  3  4  2  0
  1  3  1  0
  7  8  2  0
  8  9  1  0
  9 10  2  0
 10 11  1  0
 11 12  2  0
  7 12  1  0
M  END

$$$$
No_3202-/export/home/yangzhenyu/potential_scad_32_flow//YTHDC2/2024-12-06-03-22-00/
     RDKit          3D

 19 20  0  0  0  0  0  0  0  0999 V2000
    1.1787   -8.0297    3.5154 C   0  0  0  0  0  0  0  0  0  0  0  0
    1.1048   -9.2215    3.2892 C   0  0  0  0  0  0  0  0  0  0  0  0
    1.4683  -10.2314    4.1915 C   0  0  0  0  0  0  0  0  0  0  0  0
    0.8445   -6.9865    2.5175 C   0  0  0  0  0  0  0  0  0  0  0  0
    0.3587   -7.3973    1.3953 C   0  0  0  0  0  0  0  0  0  0  0  0
    0.1901   -8.6971    1.0711 C   0  0  0  0  0  0  0  0  0  0  0  0
    0.5759   -9.6647    1.9442 C   0  0  0  0  0  0  0  0  0  0  0  0
    0.6465  -11.4192    4.2286 C   0  0  0  0  0  0  0  0  0  0  0  0
    1.2991  -12.6074    4.1143 C   0  0  0  0  0  0  0  0  0  0  0  0
    1.1447  -13.1659    2.7759 C   0  0  0  0  0  0  0  0  0  0  0  0
    0.8356  -14.6515    2.8672 C   0  0  0  0  0  0  0  0  0  0  0  0
    1.5715  -15.4782    2.3494 C   0  0  0  0  0  0  0  0  0  0  0  0
    1.4242  -16.9152    2.6042 C   0  0  0  0  0  0  0  0  0  0  0  0
    0.4114  -17.3887    3.0987 C   0  0  0  0  0  0  0  0  0  0  0  0
   -0.5285  -16.5072    3.6687 C   0  0  0  0  0  0  0  0  0  0  0  0
   -0.3080  -15.1564    3.6231 C   0  0  0  0  0  0  0  0  0  0  0  0
   -0.0140   -6.5175    0.3804 O   0  0  0  0  0  0  0  0  0  0  0  0
    1.0554   -5.5727    2.8635 C   0  0  0  0  0  0  0  0  0  0  0  0
   -0.3307   -9.1539   -0.2115 C   0  0  0  0  0  0  0  0  0  0  0  0
  2  3  1  0
  3  8  1  0
  8  9  1  0
  9 10  1  0
 10 11  1  0
  5 17  1  0
  4 18  1  0
  6 19  1  0
 11 12  2  0
 12 13  1  0
 13 14  2  0
 14 15  1  0
 15 16  2  0
 11 16  1  0
  1  2  2  0
  2  7  1  0
  6  7  2  0
  5  6  1  0
  4  5  2  0
  1  4  1  0
M  END

$$$$
No_3203-/export/home/yangzhenyu/potential_scad_32_flow//YTHDC2/2024-12-06-03-22-00/
     RDKit          3D

 19 21  0  0  1  0  0  0  0  0999 V2000
    1.1787   -8.0297    3.5154 C   0  0  0  0  0  0  0  0  0  0  0  0
    1.1048   -9.2215    3.2892 C   0  0  0  0  0  0  0  0  0  0  0  0
    1.2339   -9.7611    2.0189 C   0  0  0  0  0  0  0  0  0  0  0  0
    1.1954  -11.2312    1.8661 C   0  0  2  0  0  0  0  0  0  0  0  0
    1.5546  -12.1691    2.7931 C   0  0  0  0  0  0  0  0  0  0  0  0
    0.5849   -7.0929    2.5729 C   0  0  0  0  0  0  0  0  0  0  0  0
    0.5567   -7.6699    1.1955 C   0  0  0  0  0  0  0  0  0  0  0  0
    0.7903   -8.9699    0.9209 C   0  0  0  0  0  0  0  0  0  0  0  0
    1.5479  -13.4950    2.3568 C   0  0  0  0  0  0  0  0  0  0  0  0
    1.1940  -13.5390    0.9220 N   0  0  0  0  0  0  0  0  0  0  0  0
    1.0659  -12.0927    0.7293 C   0  0  0  0  0  0  0  0  0  0  0  0
    0.5704   -5.6475    2.6348 Cl  0  0  0  0  0  0  0  0  0  0  0  0
    1.8493  -14.6922    2.9900 C   0  0  0  0  0  0  0  0  0  0  0  0
    1.3491  -15.8926    2.4377 C   0  0  0  0  0  0  0  0  0  0  0  0
    0.0059  -16.2589    2.5594 C   0  0  0  0  0  0  0  0  0  0  0  0
   -0.3102  -17.4920    2.5056 C   0  0  0  0  0  0  0  0  0  0  0  0
    0.5381  -18.5505    2.2841 C   0  0  0  0  0  0  0  0  0  0  0  0
    1.9169  -18.2985    2.2020 C   0  0  0  0  0  0  0  0  0  0  0  0
    2.3334  -16.9099    2.3941 C   0  0  0  0  0  0  0  0  0  0  0  0
  4  3  1  6
  4  5  1  0
  5  9  2  0
  9 10  1  0
  4 11  1  0
 10 11  2  0
  6 12  1  0
  9 13  1  0
 13 14  1  0
 14 15  2  0
 15 16  1  0
 16 17  2  0
 17 18  1  0
 18 19  2  0
 14 19  1  0
  1  2  2  0
  2  3  1  0
  3  8  2  0
  7  8  1  0
  6  7  2  0
  1  6  1  0
M  END

$$$$
No_3204-/export/home/yangzhenyu/potential_scad_32_flow//YTHDC2/2024-12-06-03-22-00/
     RDKit          3D

 19 20  0  0  0  0  0  0  0  0999 V2000
    1.1787   -8.0297    3.5154 C   0  0  0  0  0  0  0  0  0  0  0  0
    1.1048   -9.2215    3.2892 C   0  0  0  0  0  0  0  0  0  0  0  0
    1.2339   -9.7611    2.0189 C   0  0  0  0  0  0  0  0  0  0  0  0
    1.3583   -9.0036    0.9764 C   0  0  0  0  0  0  0  0  0  0  0  0
    1.5996   -7.6362    1.1311 C   0  0  0  0  0  0  0  0  0  0  0  0
    1.4830   -7.0928    2.3626 C   0  0  0  0  0  0  0  0  0  0  0  0
    1.5395   -5.7300    2.6182 C   0  0  0  0  0  0  0  0  0  0  0  0
    1.1775  -11.2233    1.8407 C   0  0  0  0  0  0  0  0  0  0  0  0
    0.5085  -11.9762    2.1989 C   0  0  0  0  0  0  0  0  0  0  0  0
    0.4247  -13.3704    2.0465 C   0  0  0  0  0  0  0  0  0  0  0  0
    1.6054  -14.1557    2.4664 C   0  0  0  0  0  0  0  0  0  0  0  0
    1.8317  -15.3638    2.3262 C   0  0  0  0  0  0  0  0  0  0  0  0
    0.9230  -16.1669    1.7304 C   0  0  0  0  0  0  0  0  0  0  0  0
   -0.2162  -15.6318    1.2999 C   0  0  0  0  0  0  0  0  0  0  0  0
   -0.4566  -14.2720    1.4479 C   0  0  0  0  0  0  0  0  0  0  0  0
   -1.7208  -13.7691    1.1495 N   0  0  0  0  0  0  0  0  0  0  0  0
    1.2982   -4.7979    1.6880 O   0  0  0  0  0  0  0  0  0  0  0  0
    2.0921   -5.0894    3.7184 O   0  0  0  0  0  0  0  0  0  0  0  0
    1.0744  -17.5720    1.6333 Cl  0  0  0  0  0  0  0  0  0  0  0  0
  6  7  1  0
  3  8  1  0
  8  9  2  3
  9 10  1  0
  7 17  2  0
  7 18  1  0
 13 19  1  0
 15 16  1  0
  1  2  2  0
  2  3  1  0
  3  4  2  0
  4  5  1  0
  5  6  2  0
  1  6  1  0
 10 11  2  0
 11 12  1  0
 12 13  2  0
 13 14  1  0
 14 15  2  0
 10 15  1  0
M  END

$$$$
No_3205-/export/home/yangzhenyu/potential_scad_32_flow//YTHDC2/2024-12-06-03-22-00/
     RDKit          3D

 17 18  0  0  0  0  0  0  0  0999 V2000
    1.1787   -8.0297    3.5154 C   0  0  0  0  0  0  0  0  0  0  0  0
    1.1048   -9.2215    3.2892 C   0  0  0  0  0  0  0  0  0  0  0  0
    1.0239   -9.7790    2.0239 C   0  0  0  0  0  0  0  0  0  0  0  0
    1.1393   -9.0211    0.9686 C   0  0  0  0  0  0  0  0  0  0  0  0
    1.4051   -7.6500    1.1251 C   0  0  0  0  0  0  0  0  0  0  0  0
    1.4868   -7.1041    2.3534 C   0  0  0  0  0  0  0  0  0  0  0  0
    1.5885   -5.7190    2.5687 C   0  0  0  0  0  0  0  0  0  0  0  0
    0.8710  -11.2137    1.9144 C   0  0  0  0  0  0  0  0  0  0  0  0
    1.8887  -12.0352    2.0512 C   0  0  0  0  0  0  0  0  0  0  0  0
    1.7070  -13.3672    1.7487 C   0  0  0  0  0  0  0  0  0  0  0  0
    0.5962  -13.8403    1.2955 C   0  0  0  0  0  0  0  0  0  0  0  0
   -0.4368  -13.0391    0.9937 C   0  0  0  0  0  0  0  0  0  0  0  0
   -0.2989  -11.6535    1.3070 C   0  0  0  0  0  0  0  0  0  0  0  0
   -1.4063  -10.8511    1.1662 C   0  0  0  0  0  0  0  0  0  0  0  0
   -2.2424  -10.5889    2.2507 C   0  0  0  0  0  0  0  0  0  0  0  0
   -2.9521   -9.4695    2.5209 C   0  0  0  0  0  0  0  0  0  0  0  0
   -3.0398   -8.5306    1.4724 C   0  0  0  0  0  0  0  0  0  0  0  0
  6  7  1  0
  3  8  1  0
 13 14  1  0
 14 15  1  0
 15 16  2  3
 16 17  1  0
  1  2  2  0
  2  3  1  0
  3  4  2  0
  4  5  1  0
  5  6  2  0
  1  6  1  0
  8  9  2  0
  9 10  1  0
 10 11  2  0
 11 12  1  0
 12 13  2  0
  8 13  1  0
M  END

$$$$
No_3206-/export/home/yangzhenyu/potential_scad_32_flow//YTHDC2/2024-12-06-03-22-00/
     RDKit          3D

 19 21  0  0  0  0  0  0  0  0999 V2000
    1.1787   -8.0297    3.5154 C   0  0  0  0  0  0  0  0  0  0  0  0
    1.1048   -9.2215    3.2892 C   0  0  0  0  0  0  0  0  0  0  0  0
    1.3627  -10.1721    4.3044 C   0  0  0  0  0  0  0  0  0  0  0  0
    1.7354  -11.4730    3.9023 C   0  0  0  0  0  0  0  0  0  0  0  0
    1.8080  -11.8127    2.7216 C   0  0  0  0  0  0  0  0  0  0  0  0
    1.5854  -11.0021    1.7249 C   0  0  0  0  0  0  0  0  0  0  0  0
    1.3573   -9.7389    1.9287 C   0  0  0  0  0  0  0  0  0  0  0  0
    1.1102   -8.8712    0.9017 C   0  0  0  0  0  0  0  0  0  0  0  0
    0.5299   -7.6926    1.0325 C   0  0  0  0  0  0  0  0  0  0  0  0
    0.7526   -7.0802    2.3301 C   0  0  0  0  0  0  0  0  0  0  0  0
    2.0515  -13.2522    2.4284 C   0  0  0  0  0  0  0  0  0  0  0  0
    1.1057  -14.0132    1.8338 C   0  0  0  0  0  0  0  0  0  0  0  0
    1.5636  -14.8544    0.9294 C   0  0  0  0  0  0  0  0  0  0  0  0
    0.6249  -15.5425    0.2216 C   0  0  0  0  0  0  0  0  0  0  0  0
   -0.6420  -15.3972    0.3088 C   0  0  0  0  0  0  0  0  0  0  0  0
   -1.1426  -14.6063    1.2863 C   0  0  0  0  0  0  0  0  0  0  0  0
   -0.2780  -13.8031    2.0729 C   0  0  0  0  0  0  0  0  0  0  0  0
    0.4915   -5.6528    2.5318 C   0  0  0  0  0  0  0  0  0  0  0  0
    1.5917   -4.9444    2.9704 C   0  0  0  0  0  0  0  0  0  0  0  0
  5 11  1  0
 11 12  1  0
 10 18  1  0
 18 19  1  0
  1  2  2  0
  7  8  2  0
  8  9  1  0
  9 10  2  0
  1 10  1  0
  2  3  1  0
  3  4  2  0
  4  5  1  0
  5  6  2  0
  6  7  1  0
  2  7  1  0
 12 13  2  0
 13 14  1  0
 14 15  2  0
 15 16  1  0
 16 17  2  0
 12 17  1  0
M  END

$$$$
No_3207-/export/home/yangzhenyu/potential_scad_32_flow//YTHDC2/2024-12-06-03-22-00/
     RDKit          3D

 19 21  0  0  1  0  0  0  0  0999 V2000
    1.1787   -8.0297    3.5154 C   0  0  0  0  0  0  0  0  0  0  0  0
    1.1048   -9.2215    3.2892 C   0  0  0  0  0  0  0  0  0  0  0  0
    1.2339   -9.7611    2.0189 C   0  0  1  0  0  0  0  0  0  0  0  0
    1.1954  -11.2312    1.8661 C   0  0  0  0  0  0  0  0  0  0  0  0
    1.5546  -12.1691    2.7931 C   0  0  0  0  0  0  0  0  0  0  0  0
    0.5849   -7.0929    2.5729 N   0  0  0  0  0  0  0  0  0  0  0  0
    1.4449  -13.5430    2.3862 C   0  0  0  0  0  0  0  0  0  0  0  0
    1.0783  -13.8324    1.1212 C   0  0  0  0  0  0  0  0  0  0  0  0
    0.7531  -12.9637    0.1763 C   0  0  0  0  0  0  0  0  0  0  0  0
    0.8268  -11.5687    0.5202 C   0  0  0  0  0  0  0  0  0  0  0  0
    0.9397   -8.8062    0.9580 C   0  0  2  0  0  0  0  0  0  0  0  0
    1.0920   -9.1382   -0.3849 C   0  0  0  0  0  0  0  0  0  0  0  0
    0.8333   -7.4716    1.1722 C   0  0  0  0  0  0  0  0  0  0  0  0
    0.3967   -5.6694    2.7537 C   0  0  0  0  0  0  0  0  0  0  0  0
    0.4787  -10.5286   -0.6141 O   0  0  0  0  0  0  0  0  0  0  0  0
    0.6903   -6.6646    0.3174 O   0  0  0  0  0  0  0  0  0  0  0  0
    1.8866  -14.4802    3.3238 Cl  0  0  0  0  0  0  0  0  0  0  0  0
   -0.9241   -5.2893    2.7915 C   0  0  0  0  0  0  0  0  0  0  0  0
   -1.1921   -3.8745    2.8084 C   0  0  0  0  0  0  0  0  0  0  0  0
  1  2  1  0
  3  4  1  0
  1  6  1  0
  3 11  1  0
 11 12  1  6
  6 13  1  0
 11 13  1  0
  6 14  1  0
 10 15  1  0
 12 15  1  0
 13 16  2  0
  7 17  1  0
 14 18  1  0
 18 19  2  0
  3  2  1  1
  4  5  2  0
  5  7  1  0
  7  8  2  0
  8  9  1  0
  9 10  2  0
  4 10  1  0
M  END

$$$$
No_3208-/export/home/yangzhenyu/potential_scad_32_flow//YTHDC2/2024-12-06-03-22-00/
     RDKit          3D

 18 19  0  0  0  0  0  0  0  0999 V2000
    1.1787   -8.0297    3.5154 C   0  0  0  0  0  0  0  0  0  0  0  0
    1.1048   -9.2215    3.2892 C   0  0  0  0  0  0  0  0  0  0  0  0
    1.2339   -9.7611    2.0189 C   0  0  0  0  0  0  0  0  0  0  0  0
    1.3583   -9.0036    0.9764 C   0  0  0  0  0  0  0  0  0  0  0  0
    1.5996   -7.6362    1.1311 C   0  0  0  0  0  0  0  0  0  0  0  0
    1.4830   -7.0928    2.3626 C   0  0  0  0  0  0  0  0  0  0  0  0
    1.4898   -5.7274    2.6199 C   0  0  0  0  0  0  0  0  0  0  0  0
    1.1882  -11.3736    1.8424 C   0  0  0  0  0  0  0  0  0  0  0  0
    1.0670  -11.6643    0.5390 O   0  0  0  0  0  0  0  0  0  0  0  0
    1.3856  -12.0931    2.7683 O   0  0  0  0  0  0  0  0  0  0  0  0
    1.6869   -5.1726    3.8619 O   0  0  0  0  0  0  0  0  0  0  0  0
    1.3600   -4.8375    1.6587 O   0  0  0  0  0  0  0  0  0  0  0  0
    1.4228  -13.4919    2.6324 C   0  0  0  0  0  0  0  0  0  0  0  0
    2.6078  -14.2055    2.5404 C   0  0  0  0  0  0  0  0  0  0  0  0
    2.4268  -15.6365    2.3623 C   0  0  0  0  0  0  0  0  0  0  0  0
    1.3369  -16.2329    2.4785 C   0  0  0  0  0  0  0  0  0  0  0  0
    0.1513  -15.5301    2.6504 C   0  0  0  0  0  0  0  0  0  0  0  0
    0.2278  -14.1513    2.8169 C   0  0  0  0  0  0  0  0  0  0  0  0
  6  7  1  0
  3  8  1  0
  8  9  2  0
  8 10  1  0
  7 11  1  0
  7 12  2  0
 10 13  1  0
  1  2  2  0
  2  3  1  0
  3  4  2  0
  4  5  1  0
  5  6  2  0
  1  6  1  0
 13 14  2  0
 14 15  1  0
 15 16  2  0
 16 17  1  0
 17 18  2  0
 13 18  1  0
M  END

$$$$
No_3209-/export/home/yangzhenyu/potential_scad_32_flow//YTHDC2/2024-12-06-03-22-00/
     RDKit          3D

 18 18  0  0  0  0  0  0  0  0999 V2000
    1.1787   -8.0297    3.5154 C   0  0  0  0  0  0  0  0  0  0  0  0
    1.0491   -6.8434    2.9820 O   0  0  0  0  0  0  0  0  0  0  0  0
   -0.0075   -8.7761    3.2545 C   0  0  0  0  0  0  0  0  0  0  0  0
   -0.0511   -9.9415    3.9309 C   0  0  0  0  0  0  0  0  0  0  0  0
   -1.3646  -10.4523    3.9552 O   0  0  0  0  0  0  0  0  0  0  0  0
    0.9288  -10.7428    4.0917 N   0  0  0  0  0  0  0  0  0  0  0  0
    1.2341   -5.6972    3.8135 C   0  0  0  0  0  0  0  0  0  0  0  0
    2.1691  -10.7925    3.6431 C   0  0  0  0  0  0  0  0  0  0  0  0
    2.2422  -11.0388    2.3367 C   0  0  0  0  0  0  0  0  0  0  0  0
    1.6194  -12.0826    1.7106 C   0  0  0  0  0  0  0  0  0  0  0  0
    1.6375  -13.2640    2.3464 C   0  0  0  0  0  0  0  0  0  0  0  0
    1.1747  -14.1635    1.7639 C   0  0  0  0  0  0  0  0  0  0  0  0
    0.5378  -14.1840    0.5732 C   0  0  0  0  0  0  0  0  0  0  0  0
    0.5627  -12.9157   -0.1332 C   0  0  0  0  0  0  0  0  0  0  0  0
    1.0582  -11.8785    0.4643 C   0  0  0  0  0  0  0  0  0  0  0  0
    1.0123  -10.6774   -0.0743 O   0  0  0  0  0  0  0  0  0  0  0  0
    3.2220  -10.7947    4.4822 O   0  0  0  0  0  0  0  0  0  0  0  0
    1.2174  -15.6140    2.3668 C   0  0  0  0  0  0  0  0  0  0  0  0
  1  2  1  0
  1  3  1  0
  3  4  1  0
  4  5  2  0
  4  6  1  0
  2  7  1  0
  6  8  1  0
  8  9  1  0
  9 10  1  0
 10 11  1  0
 12 13  1  0
 10 15  1  0
 14 15  1  0
 15 16  2  0
  8 17  2  0
 12 18  1  0
 11 12  1  0
 13 14  1  0
M  END

$$$$
No_3210-/export/home/yangzhenyu/potential_scad_32_flow//YTHDC2/2024-12-06-03-22-00/
     RDKit          3D

 20 20  0  0  1  0  0  0  0  0999 V2000
    1.1787   -8.0297    3.5154 O   0  0  0  0  0  0  0  0  0  0  0  0
    0.6747   -7.4019    2.7838 C   0  0  2  0  0  0  0  0  0  0  0  0
    0.7594   -8.0032    1.4295 C   0  0  0  0  0  0  0  0  0  0  0  0
    0.3459   -9.1500    1.3581 C   0  0  0  0  0  0  0  0  0  0  0  0
    1.1876  -10.0065    2.0240 C   0  0  2  0  0  0  0  0  0  0  0  0
    1.9076   -9.7379    2.7265 C   0  0  0  0  0  0  0  0  0  0  0  0
    1.8713   -9.2752    3.9137 C   0  0  0  0  0  0  0  0  0  0  0  0
    0.5483   -6.0403    2.9669 C   0  0  0  0  0  0  0  0  0  0  0  0
   -0.6932   -5.5000    2.6330 N   0  0  0  0  0  0  0  0  0  0  0  0
    1.5230   -5.1726    3.3871 O   0  0  0  0  0  0  0  0  0  0  0  0
    1.1605  -11.3776    1.3599 C   0  0  0  0  0  0  0  0  0  0  0  0
    1.8828  -12.4177    1.7705 O   0  0  0  0  0  0  0  0  0  0  0  0
    0.2316  -11.7358    0.4224 O   0  0  0  0  0  0  0  0  0  0  0  0
   -0.9135   -4.1245    2.7191 C   0  0  2  0  0  0  0  0  0  0  0  0
   -1.6812   -3.7156    3.5476 C   0  0  0  0  0  0  0  0  0  0  0  0
   -0.2857   -3.1832    1.7791 C   0  0  1  0  0  0  0  0  0  0  0  0
    0.2900   -2.1206    2.1492 C   0  0  0  0  0  0  0  0  0  0  0  0
    0.9358   -2.0140    3.3152 C   0  0  0  0  0  0  0  0  0  0  0  0
   -0.2189   -3.6385    0.3909 C   0  0  0  0  0  0  0  0  0  0  0  0
   -0.5497   -4.6388    0.0536 O   0  0  0  0  0  0  0  0  0  0  0  0
  1  2  1  0
  2  3  1  0
  3  4  1  0
  4  5  1  0
  5  6  1  0
  1  7  1  0
  6  7  1  0
  2  8  1  6
  8  9  1  0
  8 10  2  0
  5 11  1  6
 11 12  2  0
 11 13  1  0
  9 14  1  0
 14 15  1  6
 14 16  1  0
 16 17  1  1
 17 18  1  0
 16 19  1  0
 19 20  2  0
M  END

$$$$
No_3211-/export/home/yangzhenyu/potential_scad_32_flow//YTHDC2/2024-12-06-03-22-00/
     RDKit          3D

 20 20  0  0  1  0  0  0  0  0999 V2000
    1.1787   -8.0297    3.5154 C   0  0  0  0  0  0  0  0  0  0  0  0
    1.0491   -6.8434    2.9820 C   0  0  0  0  0  0  0  0  0  0  0  0
    1.0690   -9.1150    2.7206 C   0  0  0  0  0  0  0  0  0  0  0  0
    0.9689   -6.6391    1.6260 C   0  0  0  0  0  0  0  0  0  0  0  0
    0.9670   -9.0334    1.3824 C   0  0  0  0  0  0  0  0  0  0  0  0
    0.8189   -7.7113    0.8022 C   0  0  0  0  0  0  0  0  0  0  0  0
    1.2114  -10.5217    3.2468 C   0  0  0  0  0  0  0  0  0  0  0  0
    2.2860  -10.8211    3.8520 C   0  0  0  0  0  0  0  0  0  0  0  0
    2.2631  -12.2056    4.3066 C   0  0  0  0  0  0  0  0  0  0  0  0
    1.5043  -13.0726    3.7970 Cl  0  0  0  0  0  0  0  0  0  0  0  0
    0.8694   -5.3579    1.0264 O   0  0  0  0  0  0  0  0  0  0  0  0
    0.8121  -10.1217    0.5057 C   0  0  0  0  0  0  0  0  0  0  0  0
    0.0516  -11.1160    1.0834 O   0  0  0  0  0  0  0  0  0  0  0  0
    1.3646  -10.1845   -0.5453 O   0  0  0  0  0  0  0  0  0  0  0  0
    1.2487   -4.2208    1.7840 C   0  0  0  0  0  0  0  0  0  0  0  0
    0.2622   -3.3434    2.0688 C   0  0  2  0  0  0  0  0  0  0  0  0
    0.3727   -2.4601    3.0619 Cl  0  0  0  0  0  0  0  0  0  0  0  0
   -1.1694   -3.9220    1.9643 C   0  0  0  0  0  0  0  0  0  0  0  0
   -2.0791   -3.2254    2.0011 C   0  0  0  0  0  0  0  0  0  0  0  0
   -3.4625   -3.8397    1.8757 C   0  0  0  0  0  0  0  0  0  0  0  0
  3  7  1  0
  7  8  1  0
  8  9  2  3
  9 10  1  0
  4 11  1  0
  5 12  1  0
 12 13  1  0
 12 14  2  0
 11 15  1  0
 15 16  1  0
 16 17  1  1
 16 18  1  0
 18 19  2  3
 19 20  1  0
  1  2  2  0
  2  4  1  0
  4  6  2  0
  5  6  1  0
  3  5  2  0
  1  3  1  0
M  END

$$$$
No_3212-/export/home/yangzhenyu/potential_scad_32_flow//YTHDC2/2024-12-06-03-22-00/
     RDKit          3D

 20 21  0  0  1  0  0  0  0  0999 V2000
    1.1787   -8.0297    3.5154 C   0  0  0  0  0  0  0  0  0  0  0  0
    1.1048   -9.2215    3.2892 C   0  0  0  0  0  0  0  0  0  0  0  0
    1.0239   -9.7790    2.0239 C   0  0  2  0  0  0  0  0  0  0  0  0
    1.0632  -11.2393    1.8978 C   0  0  0  0  0  0  0  0  0  0  0  0
    1.2664   -7.1133    2.3309 C   0  0  1  0  0  0  0  0  0  0  0  0
    1.2080   -7.6832    1.0760 C   0  0  0  0  0  0  0  0  0  0  0  0
    1.1535   -8.9837    0.8897 C   0  0  0  0  0  0  0  0  0  0  0  0
    1.5434  -12.1192    2.7356 C   0  0  0  0  0  0  0  0  0  0  0  0
    1.4960  -13.4804    2.4774 C   0  0  0  0  0  0  0  0  0  0  0  0
    0.9784  -14.0090    1.4059 C   0  0  0  0  0  0  0  0  0  0  0  0
    0.5177  -13.1808    0.4753 C   0  0  0  0  0  0  0  0  0  0  0  0
    0.5445  -11.8006    0.6518 C   0  0  0  0  0  0  0  0  0  0  0  0
    1.1499   -9.4324   -0.3667 O   0  0  0  0  0  0  0  0  0  0  0  0
    1.3375   -5.6565    2.5205 Br  0  0  0  0  0  0  0  0  0  0  0  0
    2.0532  -14.3767    3.4863 Cl  0  0  0  0  0  0  0  0  0  0  0  0
    0.9632  -15.2931    1.0500 N   0  0  0  0  0  0  0  0  0  0  0  0
    0.1648  -16.0134    0.9243 C   0  0  0  0  0  0  0  0  0  0  0  0
   -0.3993  -16.5548    1.5525 C   0  0  0  0  0  0  0  0  0  0  0  0
   -0.2426  -16.2995    3.1354 C   0  0  0  0  0  0  0  0  0  0  0  0
    0.4135  -17.5034    3.6641 C   0  0  0  0  0  0  0  0  0  0  0  0
  2  3  1  0
  3  4  1  1
  1  5  1  0
  3  7  1  0
  6  7  1  0
  7 13  2  0
  5 14  1  1
  9 15  1  0
 10 16  1  0
 16 17  1  0
 17 18  2  3
 18 19  1  0
 19 20  1  0
  1  2  1  0
  5  6  1  0
  4  8  2  0
  8  9  1  0
  9 10  2  0
 10 11  1  0
 11 12  2  0
  4 12  1  0
M  END

$$$$
No_3213-/export/home/yangzhenyu/potential_scad_32_flow//YTHDC2/2024-12-06-03-22-00/
     RDKit          3D

 18 19  0  0  1  0  0  0  0  0999 V2000
    1.1787   -8.0297    3.5154 C   0  0  0  0  0  0  0  0  0  0  0  0
    1.0491   -6.8434    2.9820 C   0  0  0  0  0  0  0  0  0  0  0  0
    0.0950   -8.8404    3.2292 C   0  0  0  0  0  0  0  0  0  0  0  0
   -0.9173   -8.4596    2.5152 C   0  0  0  0  0  0  0  0  0  0  0  0
   -1.0331   -7.2162    2.0653 C   0  0  0  0  0  0  0  0  0  0  0  0
   -0.0105   -6.3168    2.3081 C   0  0  2  0  0  0  0  0  0  0  0  0
    0.1150   -4.9910    1.8495 C   0  0  2  0  0  0  0  0  0  0  0  0
   -0.1376   -4.7952    0.5550 C   0  0  0  0  0  0  0  0  0  0  0  0
   -0.2146   -3.3857    0.2341 C   0  0  0  0  0  0  0  0  0  0  0  0
    0.4473   -2.4574    0.8723 C   0  0  0  0  0  0  0  0  0  0  0  0
    0.8713   -3.0655    2.3539 C   0  0  0  0  0  0  0  0  0  0  0  0
    0.7497   -4.1923    2.6941 C   0  0  0  0  0  0  0  0  0  0  0  0
    0.1445  -10.2091    3.7749 Cl  0  0  0  0  0  0  0  0  0  0  0  0
   -0.5152   -2.9977   -1.0914 F   0  0  0  0  0  0  0  0  0  0  0  0
    1.1001   -4.4637    3.9427 S   0  0  0  0  0  0  0  0  0  0  0  0
    0.6211   -0.9409    0.4816 Cl  0  0  0  0  0  0  0  0  0  0  0  0
   -2.4142   -6.7917    1.2666 C   0  0  0  0  0  0  0  0  0  0  0  0
   -3.3217   -6.2443    2.0254 C   0  0  0  0  0  0  0  0  0  0  0  0
  1  2  1  0
  1  3  2  0
  3  4  1  0
  4  5  2  0
  6  2  1  6
  5  6  1  0
  6  7  1  0
  7  8  1  6
  8  9  2  0
  9 10  1  0
 10 11  2  0
  7 12  1  0
 11 12  1  0
  3 13  1  0
  9 14  1  0
 12 15  2  0
 10 16  1  0
  5 17  1  0
 17 18  1  0
M  END

$$$$
No_3214-/export/home/yangzhenyu/potential_scad_32_flow//YTHDC2/2024-12-06-03-22-00/
     RDKit          3D

 19 20  0  0  1  0  0  0  0  0999 V2000
    1.1787   -8.0297    3.5154 N   0  0  0  0  0  0  0  0  0  0  0  0
    0.8669   -7.0905    2.8589 C   0  0  0  0  0  0  0  0  0  0  0  0
    1.0039   -7.3686    1.4179 C   0  0  1  0  0  0  0  0  0  0  0  0
    1.2173   -8.6056    1.2222 C   0  0  0  0  0  0  0  0  0  0  0  0
    1.5976   -9.1867    2.5383 C   0  0  0  0  0  0  0  0  0  0  0  0
    2.0093  -10.4344    2.7725 C   0  0  0  0  0  0  0  0  0  0  0  0
    1.9701  -11.4039    1.7649 C   0  0  0  0  0  0  0  0  0  0  0  0
    1.7009  -10.8768    0.4575 C   0  0  0  0  0  0  0  0  0  0  0  0
    1.3470   -9.6238    0.2349 C   0  0  0  0  0  0  0  0  0  0  0  0
    2.1377  -10.8715    4.1441 Cl  0  0  0  0  0  0  0  0  0  0  0  0
    0.6473   -6.5218    0.4177 C   0  0  0  0  0  0  0  0  0  0  0  0
   -0.3708   -6.8548   -0.2892 Cl  0  0  0  0  0  0  0  0  0  0  0  0
    0.8030   -5.8175    3.4146 C   0  0  0  0  0  0  0  0  0  0  0  0
    1.9441   -4.9544    3.6614 C   0  0  0  0  0  0  0  0  0  0  0  0
    1.5807   -3.5496    3.3064 O   0  0  0  0  0  0  0  0  0  0  0  0
    0.7758   -3.1593    2.7854 C   0  0  0  0  0  0  0  0  0  0  0  0
    2.3342  -12.6540    1.9688 N   0  0  0  0  0  0  0  0  0  0  0  0
    1.6657  -13.8107    1.8164 C   0  0  0  0  0  0  0  0  0  0  0  0
    2.3937  -14.9950    1.9004 C   0  0  0  0  0  0  0  0  0  0  0  0
  1  2  2  0
  2  3  1  0
  1  5  1  0
  6 10  1  0
  3 11  1  6
 11 12  1  0
  2 13  1  0
 13 14  1  0
 14 15  1  0
 15 16  1  0
  7 17  1  0
 17 18  1  0
 18 19  1  0
  3  4  1  0
  4  5  2  0
  5  6  1  0
  6  7  2  0
  7  8  1  0
  8  9  2  0
  4  9  1  0
M  END

$$$$
No_3215-/export/home/yangzhenyu/potential_scad_32_flow//YTHDC2/2024-12-06-03-22-00/
     RDKit          3D

 19 21  0  0  0  0  0  0  0  0999 V2000
    1.1787   -8.0297    3.5154 C   0  0  0  0  0  0  0  0  0  0  0  0
    1.1048   -9.2215    3.2892 C   0  0  0  0  0  0  0  0  0  0  0  0
    1.3627  -10.1721    4.3044 C   0  0  0  0  0  0  0  0  0  0  0  0
    1.0682  -11.5187    4.0618 C   0  0  0  0  0  0  0  0  0  0  0  0
    0.6332  -11.9655    2.9682 C   0  0  0  0  0  0  0  0  0  0  0  0
    0.4776  -11.1308    1.9203 C   0  0  0  0  0  0  0  0  0  0  0  0
    0.7470   -9.8274    2.0368 C   0  0  0  0  0  0  0  0  0  0  0  0
    1.0387   -7.0301    2.5175 C   0  0  0  0  0  0  0  0  0  0  0  0
    0.9130   -7.5288    1.2013 C   0  0  0  0  0  0  0  0  0  0  0  0
    0.7893   -8.7979    0.9542 C   0  0  0  0  0  0  0  0  0  0  0  0
    0.3998  -13.3695    2.7114 C   0  0  0  0  0  0  0  0  0  0  0  0
   -0.8069  -13.8090    2.3159 C   0  0  0  0  0  0  0  0  0  0  0  0
   -1.0012  -15.1954    2.1657 C   0  0  0  0  0  0  0  0  0  0  0  0
   -0.0060  -16.1116    2.2775 C   0  0  0  0  0  0  0  0  0  0  0  0
    1.3310  -15.6885    2.7363 C   0  0  0  0  0  0  0  0  0  0  0  0
    1.5390  -14.2972    2.9647 C   0  0  0  0  0  0  0  0  0  0  0  0
    0.4415   -9.2683   -0.3642 C   0  0  0  0  0  0  0  0  0  0  0  0
   -0.8758   -9.5142   -0.6272 O   0  0  0  0  0  0  0  0  0  0  0  0
    1.2252   -9.0575   -1.3057 O   0  0  0  0  0  0  0  0  0  0  0  0
  5 11  1  0
 10 17  1  0
 17 18  2  0
 17 19  1  0
 11 12  2  0
 12 13  1  0
 13 14  2  0
 14 15  1  0
 15 16  2  0
 11 16  1  0
  2  3  1  0
  3  4  2  0
  4  5  1  0
  5  6  2  0
  6  7  1  0
  1  2  2  0
  2  7  1  0
  7 10  2  0
  9 10  1  0
  8  9  2  0
  1  8  1  0
M  END

$$$$
No_3216-/export/home/yangzhenyu/potential_scad_32_flow//YTHDC2/2024-12-06-03-22-00/
     RDKit          3D

 20 20  0  0  1  0  0  0  0  0999 V2000
    1.1787   -8.0297    3.5154 C   0  0  0  0  0  0  0  0  0  0  0  0
    1.1048   -9.2215    3.2892 C   0  0  0  0  0  0  0  0  0  0  0  0
    1.3627  -10.1721    4.3044 C   0  0  0  0  0  0  0  0  0  0  0  0
    1.7354  -11.4730    3.9023 C   0  0  0  0  0  0  0  0  0  0  0  0
    1.8080  -11.8127    2.7216 C   0  0  0  0  0  0  0  0  0  0  0  0
    1.5854  -11.0021    1.7249 C   0  0  0  0  0  0  0  0  0  0  0  0
    1.3573   -9.7389    1.9287 C   0  0  0  0  0  0  0  0  0  0  0  0
    1.1102   -8.8712    0.9017 C   0  0  0  0  0  0  0  0  0  0  0  0
    0.5299   -7.6926    1.0325 O   0  0  0  0  0  0  0  0  0  0  0  0
    1.1841   -9.3630   -0.4581 O   0  0  0  0  0  0  0  0  0  0  0  0
    2.1111  -13.2043    2.3260 N   0  0  0  0  0  0  0  0  0  0  0  0
    1.3268  -14.1820    1.8340 C   0  0  0  0  0  0  0  0  0  0  0  0
    1.8550  -15.3299    1.5558 O   0  0  0  0  0  0  0  0  0  0  0  0
    0.0044  -13.7946    1.4603 C   0  0  0  0  0  0  0  0  0  0  0  0
   -0.6872  -14.7973    0.9910 C   0  0  2  0  0  0  0  0  0  0  0  0
   -1.4462  -14.9540    0.1908 Cl  0  0  0  0  0  0  0  0  0  0  0  0
   -0.5972  -16.0757    1.9121 C   0  0  0  0  0  0  0  0  0  0  0  0
   -1.0069  -15.9804    3.2537 C   0  0  0  0  0  0  0  0  0  0  0  0
   -1.2862  -17.1843    3.9914 C   0  0  0  0  0  0  0  0  0  0  0  0
   -0.9380  -18.3264    3.6604 C   0  0  0  0  0  0  0  0  0  0  0  0
  1  2  1  0
  7  8  1  0
  8  9  2  0
  8 10  1  0
  5 11  1  0
 11 12  1  0
 12 13  2  0
 12 14  1  0
 14 15  1  0
 15 16  1  1
 15 17  1  0
 17 18  1  0
 18 19  2  3
 19 20  1  0
  2  3  2  0
  3  4  1  0
  4  5  2  0
  5  6  1  0
  6  7  2  0
  2  7  1  0
M  END

$$$$
No_3217-/export/home/yangzhenyu/potential_scad_32_flow//YTHDC2/2024-12-06-03-22-00/
     RDKit          3D

 19 20  0  0  1  0  0  0  0  0999 V2000
    1.1787   -8.0297    3.5154 C   0  0  0  0  0  0  0  0  0  0  0  0
    1.1048   -9.2215    3.2892 C   0  0  0  0  0  0  0  0  0  0  0  0
    1.3627  -10.1721    4.3044 C   0  0  0  0  0  0  0  0  0  0  0  0
    2.3720  -10.8948    4.2468 C   0  0  0  0  0  0  0  0  0  0  0  0
    1.0579   -7.0441    2.4219 C   0  0  0  0  0  0  0  0  0  0  0  0
    0.8578   -7.4970    1.1686 C   0  0  0  0  0  0  0  0  0  0  0  0
    0.7382   -8.7683    0.8754 C   0  0  0  0  0  0  0  0  0  0  0  0
    0.8882   -9.7347    1.9238 C   0  0  0  0  0  0  0  0  0  0  0  0
    0.9437  -11.0299    1.7005 C   0  0  0  0  0  0  0  0  0  0  0  0
   -0.0869  -11.8512    1.8957 C   0  0  0  0  0  0  0  0  0  0  0  0
    0.0905  -13.2934    1.6707 C   0  0  1  0  0  0  0  0  0  0  0  0
    1.3523  -13.9069    1.8328 C   0  0  0  0  0  0  0  0  0  0  0  0
    1.4076  -15.3028    1.8966 C   0  0  0  0  0  0  0  0  0  0  0  0
    0.2921  -16.0537    2.3736 N   0  0  0  0  0  0  0  0  0  0  0  0
   -0.4201  -15.4472    2.8499 C   0  0  2  0  0  0  0  0  0  0  0  0
   -1.5648  -16.2885    3.3732 N   0  0  0  0  0  0  0  0  0  0  0  0
   -0.6371  -14.1273    2.8048 N   0  0  0  0  0  0  0  0  0  0  0  0
    2.6425  -15.9523    1.5799 O   0  0  0  0  0  0  0  0  0  0  0  0
    0.4828   -9.1856   -0.4552 C   0  0  0  0  0  0  0  0  0  0  0  0
  2  3  1  0
  3  4  1  0
  8  9  1  0
  9 10  2  3
 10 11  1  0
 12 13  1  0
 13 14  1  0
 14 15  1  0
 11 17  1  0
 15 17  1  0
 13 18  2  0
  7 19  1  0
 15 16  1  6
 11 12  1  1
  1  2  2  0
  2  8  1  0
  7  8  2  0
  6  7  1  0
  5  6  2  0
  1  5  1  0
M  END

$$$$
No_3218-/export/home/yangzhenyu/potential_scad_32_flow//YTHDC2/2024-12-06-03-22-00/
     RDKit          3D

 16 17  0  0  0  0  0  0  0  0999 V2000
    1.1787   -8.0297    3.5154 C   0  0  0  0  0  0  0  0  0  0  0  0
    1.0491   -6.8434    2.9820 C   0  0  0  0  0  0  0  0  0  0  0  0
    0.0950   -8.8404    3.2292 C   0  0  0  0  0  0  0  0  0  0  0  0
   -0.9173   -8.4596    2.5152 C   0  0  0  0  0  0  0  0  0  0  0  0
   -1.0331   -7.2162    2.0653 C   0  0  0  0  0  0  0  0  0  0  0  0
   -0.0105   -6.3168    2.3081 C   0  0  0  0  0  0  0  0  0  0  0  0
    0.1465  -10.2446    3.6981 S   0  0  0  0  0  0  0  0  0  0  0  0
   -1.0557  -10.6666    4.1668 O   0  0  0  0  0  0  0  0  0  0  0  0
    1.0921  -10.4216    5.0205 C   0  0  0  0  0  0  0  0  0  0  0  0
    0.4899  -11.1722    2.6041 O   0  0  0  0  0  0  0  0  0  0  0  0
   -0.0597   -4.9769    1.8861 C   0  0  0  0  0  0  0  0  0  0  0  0
   -0.7280   -4.1381    2.3103 C   0  0  0  0  0  0  0  0  0  0  0  0
   -0.5339   -2.7549    2.2443 C   0  0  0  0  0  0  0  0  0  0  0  0
    0.4108   -2.3446    1.2741 C   0  0  0  0  0  0  0  0  0  0  0  0
    1.1375   -3.2342    0.5395 C   0  0  0  0  0  0  0  0  0  0  0  0
    0.9744   -4.6218    0.8754 C   0  0  0  0  0  0  0  0  0  0  0  0
  3  7  1  0
  7  8  2  0
  7  9  1  0
  7 10  2  0
  6 11  1  0
 11 12  2  0
 12 13  1  0
 13 14  2  0
 14 15  1  0
 15 16  2  0
 11 16  1  0
  1  2  2  0
  2  6  1  0
  5  6  2  0
  4  5  1  0
  3  4  2  0
  1  3  1  0
M  END

$$$$
No_3219-/export/home/yangzhenyu/potential_scad_32_flow//YTHDC2/2024-12-06-03-22-00/
     RDKit          3D

 18 19  0  0  1  0  0  0  0  0999 V2000
    1.1787   -8.0297    3.5154 C   0  0  0  0  0  0  0  0  0  0  0  0
    1.0491   -6.8434    2.9820 F   0  0  0  0  0  0  0  0  0  0  0  0
    0.8676   -8.9655    2.5144 C   0  0  1  0  0  0  0  0  0  0  0  0
    0.8157   -8.6900    1.2832 C   0  0  0  0  0  0  0  0  0  0  0  0
    1.1204   -9.7940    0.4296 C   0  0  0  0  0  0  0  0  0  0  0  0
    1.1578  -10.9507    0.7396 C   0  0  0  0  0  0  0  0  0  0  0  0
    1.2307  -11.3050    2.1520 C   0  0  2  0  0  0  0  0  0  0  0  0
    1.1826  -10.2889    3.0997 C   0  0  0  0  0  0  0  0  0  0  0  0
    0.8212   -7.5801    0.8432 O   0  0  0  0  0  0  0  0  0  0  0  0
    1.2976  -10.5712    4.4128 O   0  0  0  0  0  0  0  0  0  0  0  0
    1.5358  -12.5973    2.6250 C   0  0  0  0  0  0  0  0  0  0  0  0
    1.0535  -13.6804    1.7224 C   0  0  1  0  0  0  0  0  0  0  0  0
    1.2096  -14.9917    2.4882 S   0  0  0  0  0  0  0  0  0  0  0  0
    0.7007  -16.1384    1.4851 C   0  0  0  0  0  0  0  0  0  0  0  0
   -0.0246  -15.7443    0.4404 C   0  0  0  0  0  0  0  0  0  0  0  0
    0.1010  -14.5206   -0.2524 C   0  0  0  0  0  0  0  0  0  0  0  0
    0.5446  -13.4157    0.5080 C   0  0  0  0  0  0  0  0  0  0  0  0
   -0.4457  -14.3458   -1.4494 O   0  0  0  0  0  0  0  0  0  0  0  0
  1  2  1  0
  3  1  1  1
  3  4  1  0
  4  5  1  0
  6  7  1  0
  3  8  1  0
  7  8  1  0
  4  9  2  0
  8 10  2  0
  7 11  1  6
 12 11  1  1
 12 13  1  0
 13 14  1  0
 14 15  1  0
 15 16  1  0
 12 17  1  0
 16 17  1  0
 16 18  2  0
  5  6  1  0
M  END

$$$$
No_3220-/export/home/yangzhenyu/potential_scad_32_flow//YTHDC2/2024-12-06-03-22-00/
     RDKit          3D

 20 21  0  0  0  0  0  0  0  0999 V2000
    1.1787   -8.0297    3.5154 C   0  0  0  0  0  0  0  0  0  0  0  0
    1.1048   -9.2215    3.2892 C   0  0  0  0  0  0  0  0  0  0  0  0
    1.3627  -10.1721    4.3044 C   0  0  0  0  0  0  0  0  0  0  0  0
    1.7354  -11.4730    3.9023 C   0  0  0  0  0  0  0  0  0  0  0  0
    1.8080  -11.8127    2.7216 C   0  0  0  0  0  0  0  0  0  0  0  0
    1.5854  -11.0021    1.7249 C   0  0  0  0  0  0  0  0  0  0  0  0
    1.3573   -9.7389    1.9287 C   0  0  0  0  0  0  0  0  0  0  0  0
    1.1102   -8.8712    0.9017 C   0  0  0  0  0  0  0  0  0  0  0  0
    1.5724   -9.1697   -0.3048 C   0  0  0  0  0  0  0  0  0  0  0  0
    1.2378   -8.2159   -1.4226 O   0  0  0  0  0  0  0  0  0  0  0  0
    2.0610  -13.2069    2.3284 C   0  0  0  0  0  0  0  0  0  0  0  0
    2.4547  -13.6083    1.1114 O   0  0  0  0  0  0  0  0  0  0  0  0
    1.9666  -14.2052    3.2156 N   0  0  0  0  0  0  0  0  0  0  0  0
    2.0461  -15.5318    2.9121 C   0  0  0  0  0  0  0  0  0  0  0  0
    0.9534  -16.2936    2.9883 C   0  0  0  0  0  0  0  0  0  0  0  0
    1.0890  -17.6442    2.7767 C   0  0  0  0  0  0  0  0  0  0  0  0
    2.3842  -18.1208    2.3473 C   0  0  0  0  0  0  0  0  0  0  0  0
    3.5122  -17.3106    2.4321 C   0  0  0  0  0  0  0  0  0  0  0  0
    3.3847  -16.0187    2.6301 C   0  0  0  0  0  0  0  0  0  0  0  0
    0.1318   -7.2107    3.3766 Cl  0  0  0  0  0  0  0  0  0  0  0  0
  1  2  1  0
  7  8  1  0
  8  9  2  3
  9 10  1  0
  5 11  1  0
 11 12  2  0
 11 13  1  0
 13 14  1  0
  1 20  1  0
  2  3  2  0
  3  4  1  0
  4  5  2  0
  5  6  1  0
  6  7  2  0
  2  7  1  0
 14 15  2  0
 15 16  1  0
 16 17  2  0
 17 18  1  0
 18 19  2  0
 14 19  1  0
M  END

$$$$
No_3221-/export/home/yangzhenyu/potential_scad_32_flow//YTHDC2/2024-12-06-03-22-00/
     RDKit          3D

 18 19  0  0  0  0  0  0  0  0999 V2000
    1.1787   -8.0297    3.5154 C   0  0  0  0  0  0  0  0  0  0  0  0
    1.0491   -6.8434    2.9820 C   0  0  0  0  0  0  0  0  0  0  0  0
    0.9905   -9.0774    2.6527 C   0  0  0  0  0  0  0  0  0  0  0  0
    1.1655  -10.4663    3.1286 C   0  0  0  0  0  0  0  0  0  0  0  0
    1.2197  -11.4898    2.5831 C   0  0  0  0  0  0  0  0  0  0  0  0
    1.0589  -11.4458    1.1293 C   0  0  0  0  0  0  0  0  0  0  0  0
    0.9638  -10.3069    0.4651 C   0  0  0  0  0  0  0  0  0  0  0  0
    0.9191   -9.0789    1.1942 C   0  0  0  0  0  0  0  0  0  0  0  0
    0.9103   -7.8220    0.6974 C   0  0  0  0  0  0  0  0  0  0  0  0
    1.0140   -6.6889    1.5108 C   0  0  0  0  0  0  0  0  0  0  0  0
    0.7513   -7.6341   -0.4649 O   0  0  0  0  0  0  0  0  0  0  0  0
    1.3227  -12.8060    3.1122 C   0  0  0  0  0  0  0  0  0  0  0  0
    0.2120  -13.7108    2.9590 N   0  0  0  0  0  0  0  0  0  0  0  0
    0.3141  -14.6440    2.4105 C   0  0  0  0  0  0  0  0  0  0  0  0
   -0.8226  -15.4094    2.1044 C   0  0  0  0  0  0  0  0  0  0  0  0
   -0.8017  -16.7254    1.9656 C   0  0  0  0  0  0  0  0  0  0  0  0
    0.4355  -17.4193    1.8618 C   0  0  0  0  0  0  0  0  0  0  0  0
    1.6287  -16.8244    2.3070 C   0  0  0  0  0  0  0  0  0  0  0  0
  1  2  1  0
  8  9  1  0
  2 10  1  0
  9 10  1  0
  9 11  2  0
  5 12  1  0
 12 13  1  0
 13 14  1  0
 14 15  1  0
 15 16  2  3
 16 17  1  0
 17 18  2  0
  1  3  1  0
  3  4  2  0
  4  5  1  0
  5  6  2  0
  6  7  1  0
  7  8  2  0
  3  8  1  0
M  END

$$$$
No_3222-/export/home/yangzhenyu/potential_scad_32_flow//YTHDC2/2024-12-06-03-22-00/
     RDKit          3D

 18 18  0  0  0  0  0  0  0  0999 V2000
    1.1787   -8.0297    3.5154 C   0  0  0  0  0  0  0  0  0  0  0  0
    1.0491   -6.8434    2.9820 C   0  0  0  0  0  0  0  0  0  0  0  0
    0.0950   -8.8404    3.2292 C   0  0  0  0  0  0  0  0  0  0  0  0
   -0.9173   -8.4596    2.5152 C   0  0  0  0  0  0  0  0  0  0  0  0
   -1.0331   -7.2162    2.0653 C   0  0  0  0  0  0  0  0  0  0  0  0
   -0.0105   -6.3168    2.3081 C   0  0  0  0  0  0  0  0  0  0  0  0
    0.1465  -10.2446    3.6981 C   0  0  0  0  0  0  0  0  0  0  0  0
    1.2433  -10.8239    4.0166 C   0  0  0  0  0  0  0  0  0  0  0  0
    1.0790  -12.2885    4.3779 N   0  0  0  0  0  0  0  0  0  0  0  0
    0.6753  -12.8866    3.3340 C   0  0  0  0  0  0  0  0  0  0  0  0
    0.7075  -14.3636    3.4679 N   0  0  0  0  0  0  0  0  0  0  0  0
    0.1485  -12.4456    2.1903 N   0  0  0  0  0  0  0  0  0  0  0  0
   -0.1182   -5.0659    1.7940 C   0  0  0  0  0  0  0  0  0  0  0  0
    0.7275   -4.0739    2.2764 C   0  0  0  0  0  0  0  0  0  0  0  0
    0.7925   -2.7629    1.6367 C   0  0  0  0  0  0  0  0  0  0  0  0
    0.9587  -15.1341    2.4908 C   0  0  0  0  0  0  0  0  0  0  0  0
    1.2639  -16.4756    2.6515 C   0  0  0  0  0  0  0  0  0  0  0  0
    0.6977  -14.5494    1.3967 C   0  0  0  0  0  0  0  0  0  0  0  0
  3  7  1  0
  7  8  2  3
  8  9  1  0
  9 10  2  3
 10 11  1  0
 10 12  1  0
  6 13  1  0
 13 14  2  3
 14 15  1  0
 11 16  1  0
 16 17  1  0
 16 18  1  0
  1  2  2  0
  2  6  1  0
  5  6  2  0
  4  5  1  0
  3  4  2  0
  1  3  1  0
M  END

$$$$
No_3223-/export/home/yangzhenyu/potential_scad_32_flow//YTHDC2/2024-12-06-03-22-00/
     RDKit          3D

 19 20  0  0  1  0  0  0  0  0999 V2000
    1.1787   -8.0297    3.5154 C   0  0  0  0  0  0  0  0  0  0  0  0
    1.1048   -9.2215    3.2892 Cl  0  0  0  0  0  0  0  0  0  0  0  0
    0.2295   -7.0603    2.7853 C   0  0  0  0  0  0  0  0  0  0  0  0
   -0.7446   -7.6437    2.3864 C   0  0  0  0  0  0  0  0  0  0  0  0
   -1.6433   -6.6665    1.8504 C   0  0  0  0  0  0  0  0  0  0  0  0
   -1.3170   -5.3439    1.5871 C   0  0  0  0  0  0  0  0  0  0  0  0
   -0.0275   -4.8730    1.8316 C   0  0  0  0  0  0  0  0  0  0  0  0
    0.8676   -5.8045    2.5085 C   0  0  0  0  0  0  0  0  0  0  0  0
    0.5477   -3.5876    1.5887 O   0  0  0  0  0  0  0  0  0  0  0  0
    2.0698   -5.3551    2.8814 Cl  0  0  0  0  0  0  0  0  0  0  0  0
   -0.2765   -2.6108    1.1486 C   0  0  0  0  0  0  0  0  0  0  0  0
   -0.2947   -2.4527   -0.3535 C   0  0  2  0  0  0  0  0  0  0  0  0
    0.6310   -1.5983   -0.8037 C   0  0  0  0  0  0  0  0  0  0  0  0
    0.1951   -0.3569   -0.8161 C   0  0  0  0  0  0  0  0  0  0  0  0
   -1.1797   -0.1958   -0.8895 C   0  0  2  0  0  0  0  0  0  0  0  0
   -2.0054   -1.1458   -0.6660 C   0  0  0  0  0  0  0  0  0  0  0  0
   -1.6578   -2.3529   -0.3313 C   0  0  0  0  0  0  0  0  0  0  0  0
   -1.6409    1.0771   -1.5860 C   0  0  0  0  0  0  0  0  0  0  0  0
   -1.0688    2.2456   -1.5831 Cl  0  0  0  0  0  0  0  0  0  0  0  0
  1  2  1  0
  1  3  1  0
  7  9  1  0
  8 10  1  0
  9 11  1  0
 12 11  1  1
 12 13  1  0
 13 14  1  0
 14 15  1  0
 15 16  1  0
 12 17  1  0
 16 17  1  0
 15 18  1  6
 18 19  1  0
  3  4  2  0
  4  5  1  0
  5  6  2  0
  6  7  1  0
  7  8  2  0
  3  8  1  0
M  END

$$$$
No_3224-/export/home/yangzhenyu/potential_scad_32_flow//YTHDC2/2024-12-06-03-22-00/
     RDKit          3D

 18 19  0  0  1  0  0  0  0  0999 V2000
    1.1787   -8.0297    3.5154 C   0  0  0  0  0  0  0  0  0  0  0  0
    1.1048   -9.2215    3.2892 C   0  0  0  0  0  0  0  0  0  0  0  0
    1.3627  -10.1721    4.3044 C   0  0  0  0  0  0  0  0  0  0  0  0
    1.7354  -11.4730    3.9024 C   0  0  0  0  0  0  0  0  0  0  0  0
    1.8080  -11.8127    2.7216 C   0  0  0  0  0  0  0  0  0  0  0  0
    1.5854  -11.0021    1.7249 C   0  0  0  0  0  0  0  0  0  0  0  0
    1.3573   -9.7389    1.9287 C   0  0  0  0  0  0  0  0  0  0  0  0
    1.1102   -8.8712    0.9017 C   0  0  0  0  0  0  0  0  0  0  0  0
    0.5299   -7.6926    1.0325 C   0  0  0  0  0  0  0  0  0  0  0  0
    0.7526   -7.0802    2.3301 C   0  0  0  0  0  0  0  0  0  0  0  0
    2.0515  -13.2522    2.4284 C   0  0  1  0  0  0  0  0  0  0  0  0
    2.4197  -13.7233    1.3168 C   0  0  0  0  0  0  0  0  0  0  0  0
    1.9442  -14.1755    3.4144 C   0  0  0  0  0  0  0  0  0  0  0  0
    0.5241   -5.6514    2.5344 C   0  0  2  0  0  0  0  0  0  0  0  0
   -0.6427   -5.1056    2.2480 C   0  0  0  0  0  0  0  0  0  0  0  0
   -1.7543   -5.6173    2.3387 C   0  0  0  0  0  0  0  0  0  0  0  0
    1.7255   -4.9502    2.9760 C   0  0  0  0  0  0  0  0  0  0  0  0
    1.9896  -15.5238    2.9037 C   0  0  0  0  0  0  0  0  0  0  0  0
  5 11  1  0
 11 12  1  1
 11 13  1  0
 10 14  1  0
 14 15  1  0
 15 16  2  0
 14 17  1  6
 13 18  2  0
  1  2  2  0
  7  8  2  0
  8  9  1  0
  9 10  2  0
  1 10  1  0
  2  3  1  0
  3  4  2  0
  4  5  1  0
  5  6  2  0
  6  7  1  0
  2  7  1  0
M  END

$$$$
No_3225-/export/home/yangzhenyu/potential_scad_32_flow//YTHDC2/2024-12-06-03-22-00/
     RDKit          3D

 17 18  0  0  0  0  0  0  0  0999 V2000
    1.1787   -8.0297    3.5154 C   0  0  0  0  0  0  0  0  0  0  0  0
    1.0491   -6.8434    2.9820 C   0  0  0  0  0  0  0  0  0  0  0  0
    0.9905   -9.0774    2.6527 C   0  0  0  0  0  0  0  0  0  0  0  0
    0.7897   -8.9519    1.3691 C   0  0  0  0  0  0  0  0  0  0  0  0
    0.7018   -7.7198    0.7892 C   0  0  0  0  0  0  0  0  0  0  0  0
    0.8918   -6.5957    1.6117 C   0  0  0  0  0  0  0  0  0  0  0  0
    1.0600  -10.5680    3.3321 C   0  0  0  0  0  0  0  0  0  0  0  0
   -0.1041  -11.1772    3.5150 O   0  0  0  0  0  0  0  0  0  0  0  0
    0.9390   -5.2580    1.1790 O   0  0  0  0  0  0  0  0  0  0  0  0
    2.1571  -11.0705    3.6916 C   0  0  0  0  0  0  0  0  0  0  0  0
    2.1427  -12.4450    3.9646 N   0  0  0  0  0  0  0  0  0  0  0  0
    0.0481  -12.4955    3.4986 C   0  0  0  0  0  0  0  0  0  0  0  0
    1.1958  -13.0974    3.8191 N   0  0  0  0  0  0  0  0  0  0  0  0
   -1.0598  -13.1034    3.1942 O   0  0  0  0  0  0  0  0  0  0  0  0
    0.6029  -10.1622    0.2676 C   0  0  0  0  0  0  0  0  0  0  0  0
   -0.4906  -10.2910   -0.1454 O   0  0  0  0  0  0  0  0  0  0  0  0
    1.7044  -10.6606   -0.1533 O   0  0  0  0  0  0  0  0  0  0  0  0
  1  2  1  0
  3  4  1  0
  2  6  1  0
  5  6  1  0
  3  7  1  0
  7  8  1  0
  6  9  2  0
  7 10  1  0
 10 11  2  0
  8 12  1  0
 11 13  1  0
 12 13  1  0
 12 14  2  0
  4 15  1  0
 15 16  2  0
 15 17  1  0
  1  3  1  0
  4  5  1  0
M  END

$$$$
No_3226-/export/home/yangzhenyu/potential_scad_32_flow//YTHDC2/2024-12-06-03-22-00/
     RDKit          3D

 20 21  0  0  1  0  0  0  0  0999 V2000
    1.1787   -8.0297    3.5154 C   0  0  0  0  0  0  0  0  0  0  0  0
    1.0491   -6.8434    2.9820 C   0  0  0  0  0  0  0  0  0  0  0  0
    0.0950   -8.8404    3.2292 C   0  0  0  0  0  0  0  0  0  0  0  0
   -0.9173   -8.4596    2.5152 F   0  0  0  0  0  0  0  0  0  0  0  0
    0.1089  -10.2231    3.7948 C   0  0  0  0  0  0  0  0  0  0  0  0
   -0.9443  -10.9008    3.8378 C   0  0  0  0  0  0  0  0  0  0  0  0
    1.2220   -5.6794    3.8997 C   0  0  0  0  0  0  0  0  0  0  0  0
   -0.9133  -12.1473    3.2779 C   0  0  0  0  0  0  0  0  0  0  0  0
    0.2987  -12.7824    3.1616 C   0  0  0  0  0  0  0  0  0  0  0  0
    1.5101  -11.9583    3.3795 C   0  0  0  0  0  0  0  0  0  0  0  0
    1.3419  -10.6689    3.7040 C   0  0  0  0  0  0  0  0  0  0  0  0
    0.5183  -14.1552    2.9082 C   0  0  0  0  0  0  0  0  0  0  0  0
    0.5343  -14.6878    1.7330 C   0  0  1  0  0  0  0  0  0  0  0  0
    0.3745  -13.8935    0.7547 C   0  0  0  0  0  0  0  0  0  0  0  0
    0.8741  -15.9770    1.4839 C   0  0  0  0  0  0  0  0  0  0  0  0
    2.1034  -16.4047    2.0492 C   0  0  0  0  0  0  0  0  0  0  0  0
    1.0545   -4.4135    3.1598 C   0  0  0  0  0  0  0  0  0  0  0  0
    1.1169   -4.3532    1.8208 C   0  0  0  0  0  0  0  0  0  0  0  0
    1.1068   -5.4276    1.0360 C   0  0  0  0  0  0  0  0  0  0  0  0
    1.0905   -6.7082    1.6209 C   0  0  0  0  0  0  0  0  0  0  0  0
  1  2  1  0
  1  3  2  3
  3  4  1  0
  3  5  1  0
  9 12  1  0
 12 13  1  0
 13 14  1  6
 13 15  1  0
 15 16  1  0
  5  6  2  0
  6  8  1  0
  8  9  2  0
  9 10  1  0
 10 11  2  0
  5 11  1  0
  2  7  2  0
  7 17  1  0
 17 18  2  0
 18 19  1  0
 19 20  2  0
  2 20  1  0
M  END

$$$$
No_3227-/export/home/yangzhenyu/potential_scad_32_flow//YTHDC2/2024-12-06-03-22-00/
     RDKit          3D

 18 19  0  0  1  0  0  0  0  0999 V2000
    1.1787   -8.0297    3.5154 C   0  0  0  0  0  0  0  0  0  0  0  0
    1.1048   -9.2215    3.2892 C   0  0  0  0  0  0  0  0  0  0  0  0
    1.2339   -9.7611    2.0189 C   0  0  0  0  0  0  0  0  0  0  0  0
    1.3583   -9.0036    0.9764 C   0  0  0  0  0  0  0  0  0  0  0  0
    1.5996   -7.6362    1.1311 C   0  0  0  0  0  0  0  0  0  0  0  0
    1.4830   -7.0928    2.3626 C   0  0  0  0  0  0  0  0  0  0  0  0
    1.1008  -11.2372    1.8542 C   0  0  0  0  0  0  0  0  0  0  0  0
    0.5178  -11.9759    2.3445 C   0  0  0  0  0  0  0  0  0  0  0  0
    0.4575  -13.3705    2.1281 C   0  0  2  0  0  0  0  0  0  0  0  0
   -0.4455  -13.9844    1.5571 C   0  0  0  0  0  0  0  0  0  0  0  0
    1.5167  -14.2109    2.7556 C   0  0  0  0  0  0  0  0  0  0  0  0
    1.5780   -5.6523    2.6404 Cl  0  0  0  0  0  0  0  0  0  0  0  0
    1.4856  -15.6009    2.6271 C   0  0  0  0  0  0  0  0  0  0  0  0
    0.5867  -16.3275    3.4402 C   0  0  0  0  0  0  0  0  0  0  0  0
    0.5552  -17.6967    3.2929 C   0  0  0  0  0  0  0  0  0  0  0  0
    1.5663  -18.3223    2.5423 C   0  0  0  0  0  0  0  0  0  0  0  0
    2.4966  -17.5300    1.8173 C   0  0  0  0  0  0  0  0  0  0  0  0
    2.3927  -16.1954    1.8853 C   0  0  0  0  0  0  0  0  0  0  0  0
  3  7  1  0
  7  8  2  3
  8  9  1  0
  9 10  1  1
  9 11  1  0
  6 12  1  0
 11 13  1  0
  1  2  2  0
  2  3  1  0
  3  4  2  0
  4  5  1  0
  5  6  2  0
  1  6  1  0
 13 14  2  0
 14 15  1  0
 15 16  2  0
 16 17  1  0
 17 18  2  0
 13 18  1  0
M  END

$$$$
No_3228-/export/home/yangzhenyu/potential_scad_32_flow//YTHDC2/2024-12-06-03-22-00/
     RDKit          3D

 19 20  0  0  1  0  0  0  0  0999 V2000
    1.1787   -8.0297    3.5154 C   0  0  0  0  0  0  0  0  0  0  0  0
    1.1048   -9.2215    3.2892 C   0  0  0  0  0  0  0  0  0  0  0  0
    1.2339   -9.7611    2.0189 C   0  0  0  0  0  0  0  0  0  0  0  0
    1.3583   -9.0036    0.9764 C   0  0  0  0  0  0  0  0  0  0  0  0
    1.5996   -7.6362    1.1311 C   0  0  0  0  0  0  0  0  0  0  0  0
    1.4830   -7.0928    2.3626 C   0  0  0  0  0  0  0  0  0  0  0  0
    1.1008  -11.2372    1.8542 C   0  0  0  0  0  0  0  0  0  0  0  0
    0.5178  -11.9759    2.3445 C   0  0  0  0  0  0  0  0  0  0  0  0
    0.4575  -13.3705    2.1281 C   0  0  0  0  0  0  0  0  0  0  0  0
    1.1632  -14.1013    2.0451 C   0  0  0  0  0  0  0  0  0  0  0  0
    1.0401  -15.5542    1.9839 C   0  0  1  0  0  0  0  0  0  0  0  0
    2.1973  -16.4195    1.9322 C   0  0  0  0  0  0  0  0  0  0  0  0
    2.1459  -17.7142    2.1693 C   0  0  0  0  0  0  0  0  0  0  0  0
    0.8755  -18.2599    2.3797 C   0  0  0  0  0  0  0  0  0  0  0  0
   -0.2213  -17.5774    2.4325 C   0  0  0  0  0  0  0  0  0  0  0  0
   -0.1569  -16.1474    2.2609 C   0  0  0  0  0  0  0  0  0  0  0  0
    1.5753   -9.4538   -0.4679 Cl  0  0  0  0  0  0  0  0  0  0  0  0
    1.5170   -5.6225    2.5833 C   0  0  0  0  0  0  0  0  0  0  0  0
   -1.2806  -15.3765    2.3334 O   0  0  0  0  0  0  0  0  0  0  0  0
  3  7  1  0
  7  8  2  3
  8  9  1  0
  9 10  2  3
 10 11  1  0
 11 12  1  1
 13 14  1  0
 11 16  1  0
 15 16  1  0
  4 17  1  0
  6 18  1  0
 16 19  2  0
 12 13  1  0
 14 15  1  0
  1  2  2  0
  2  3  1  0
  3  4  2  0
  4  5  1  0
  5  6  2  0
  1  6  1  0
M  END

$$$$
No_3229-/export/home/yangzhenyu/potential_scad_32_flow//YTHDC2/2024-12-06-03-22-00/
     RDKit          3D

 19 20  0  0  0  0  0  0  0  0999 V2000
    1.1787   -8.0297    3.5154 C   0  0  0  0  0  0  0  0  0  0  0  0
    1.0491   -6.8434    2.9820 C   0  0  0  0  0  0  0  0  0  0  0  0
    0.9905   -9.0774    2.6527 C   0  0  0  0  0  0  0  0  0  0  0  0
    1.1655  -10.4663    3.1286 C   0  0  0  0  0  0  0  0  0  0  0  0
    1.2197  -11.4898    2.5831 C   0  0  0  0  0  0  0  0  0  0  0  0
    1.0589  -11.4458    1.1293 C   0  0  0  0  0  0  0  0  0  0  0  0
    0.9638  -10.3069    0.4651 C   0  0  0  0  0  0  0  0  0  0  0  0
    0.9191   -9.0789    1.1942 C   0  0  0  0  0  0  0  0  0  0  0  0
    0.9103   -7.8220    0.6974 C   0  0  0  0  0  0  0  0  0  0  0  0
    1.3276   -5.6490    3.6106 O   0  0  0  0  0  0  0  0  0  0  0  0
    1.0585   -6.6679    1.5055 C   0  0  0  0  0  0  0  0  0  0  0  0
    1.3558  -12.7948    3.0922 C   0  0  0  0  0  0  0  0  0  0  0  0
    0.2429  -13.7299    2.9226 C   0  0  0  0  0  0  0  0  0  0  0  0
    0.6230  -14.6826    2.1825 C   0  0  0  0  0  0  0  0  0  0  0  0
   -0.3385  -15.8155    2.1036 C   0  0  0  0  0  0  0  0  0  0  0  0
    0.1133  -17.0997    2.2161 C   0  0  0  0  0  0  0  0  0  0  0  0
    1.6440  -17.3171    2.4020 C   0  0  0  0  0  0  0  0  0  0  0  0
    2.1391  -18.6635    2.6187 C   0  0  0  0  0  0  0  0  0  0  0  0
    1.5646  -19.5953    2.7235 C   0  0  0  0  0  0  0  0  0  0  0  0
  2 10  1  0
  5 12  1  0
 12 13  1  0
 13 14  2  3
 14 15  1  0
 15 16  2  3
 16 17  1  0
 17 18  1  0
 18 19  2  0
  1  2  2  0
  2 11  1  0
  9 11  2  0
  8  9  1  0
  1  3  1  0
  3  4  2  0
  4  5  1  0
  5  6  2  0
  6  7  1  0
  7  8  2  0
  3  8  1  0
M  END

$$$$
No_3230-/export/home/yangzhenyu/potential_scad_32_flow//YTHDC2/2024-12-06-03-22-00/
     RDKit          3D

 18 19  0  0  1  0  0  0  0  0999 V2000
    1.1787   -8.0297    3.5154 C   0  0  0  0  0  0  0  0  0  0  0  0
    1.0491   -6.8434    2.9820 C   0  0  0  0  0  0  0  0  0  0  0  0
    0.9905   -9.0774    2.6527 C   0  0  1  0  0  0  0  0  0  0  0  0
    0.7897   -8.9519    1.3691 C   0  0  0  0  0  0  0  0  0  0  0  0
    0.6550  -10.0985    0.4848 C   0  0  0  0  0  0  0  0  0  0  0  0
    0.7849   -6.5836    1.6043 C   0  0  0  0  0  0  0  0  0  0  0  0
    0.6652   -7.6671    0.8008 C   0  0  0  0  0  0  0  0  0  0  0  0
    1.2441  -11.1828    0.5777 C   0  0  0  0  0  0  0  0  0  0  0  0
    0.7206  -12.4264    0.4105 O   0  0  0  0  0  0  0  0  0  0  0  0
    0.6055   -7.5000   -0.4709 O   0  0  0  0  0  0  0  0  0  0  0  0
    1.2266  -10.4500    3.2540 F   0  0  0  0  0  0  0  0  0  0  0  0
    0.4181  -13.1703    1.3956 C   0  0  0  0  0  0  0  0  0  0  0  0
    1.4844  -14.0210    1.9298 C   0  0  0  0  0  0  0  0  0  0  0  0
    1.2277  -15.2184    2.4951 C   0  0  0  0  0  0  0  0  0  0  0  0
   -0.1053  -15.4285    2.8416 C   0  0  0  0  0  0  0  0  0  0  0  0
   -1.0616  -14.5633    2.5102 C   0  0  0  0  0  0  0  0  0  0  0  0
   -0.7668  -13.4634    1.6965 C   0  0  0  0  0  0  0  0  0  0  0  0
   -1.8087  -12.5689    1.4141 C   0  0  0  0  0  0  0  0  0  0  0  0
  1  2  1  0
  3  4  1  0
  4  5  1  0
  4  7  1  0
  6  7  1  0
  5  8  2  3
  8  9  1  0
  7 10  2  0
  3 11  1  6
  9 12  1  0
 17 18  1  0
  1  3  1  0
  2  6  1  0
 12 13  2  0
 13 14  1  0
 14 15  2  0
 15 16  1  0
 16 17  2  0
 12 17  1  0
M  END

$$$$
No_3231-/export/home/yangzhenyu/potential_scad_32_flow//YTHDC2/2024-12-06-03-22-00/
     RDKit          3D

 19 20  0  0  1  0  0  0  0  0999 V2000
    1.1787   -8.0297    3.5154 O   0  0  0  0  0  0  0  0  0  0  0  0
    0.6747   -7.4019    2.7838 C   0  0  0  0  0  0  0  0  0  0  0  0
    0.7594   -8.0032    1.4295 C   0  0  0  0  0  0  0  0  0  0  0  0
    0.3459   -9.1500    1.3581 C   0  0  2  0  0  0  0  0  0  0  0  0
    1.1876  -10.0065    2.0240 C   0  0  0  0  0  0  0  0  0  0  0  0
    1.0116  -11.4692    2.0236 C   0  0  0  0  0  0  0  0  0  0  0  0
   -0.0235  -11.9049    1.1601 C   0  0  0  0  0  0  0  0  0  0  0  0
   -0.8196  -11.0789    0.3850 N   0  0  0  0  0  0  0  0  0  0  0  0
   -0.5817   -9.7261    0.4251 C   0  0  0  0  0  0  0  0  0  0  0  0
    1.7257  -12.2785    2.7699 C   0  0  0  0  0  0  0  0  0  0  0  0
    0.5427   -6.0865    2.9986 O   0  0  0  0  0  0  0  0  0  0  0  0
    1.8743  -13.6110    2.3411 C   0  0  0  0  0  0  0  0  0  0  0  0
    0.9162  -14.1384    1.5366 C   0  0  0  0  0  0  0  0  0  0  0  0
    0.0414  -13.2820    0.8870 C   0  0  0  0  0  0  0  0  0  0  0  0
   -1.3090   -8.9835   -0.3248 O   0  0  0  0  0  0  0  0  0  0  0  0
    0.8857  -15.4523    1.3307 C   0  0  0  0  0  0  0  0  0  0  0  0
    0.3255  -16.0613    0.3651 N   0  0  0  0  0  0  0  0  0  0  0  0
    1.6226  -16.3489    2.1272 O   0  0  0  0  0  0  0  0  0  0  0  0
    0.0809  -17.3445    0.1186 C   0  0  0  0  0  0  0  0  0  0  0  0
  1  2  1  0
  2  3  1  0
  4  3  1  6
  4  5  1  0
  5  6  1  0
  7  8  1  0
  4  9  1  0
  8  9  1  0
  2 11  2  0
  9 15  2  0
 13 16  1  0
 16 17  1  0
 16 18  2  0
 17 19  1  0
  6  7  2  0
  7 14  1  0
 13 14  2  0
 12 13  1  0
 10 12  2  0
  6 10  1  0
M  END

$$$$
No_3232-/export/home/yangzhenyu/potential_scad_32_flow//YTHDC2/2024-12-06-03-22-00/
     RDKit          3D

 19 20  0  0  1  0  0  0  0  0999 V2000
    1.1787   -8.0297    3.5154 C   0  0  0  0  0  0  0  0  0  0  0  0
    1.0491   -6.8434    2.9820 C   0  0  0  0  0  0  0  0  0  0  0  0
    0.9905   -9.0774    2.6527 C   0  0  0  0  0  0  0  0  0  0  0  0
    0.7897   -8.9519    1.3691 C   0  0  0  0  0  0  0  0  0  0  0  0
    0.7018   -7.7198    0.7892 C   0  0  0  0  0  0  0  0  0  0  0  0
    0.8918   -6.5957    1.6117 C   0  0  0  0  0  0  0  0  0  0  0  0
    1.0711  -10.4814    3.2282 C   0  0  2  0  0  0  0  0  0  0  0  0
    2.1432  -11.0138    3.5962 C   0  0  0  0  0  0  0  0  0  0  0  0
   -0.0553  -11.2345    3.2841 C   0  0  0  0  0  0  0  0  0  0  0  0
   -0.7563  -11.4623    2.5482 C   0  0  0  0  0  0  0  0  0  0  0  0
   -2.0734  -12.1021    2.5891 C   0  0  0  0  0  0  0  0  0  0  0  0
   -2.2420  -13.3169    2.3543 C   0  0  0  0  0  0  0  0  0  0  0  0
   -1.0997  -14.1100    1.8940 C   0  0  0  0  0  0  0  0  0  0  0  0
    0.0571  -13.3887    1.5347 C   0  0  0  0  0  0  0  0  0  0  0  0
    0.1926  -12.0914    1.7740 C   0  0  0  0  0  0  0  0  0  0  0  0
    0.8721   -5.0579    1.0425 C   0  0  0  0  0  0  0  0  0  0  0  0
    2.2099  -11.6078    4.9382 O   0  0  0  0  0  0  0  0  0  0  0  0
    0.1737   -4.2033    1.9634 F   0  0  0  0  0  0  0  0  0  0  0  0
    2.0732   -4.5838    1.0044 F   0  0  0  0  0  0  0  0  0  0  0  0
  3  7  1  0
  7  8  1  0
  7  9  1  6
  6 16  1  0
  8 17  2  0
 16 18  1  0
 16 19  1  0
  9 10  1  0
  1  2  2  0
  2  6  1  0
  5  6  2  0
  4  5  1  0
  3  4  2  0
  1  3  1  0
 10 11  2  0
 11 12  1  0
 12 13  2  0
 13 14  1  0
 14 15  2  0
 10 15  1  0
M  END

$$$$
No_3233-/export/home/yangzhenyu/potential_scad_32_flow//YTHDC2/2024-12-06-03-22-00/
     RDKit          3D

 19 20  0  0  0  0  0  0  0  0999 V2000
    1.1787   -8.0297    3.5154 C   0  0  0  0  0  0  0  0  0  0  0  0
    1.1048   -9.2215    3.2892 C   0  0  0  0  0  0  0  0  0  0  0  0
    1.2339   -9.7611    2.0189 C   0  0  0  0  0  0  0  0  0  0  0  0
    1.3583   -9.0036    0.9764 C   0  0  0  0  0  0  0  0  0  0  0  0
    1.5996   -7.6362    1.1311 C   0  0  0  0  0  0  0  0  0  0  0  0
    1.4830   -7.0928    2.3626 C   0  0  0  0  0  0  0  0  0  0  0  0
    1.4898   -5.7274    2.6199 C   0  0  0  0  0  0  0  0  0  0  0  0
    1.1882  -11.3736    1.8424 C   0  0  0  0  0  0  0  0  0  0  0  0
    0.2883  -11.9819    2.0702 N   0  0  0  0  0  0  0  0  0  0  0  0
    0.3843  -13.3336    2.3223 C   0  0  0  0  0  0  0  0  0  0  0  0
   -0.5936  -14.2373    2.1900 C   0  0  0  0  0  0  0  0  0  0  0  0
   -0.3313  -15.6674    2.6072 C   0  0  0  0  0  0  0  0  0  0  0  0
    0.8718  -16.0964    2.9360 C   0  0  0  0  0  0  0  0  0  0  0  0
    1.9715  -15.1308    2.9412 C   0  0  0  0  0  0  0  0  0  0  0  0
    1.7686  -13.8178    2.6480 C   0  0  0  0  0  0  0  0  0  0  0  0
    1.2418   -4.8648    1.6171 O   0  0  0  0  0  0  0  0  0  0  0  0
    2.0603   -5.0732    3.6901 O   0  0  0  0  0  0  0  0  0  0  0  0
    2.3060  -11.7472    1.0755 O   0  0  0  0  0  0  0  0  0  0  0  0
    1.1861  -17.3873    3.3038 O   0  0  0  0  0  0  0  0  0  0  0  0
  6  7  1  0
  3  8  1  0
  8  9  1  0
  9 10  1  0
  7 16  2  0
  7 17  1  0
  8 18  2  0
 13 19  1  0
  1  2  2  0
  2  3  1  0
  3  4  2  0
  4  5  1  0
  5  6  2  0
  1  6  1  0
 10 11  2  0
 11 12  1  0
 12 13  2  0
 13 14  1  0
 14 15  2  0
 10 15  1  0
M  END

$$$$
No_3234-/export/home/yangzhenyu/potential_scad_32_flow//YTHDC2/2024-12-06-03-22-00/
     RDKit          3D

 18 18  0  0  1  0  0  0  0  0999 V2000
    1.1787   -8.0297    3.5154 C   0  0  0  0  0  0  0  0  0  0  0  0
    1.0491   -6.8434    2.9820 C   0  0  0  0  0  0  0  0  0  0  0  0
    0.9905   -9.0774    2.6527 C   0  0  0  0  0  0  0  0  0  0  0  0
    0.7897   -8.9519    1.3691 C   0  0  0  0  0  0  0  0  0  0  0  0
    0.7018   -7.7198    0.7892 C   0  0  0  0  0  0  0  0  0  0  0  0
    0.8918   -6.5957    1.6117 C   0  0  0  0  0  0  0  0  0  0  0  0
    1.0998  -10.4710    3.2437 C   0  0  0  0  0  0  0  0  0  0  0  0
    1.3102  -11.5554    2.5214 C   0  0  0  0  0  0  0  0  0  0  0  0
    1.4257  -12.8124    3.1919 C   0  0  0  0  0  0  0  0  0  0  0  0
    1.4301  -14.0627    2.4374 C   0  0  1  0  0  0  0  0  0  0  0  0
    0.8588   -5.2558    1.2463 C   0  0  0  0  0  0  0  0  0  0  0  0
    2.4123  -14.2023    1.4711 C   0  0  0  0  0  0  0  0  0  0  0  0
    1.6034  -15.2824    3.4057 C   0  0  0  0  0  0  0  0  0  0  0  0
    1.5355   -4.3455    1.9115 O   0  0  0  0  0  0  0  0  0  0  0  0
    0.2163   -4.9019    0.2986 O   0  0  0  0  0  0  0  0  0  0  0  0
    0.9559  -16.4853    2.7489 C   0  0  0  0  0  0  0  0  0  0  0  0
   -0.3351  -16.2992    2.4128 C   0  0  0  0  0  0  0  0  0  0  0  0
   -0.7564  -17.2052    2.1264 C   0  0  0  0  0  0  0  0  0  0  0  0
  3  7  1  0
  7  8  2  3
  8  9  1  0
  9 10  1  0
  6 11  1  0
 10 12  1  6
 10 13  1  0
 11 14  1  0
 11 15  2  0
 13 16  1  0
 16 17  1  0
 17 18  2  0
  1  2  2  0
  2  6  1  0
  5  6  2  0
  4  5  1  0
  3  4  2  0
  1  3  1  0
M  END

$$$$
No_3235-/export/home/yangzhenyu/potential_scad_32_flow//YTHDC2/2024-12-06-03-22-00/
     RDKit          3D

 19 21  0  0  0  0  0  0  0  0999 V2000
    1.1787   -8.0297    3.5154 C   0  0  0  0  0  0  0  0  0  0  0  0
    1.1048   -9.2215    3.2892 C   0  0  0  0  0  0  0  0  0  0  0  0
    1.3627  -10.1721    4.3044 C   0  0  0  0  0  0  0  0  0  0  0  0
    1.0682  -11.5187    4.0618 C   0  0  0  0  0  0  0  0  0  0  0  0
    0.6332  -11.9655    2.9682 C   0  0  0  0  0  0  0  0  0  0  0  0
    0.4776  -11.1308    1.9203 C   0  0  0  0  0  0  0  0  0  0  0  0
    0.7470   -9.8274    2.0368 C   0  0  0  0  0  0  0  0  0  0  0  0
    1.0387   -7.0301    2.5175 C   0  0  0  0  0  0  0  0  0  0  0  0
    0.9130   -7.5288    1.2013 C   0  0  0  0  0  0  0  0  0  0  0  0
    0.7893   -8.7979    0.9542 C   0  0  0  0  0  0  0  0  0  0  0  0
    0.5241   -9.2578   -0.2817 C   0  0  0  0  0  0  0  0  0  0  0  0
   -0.1121   -8.6523   -1.0898 O   0  0  0  0  0  0  0  0  0  0  0  0
    0.4743  -13.6037    2.6713 C   0  0  0  0  0  0  0  0  0  0  0  0
   -0.6793  -14.0058    2.4134 N   0  0  0  0  0  0  0  0  0  0  0  0
    1.5813  -14.3267    2.6872 C   0  0  0  0  0  0  0  0  0  0  0  0
    1.3108  -15.6361    2.5467 C   0  0  0  0  0  0  0  0  0  0  0  0
   -0.2980  -15.4236    2.4760 C   0  0  0  0  0  0  0  0  0  0  0  0
    1.1060  -10.2366   -0.7942 O   0  0  0  0  0  0  0  0  0  0  0  0
    1.2745   -5.5984    2.7233 O   0  0  0  0  0  0  0  0  0  0  0  0
 10 11  1  0
 11 12  2  0
  5 13  1  0
 13 14  1  0
 13 15  1  0
 15 16  2  0
 14 17  1  0
 16 17  1  0
 11 18  1  0
  8 19  1  0
  2  3  1  0
  3  4  2  0
  4  5  1  0
  5  6  2  0
  6  7  1  0
  1  2  2  0
  2  7  1  0
  7 10  2  0
  9 10  1  0
  8  9  2  0
  1  8  1  0
M  END

$$$$
No_3236-/export/home/yangzhenyu/potential_scad_32_flow//YTHDC2/2024-12-06-03-22-00/
     RDKit          3D

 19 21  0  0  0  0  0  0  0  0999 V2000
    1.1787   -8.0297    3.5154 C   0  0  0  0  0  0  0  0  0  0  0  0
    1.1048   -9.2215    3.2892 C   0  0  0  0  0  0  0  0  0  0  0  0
    1.0239   -9.7790    2.0239 C   0  0  0  0  0  0  0  0  0  0  0  0
    1.1393   -9.0211    0.9686 C   0  0  0  0  0  0  0  0  0  0  0  0
    1.4051   -7.6500    1.1251 C   0  0  0  0  0  0  0  0  0  0  0  0
    1.4868   -7.1041    2.3534 C   0  0  0  0  0  0  0  0  0  0  0  0
    1.5885   -5.7190    2.5687 C   0  0  0  0  0  0  0  0  0  0  0  0
    0.8747  -11.3633    1.9261 C   0  0  0  0  0  0  0  0  0  0  0  0
    1.9162  -12.0696    2.0413 C   0  0  0  0  0  0  0  0  0  0  0  0
    1.7002  -13.4702    1.8846 C   0  0  0  0  0  0  0  0  0  0  0  0
    0.5694  -13.9782    1.6667 C   0  0  0  0  0  0  0  0  0  0  0  0
   -0.5565  -13.2595    1.6468 C   0  0  0  0  0  0  0  0  0  0  0  0
   -0.3741  -11.8329    1.7108 C   0  0  0  0  0  0  0  0  0  0  0  0
   -1.5042  -11.0185    1.5046 C   0  0  0  0  0  0  0  0  0  0  0  0
   -2.6329  -11.4206    1.4306 C   0  0  0  0  0  0  0  0  0  0  0  0
   -3.6581  -10.7929    1.5868 S   0  0  0  0  0  0  0  0  0  0  0  0
   -3.3389   -9.3042    1.4773 C   0  0  0  0  0  0  0  0  0  0  0  0
   -1.7629   -9.5419    1.4425 C   0  0  0  0  0  0  0  0  0  0  0  0
   -4.5444  -10.8655    2.9825 O   0  0  0  0  0  0  0  0  0  0  0  0
  6  7  1  0
  3  8  1  0
 13 14  1  0
 14 15  2  0
 15 16  1  0
 16 17  1  1
 14 18  1  0
 17 18  1  0
 16 19  2  0
  1  2  2  0
  2  3  1  0
  3  4  2  0
  4  5  1  0
  5  6  2  0
  1  6  1  0
  8  9  2  0
  9 10  1  0
 10 11  2  0
 11 12  1  0
 12 13  2  0
  8 13  1  0
M  END

$$$$
No_3237-/export/home/yangzhenyu/potential_scad_32_flow//YTHDC2/2024-12-06-03-22-00/
     RDKit          3D

 18 18  0  0  0  0  0  0  0  0999 V2000
    1.1787   -8.0297    3.5154 C   0  0  0  0  0  0  0  0  0  0  0  0
    1.1048   -9.2215    3.2892 C   0  0  0  0  0  0  0  0  0  0  0  0
    1.2339   -9.7611    2.0189 C   0  0  0  0  0  0  0  0  0  0  0  0
    1.3583   -9.0036    0.9764 C   0  0  0  0  0  0  0  0  0  0  0  0
    1.5996   -7.6362    1.1311 C   0  0  0  0  0  0  0  0  0  0  0  0
    1.4830   -7.0928    2.3626 C   0  0  0  0  0  0  0  0  0  0  0  0
    1.1008  -11.2372    1.8542 C   0  0  0  0  0  0  0  0  0  0  0  0
    0.5178  -11.9759    2.3445 C   0  0  0  0  0  0  0  0  0  0  0  0
    0.4575  -13.3705    2.1281 C   0  0  0  0  0  0  0  0  0  0  0  0
    1.1632  -14.1013    2.0451 C   0  0  0  0  0  0  0  0  0  0  0  0
    2.4646  -13.5566    1.4445 C   0  0  0  0  0  0  0  0  0  0  0  0
    1.2467  -15.5603    2.2927 C   0  0  0  0  0  0  0  0  0  0  0  0
    0.3854  -15.9779    3.1650 N   0  0  0  0  0  0  0  0  0  0  0  0
    2.3897  -16.3224    2.2204 O   0  0  0  0  0  0  0  0  0  0  0  0
    1.5541   -5.6561    2.6294 F   0  0  0  0  0  0  0  0  0  0  0  0
    0.3697  -17.3578    3.7210 C   0  0  0  0  0  0  0  0  0  0  0  0
    0.7813  -17.2798    4.9415 C   0  0  0  0  0  0  0  0  0  0  0  0
    1.5223   -9.3911   -0.3649 C   0  0  0  0  0  0  0  0  0  0  0  0
  3  7  1  0
  7  8  2  3
  8  9  1  0
  9 10  2  3
 10 11  1  0
 10 12  1  0
 12 13  1  0
 12 14  2  0
  6 15  1  0
 13 16  1  0
 16 17  1  0
  4 18  1  0
  1  2  2  0
  2  3  1  0
  3  4  2  0
  4  5  1  0
  5  6  2  0
  1  6  1  0
M  END

$$$$
No_3238-/export/home/yangzhenyu/potential_scad_32_flow//YTHDC2/2024-12-06-03-22-00/
     RDKit          3D

 18 20  0  0  0  0  0  0  0  0999 V2000
    1.1787   -8.0297    3.5154 C   0  0  0  0  0  0  0  0  0  0  0  0
    1.1048   -9.2215    3.2892 C   0  0  0  0  0  0  0  0  0  0  0  0
    1.3627  -10.1721    4.3044 C   0  0  0  0  0  0  0  0  0  0  0  0
    1.0682  -11.5187    4.0618 C   0  0  0  0  0  0  0  0  0  0  0  0
    0.6332  -11.9655    2.9682 C   0  0  0  0  0  0  0  0  0  0  0  0
    0.4776  -11.1308    1.9203 C   0  0  0  0  0  0  0  0  0  0  0  0
    0.7470   -9.8274    2.0368 C   0  0  0  0  0  0  0  0  0  0  0  0
    1.0387   -7.0301    2.5175 C   0  0  0  0  0  0  0  0  0  0  0  0
    0.9130   -7.5288    1.2013 C   0  0  0  0  0  0  0  0  0  0  0  0
    0.7893   -8.7979    0.9542 C   0  0  0  0  0  0  0  0  0  0  0  0
    0.3851  -13.5918    2.7030 C   0  0  0  0  0  0  0  0  0  0  0  0
    1.4499  -14.3811    3.1650 C   0  0  0  0  0  0  0  0  0  0  0  0
    1.1475  -15.7469    2.9869 C   0  0  0  0  0  0  0  0  0  0  0  0
    0.2349  -16.1991    2.2855 C   0  0  0  0  0  0  0  0  0  0  0  0
   -0.6528  -15.3439    1.7176 C   0  0  0  0  0  0  0  0  0  0  0  0
   -0.4565  -13.9930    1.8980 C   0  0  0  0  0  0  0  0  0  0  0  0
    0.4371   -9.2776   -0.3621 C   0  0  0  0  0  0  0  0  0  0  0  0
    1.2107   -9.2801   -1.2523 O   0  0  0  0  0  0  0  0  0  0  0  0
  5 11  1  0
 10 17  1  0
 17 18  2  0
 11 12  2  0
 12 13  1  0
 13 14  2  0
 14 15  1  0
 15 16  2  0
 11 16  1  0
  2  3  1  0
  3  4  2  0
  4  5  1  0
  5  6  2  0
  6  7  1  0
  1  2  2  0
  2  7  1  0
  7 10  2  0
  9 10  1  0
  8  9  2  0
  1  8  1  0
M  END

$$$$
No_3239-/export/home/yangzhenyu/potential_scad_32_flow//YTHDC2/2024-12-06-03-22-00/
     RDKit          3D

 19 21  0  0  1  0  0  0  0  0999 V2000
    1.1787   -8.0297    3.5154 N   0  0  0  0  0  0  0  0  0  0  0  0
    1.0818   -9.0751    3.2053 C   0  0  0  0  0  0  0  0  0  0  0  0
    0.7576   -9.3725    1.9159 C   0  0  0  0  0  0  0  0  0  0  0  0
    0.7445  -10.8746    1.6491 C   0  0  0  0  0  0  0  0  0  0  0  0
    0.9910  -11.7526    2.6067 C   0  0  0  0  0  0  0  0  0  0  0  0
    1.4405  -11.4331    3.8064 C   0  0  0  0  0  0  0  0  0  0  0  0
    1.4304  -10.0463    4.1669 C   0  0  0  0  0  0  0  0  0  0  0  0
    1.1357   -6.7948    2.7839 C   0  0  0  0  0  0  0  0  0  0  0  0
    1.2410   -7.1363    1.3557 C   0  0  0  0  0  0  0  0  0  0  0  0
    1.0598   -8.4294    0.9501 C   0  0  0  0  0  0  0  0  0  0  0  0
    0.8804  -13.1756    2.2212 C   0  0  1  0  0  0  0  0  0  0  0  0
    1.8966  -13.9548    2.2725 C   0  0  0  0  0  0  0  0  0  0  0  0
    1.6562  -15.3647    2.3285 C   0  0  0  0  0  0  0  0  0  0  0  0
    0.3917  -15.8100    2.3464 C   0  0  0  0  0  0  0  0  0  0  0  0
   -0.6767  -15.0004    2.4906 C   0  0  0  0  0  0  0  0  0  0  0  0
   -0.4278  -13.6500    2.4537 C   0  0  0  0  0  0  0  0  0  0  0  0
    1.4565   -5.5202    3.2494 C   0  0  0  0  0  0  0  0  0  0  0  0
   -1.4924  -12.8482    2.5968 O   0  0  0  0  0  0  0  0  0  0  0  0
    0.8287   -8.6557   -0.5411 C   0  0  0  0  0  0  0  0  0  0  0  0
 11  5  1  1
 11 12  1  0
 13 14  1  0
 11 16  1  0
 15 16  1  0
  8 17  1  0
 16 18  2  0
 10 19  1  0
 12 13  1  0
 14 15  1  0
  3  4  1  0
  4  5  2  0
  5  6  1  0
  6  7  2  0
  2  7  1  0
  1  2  2  0
  2  3  1  0
  3 10  2  0
  9 10  1  0
  8  9  2  0
  1  8  1  0
M  END

$$$$
No_3240-/export/home/yangzhenyu/potential_scad_32_flow//YTHDC2/2024-12-06-03-22-00/
     RDKit          3D

 17 17  0  0  1  0  0  0  0  0999 V2000
    1.1787   -8.0297    3.5154 C   0  0  0  0  0  0  0  0  0  0  0  0
    1.1048   -9.2215    3.2892 C   0  0  0  0  0  0  0  0  0  0  0  0
    1.2339   -9.7611    2.0189 C   0  0  0  0  0  0  0  0  0  0  0  0
    1.3583   -9.0036    0.9764 C   0  0  0  0  0  0  0  0  0  0  0  0
    1.5996   -7.6362    1.1311 C   0  0  0  0  0  0  0  0  0  0  0  0
    1.4830   -7.0928    2.3626 C   0  0  0  0  0  0  0  0  0  0  0  0
    1.5395   -5.7300    2.6182 C   0  0  0  0  0  0  0  0  0  0  0  0
    1.1969  -11.3760    1.8433 C   0  0  0  0  0  0  0  0  0  0  0  0
    1.0771  -11.6644    0.5388 O   0  0  0  0  0  0  0  0  0  0  0  0
    1.8156  -12.0496    2.6758 N   0  0  0  0  0  0  0  0  0  0  0  0
    1.7794  -13.4327    2.5814 C   0  0  2  0  0  0  0  0  0  0  0  0
    2.4662  -14.0971    1.6563 C   0  0  0  0  0  0  0  0  0  0  0  0
    0.3223  -13.9746    2.6777 C   0  0  0  0  0  0  0  0  0  0  0  0
    0.2747  -15.3656    2.7574 C   0  0  0  0  0  0  0  0  0  0  0  0
    1.3820  -16.0879    3.3350 O   0  0  0  0  0  0  0  0  0  0  0  0
    1.2739   -4.8036    1.7037 C   0  0  0  0  0  0  0  0  0  0  0  0
    1.2241   -3.3796    1.9441 O   0  0  0  0  0  0  0  0  0  0  0  0
  6  7  1  0
  3  8  1  0
  8  9  2  0
  8 10  1  0
 10 11  1  0
 11 12  1  6
 11 13  1  0
 13 14  1  0
 14 15  1  0
  7 16  2  3
 16 17  1  0
  1  2  2  0
  2  3  1  0
  3  4  2  0
  4  5  1  0
  5  6  2  0
  1  6  1  0
M  END

$$$$
No_3241-/export/home/yangzhenyu/potential_scad_32_flow//YTHDC2/2024-12-06-03-22-00/
     RDKit          3D

 19 20  0  0  1  0  0  0  0  0999 V2000
    1.1787   -8.0297    3.5154 C   0  0  0  0  0  0  0  0  0  0  0  0
    1.1048   -9.2215    3.2892 C   0  0  0  0  0  0  0  0  0  0  0  0
    1.2339   -9.7611    2.0189 C   0  0  0  0  0  0  0  0  0  0  0  0
    1.1954  -11.2312    1.8661 C   0  0  0  0  0  0  0  0  0  0  0  0
    1.5546  -12.1691    2.7931 C   0  0  0  0  0  0  0  0  0  0  0  0
    0.5849   -7.0929    2.5729 C   0  0  0  0  0  0  0  0  0  0  0  0
    0.5567   -7.6699    1.1955 C   0  0  0  0  0  0  0  0  0  0  0  0
    0.7903   -8.9699    0.9209 C   0  0  0  0  0  0  0  0  0  0  0  0
    1.5479  -13.4950    2.3568 C   0  0  0  0  0  0  0  0  0  0  0  0
    1.2456  -13.9001    1.1648 C   0  0  0  0  0  0  0  0  0  0  0  0
    1.0233  -13.0589    0.1983 C   0  0  0  0  0  0  0  0  0  0  0  0
    0.9548  -11.6626    0.4956 C   0  0  0  0  0  0  0  0  0  0  0  0
    0.6143   -5.6362    2.6298 Cl  0  0  0  0  0  0  0  0  0  0  0  0
    1.9607  -14.4073    3.4089 P   0  0  2  0  0  0  0  0  0  0  0  0
    1.7308  -15.8974    2.6377 O   0  0  0  0  0  0  0  0  0  0  0  0
    0.7816  -14.4523    4.4778 O   0  0  0  0  0  0  0  0  0  0  0  0
    0.5969   -9.4112   -0.3372 F   0  0  0  0  0  0  0  0  0  0  0  0
    0.2509   -6.7635    0.0463 C   0  0  0  0  0  0  0  0  0  0  0  0
   -0.9392   -7.1999   -0.4653 Cl  0  0  0  0  0  0  0  0  0  0  0  0
  3  4  1  0
  6 13  1  0
  9 14  1  0
 14 15  2  0
 14 16  1  1
  8 17  1  0
  7 18  1  0
 18 19  1  0
  1  2  2  0
  2  3  1  0
  3  8  2  0
  7  8  1  0
  6  7  2  0
  1  6  1  0
  4  5  2  0
  5  9  1  0
  9 10  2  0
 10 11  1  0
 11 12  2  0
  4 12  1  0
M  END

$$$$
No_3242-/export/home/yangzhenyu/potential_scad_32_flow//YTHDC2/2024-12-06-03-22-00/
     RDKit          3D

 17 18  0  0  1  0  0  0  0  0999 V2000
    1.1787   -8.0297    3.5154 C   0  0  0  0  0  0  0  0  0  0  0  0
    1.0491   -6.8434    2.9820 C   0  0  0  0  0  0  0  0  0  0  0  0
    0.9905   -9.0774    2.6527 C   0  0  0  0  0  0  0  0  0  0  0  0
    0.7897   -8.9519    1.3691 C   0  0  0  0  0  0  0  0  0  0  0  0
    0.7018   -7.7198    0.7892 N   0  0  0  0  0  0  0  0  0  0  0  0
    0.8792   -6.6462    1.5874 C   0  0  0  0  0  0  0  0  0  0  0  0
    0.8354  -10.6093    3.3920 S   0  0  0  0  0  0  0  0  0  0  0  0
    1.1662  -11.6899    2.1630 C   0  0  2  0  0  0  0  0  0  0  0  0
    0.9778  -11.3864    0.9503 C   0  0  0  0  0  0  0  0  0  0  0  0
    1.1627  -10.0238    0.4470 C   0  0  0  0  0  0  0  0  0  0  0  0
    1.5065  -13.0248    2.6081 C   0  0  0  0  0  0  0  0  0  0  0  0
    1.0693  -13.5929    3.4049 C   0  0  0  0  0  0  0  0  0  0  0  0
    1.6934  -10.7554    4.5725 O   0  0  0  0  0  0  0  0  0  0  0  0
   -0.5889  -10.7055    3.7958 O   0  0  0  0  0  0  0  0  0  0  0  0
    1.3170  -15.1477    3.3071 C   0  0  0  0  0  0  0  0  0  0  0  0
    1.8684  -15.6469    2.2438 C   0  0  0  0  0  0  0  0  0  0  0  0
    2.5068  -14.8289    1.2712 C   0  0  0  0  0  0  0  0  0  0  0  0
  3  7  1  0
  7  8  1  0
  8  9  1  0
  4 10  1  0
  9 10  1  0
  8 11  1  1
 11 12  1  0
  7 13  2  0
  7 14  2  0
 12 15  2  3
 15 16  1  0
 16 17  2  0
  1  2  2  0
  2  6  1  0
  5  6  2  0
  4  5  1  0
  3  4  2  0
  1  3  1  0
M  END

$$$$
No_3243-/export/home/yangzhenyu/potential_scad_32_flow//YTHDC2/2024-12-06-03-22-00/
     RDKit          3D

 17 18  0  0  1  0  0  0  0  0999 V2000
    1.1787   -8.0297    3.5154 N   0  0  0  0  0  0  0  0  0  0  0  0
    0.8669   -7.0905    2.8589 C   0  0  0  0  0  0  0  0  0  0  0  0
    1.0447   -7.3244    1.4123 C   0  0  0  0  0  0  0  0  0  0  0  0
    1.3746   -8.4389    1.0864 C   0  0  2  0  0  0  0  0  0  0  0  0
    1.6686   -9.1952    2.5608 C   0  0  2  0  0  0  0  0  0  0  0  0
    1.9879  -10.3617    2.7281 C   0  0  0  0  0  0  0  0  0  0  0  0
    1.6558   -9.1219    0.0446 C   0  0  0  0  0  0  0  0  0  0  0  0
    2.3486   -8.6250   -0.9495 O   0  0  0  0  0  0  0  0  0  0  0  0
    1.0672  -10.2726   -0.2321 O   0  0  0  0  0  0  0  0  0  0  0  0
    2.0095  -11.2985    1.9344 N   0  0  0  0  0  0  0  0  0  0  0  0
    2.4014  -10.6867    4.0294 O   0  0  0  0  0  0  0  0  0  0  0  0
    2.0201  -12.6739    2.2673 C   0  0  0  0  0  0  0  0  0  0  0  0
    2.2628  -13.6771    1.2432 C   0  0  0  0  0  0  0  0  0  0  0  0
    2.3010  -14.9717    1.6418 C   0  0  0  0  0  0  0  0  0  0  0  0
    1.9620  -15.3346    3.0238 C   0  0  0  0  0  0  0  0  0  0  0  0
    1.5816  -14.4128    3.8372 C   0  0  0  0  0  0  0  0  0  0  0  0
    1.5197  -13.1229    3.4913 C   0  0  0  0  0  0  0  0  0  0  0  0
  1  2  1  0
  2  3  2  0
  3  4  1  0
  1  5  1  0
  4  5  1  0
  5  6  1  6
  4  7  1  6
  7  8  2  0
  7  9  1  0
  6 10  1  0
  6 11  2  0
 10 12  1  0
 12 13  2  0
 13 14  1  0
 14 15  2  0
 15 16  1  0
 16 17  2  0
 12 17  1  0
M  END

$$$$
No_3244-/export/home/yangzhenyu/potential_scad_32_flow//YTHDC2/2024-12-06-03-22-00/
     RDKit          3D

 18 19  0  0  1  0  0  0  0  0999 V2000
    1.1787   -8.0297    3.5154 C   0  0  0  0  0  0  0  0  0  0  0  0
    1.0491   -6.8434    2.9820 C   0  0  0  0  0  0  0  0  0  0  0  0
    0.9905   -9.0774    2.6527 C   0  0  0  0  0  0  0  0  0  0  0  0
    0.9687   -8.6883    1.3634 C   0  0  0  0  0  0  0  0  0  0  0  0
    1.0948   -6.3768    1.7686 C   0  0  0  0  0  0  0  0  0  0  0  0
    0.9504   -7.3975    0.8471 C   0  0  0  0  0  0  0  0  0  0  0  0
    1.0365  -10.4250    2.9992 C   0  0  0  0  0  0  0  0  0  0  0  0
    1.2082  -11.3465    2.2077 C   0  0  0  0  0  0  0  0  0  0  0  0
    1.2890  -12.8206    2.7089 C   0  0  2  0  0  0  0  0  0  0  0  0
    2.1068  -13.4850    3.2171 S   0  0  0  0  0  0  0  0  0  0  0  0
    2.3595  -14.8929    2.3766 C   0  0  0  0  0  0  0  0  0  0  0  0
    1.4590  -15.2176    1.6288 C   0  0  0  0  0  0  0  0  0  0  0  0
    0.4844  -14.4241    1.2357 C   0  0  0  0  0  0  0  0  0  0  0  0
    0.2746  -13.2389    1.7428 C   0  0  0  0  0  0  0  0  0  0  0  0
    1.0638   -5.0573    1.3173 Cl  0  0  0  0  0  0  0  0  0  0  0  0
   -0.9177  -12.5866    1.4629 N   0  0  0  0  0  0  0  0  0  0  0  0
   -1.8025  -13.1829    0.6743 N   0  0  0  0  0  0  0  0  0  0  0  0
   -1.9088  -13.1146   -0.5017 O   0  0  0  0  0  0  0  0  0  0  0  0
  3  7  1  0
  7  8  2  3
  8  9  1  0
  9 10  1  6
 10 11  1  0
 11 12  1  0
 12 13  2  0
  9 14  1  0
 13 14  1  0
  5 15  1  0
 14 16  2  3
 16 17  1  0
 17 18  2  0
  1  2  2  0
  2  5  1  0
  5  6  2  0
  4  6  1  0
  3  4  2  0
  1  3  1  0
M  END

$$$$
No_3245-/export/home/yangzhenyu/potential_scad_32_flow//YTHDC2/2024-12-06-03-22-00/
     RDKit          3D

 17 17  0  0  1  0  0  0  0  0999 V2000
    1.1787   -8.0297    3.5154 C   0  0  0  0  0  0  0  0  0  0  0  0
    1.1048   -9.2215    3.2892 C   0  0  0  0  0  0  0  0  0  0  0  0
    1.2339   -9.7611    2.0189 C   0  0  0  0  0  0  0  0  0  0  0  0
    1.1954  -11.2312    1.8661 C   0  0  2  0  0  0  0  0  0  0  0  0
    1.2996  -11.5815    0.5387 C   0  0  0  0  0  0  0  0  0  0  0  0
    1.3263   -7.1208    2.3229 C   0  0  0  0  0  0  0  0  0  0  0  0
    1.3693   -7.6408    1.0625 C   0  0  0  0  0  0  0  0  0  0  0  0
    1.4358   -8.9950    0.8622 C   0  0  0  0  0  0  0  0  0  0  0  0
    0.9078  -11.9576    2.8785 C   0  0  0  0  0  0  0  0  0  0  0  0
    1.1744  -13.3847    2.6330 C   0  0  0  0  0  0  0  0  0  0  0  0
    0.1145  -14.1344    2.3264 C   0  0  0  0  0  0  0  0  0  0  0  0
    0.2501  -15.5401    2.3303 O   0  0  0  0  0  0  0  0  0  0  0  0
   -0.9988  -13.7549    1.9868 O   0  0  0  0  0  0  0  0  0  0  0  0
    1.3619   -5.4664    2.6259 Cl  0  0  0  0  0  0  0  0  0  0  0  0
    2.2724  -12.0732    0.0579 O   0  0  0  0  0  0  0  0  0  0  0  0
    0.1307  -11.6232   -0.1957 O   0  0  0  0  0  0  0  0  0  0  0  0
    2.3241  -13.9270    3.0660 O   0  0  0  0  0  0  0  0  0  0  0  0
  3  4  1  0
  4  5  1  0
  4  9  1  6
  9 10  1  0
 10 11  1  0
 11 12  2  0
 11 13  1  0
  6 14  1  0
  5 15  2  0
  5 16  1  0
 10 17  2  0
  1  2  2  0
  2  3  1  0
  3  8  2  0
  7  8  1  0
  6  7  2  0
  1  6  1  0
M  END

$$$$
No_3246-/export/home/yangzhenyu/potential_scad_32_flow//YTHDC2/2024-12-06-03-22-00/
     RDKit          3D

 18 18  0  0  0  0  0  0  0  0999 V2000
    1.1787   -8.0297    3.5154 C   0  0  0  0  0  0  0  0  0  0  0  0
    1.0491   -6.8434    2.9820 C   0  0  0  0  0  0  0  0  0  0  0  0
    1.9985   -8.9840    2.8958 C   0  0  0  0  0  0  0  0  0  0  0  0
    1.1815  -10.1889    2.5497 C   0  0  0  0  0  0  0  0  0  0  0  0
    0.3496  -10.1352    1.6536 C   0  0  0  0  0  0  0  0  0  0  0  0
   -0.4562  -11.3268    1.4138 C   0  0  0  0  0  0  0  0  0  0  0  0
   -0.1835  -12.2742    1.6376 C   0  0  0  0  0  0  0  0  0  0  0  0
    1.0469  -12.6500    2.5364 C   0  0  0  0  0  0  0  0  0  0  0  0
    1.6544  -11.4674    3.0803 C   0  0  0  0  0  0  0  0  0  0  0  0
    1.3484   -6.4719    1.8487 C   0  0  0  0  0  0  0  0  0  0  0  0
    1.0995   -5.0987    1.4183 C   0  0  0  0  0  0  0  0  0  0  0  0
    1.7376  -13.7233    2.4154 C   0  0  0  0  0  0  0  0  0  0  0  0
    1.4018  -14.7894    3.2858 O   0  0  0  0  0  0  0  0  0  0  0  0
    2.6536  -14.1420    1.6836 O   0  0  0  0  0  0  0  0  0  0  0  0
    0.4900   -4.2130    2.2566 C   0  0  0  0  0  0  0  0  0  0  0  0
    0.1932   -2.8573    1.8154 C   0  0  0  0  0  0  0  0  0  0  0  0
    0.8247   -1.7762    2.1489 C   0  0  0  0  0  0  0  0  0  0  0  0
    1.6214   -1.7420    2.7581 C   0  0  0  0  0  0  0  0  0  0  0  0
  1  2  1  0
  1  3  1  0
  3  4  1  0
  2 10  2  3
 10 11  1  0
  8 12  1  0
 12 13  1  0
 12 14  2  0
 11 15  2  3
 15 16  1  0
 16 17  1  0
 17 18  2  0
  4  5  2  0
  5  6  1  0
  6  7  2  0
  7  8  1  0
  8  9  2  0
  4  9  1  0
M  END

$$$$
No_3247-/export/home/yangzhenyu/potential_scad_32_flow//YTHDC2/2024-12-06-03-22-00/
     RDKit          3D

 17 17  0  0  1  0  0  0  0  0999 V2000
    1.1787   -8.0297    3.5154 N   0  0  0  0  0  0  0  0  0  0  0  0
    0.8669   -7.0905    2.8589 C   0  0  0  0  0  0  0  0  0  0  0  0
    1.0447   -7.3244    1.4123 C   0  0  0  0  0  0  0  0  0  0  0  0
    1.3942   -8.6358    1.3800 C   0  0  1  0  0  0  0  0  0  0  0  0
    1.8973   -9.2189    0.1308 C   0  0  0  0  0  0  0  0  0  0  0  0
    1.7355   -9.0428    2.5696 C   0  0  2  0  0  0  0  0  0  0  0  0
    2.0062  -10.4008    0.0353 O   0  0  0  0  0  0  0  0  0  0  0  0
    2.1047   -8.4783   -1.0152 N   0  0  0  0  0  0  0  0  0  0  0  0
    2.1169  -10.2443    2.9494 C   0  0  0  0  0  0  0  0  0  0  0  0
    2.2106  -10.5350    4.3725 C   0  0  0  0  0  0  0  0  0  0  0  0
    2.4051  -11.8122    4.8243 C   0  0  0  0  0  0  0  0  0  0  0  0
    1.4186  -12.6446    4.3079 C   0  0  0  0  0  0  0  0  0  0  0  0
    0.4381  -12.3702    3.5191 C   0  0  0  0  0  0  0  0  0  0  0  0
   -0.1586  -13.1405    2.5195 C   0  0  0  0  0  0  0  0  0  0  0  0
   -1.1330  -12.6185    1.7192 C   0  0  0  0  0  0  0  0  0  0  0  0
   -1.5917  -11.3758    2.1897 C   0  0  0  0  0  0  0  0  0  0  0  0
   -0.9339  -10.7523    3.2043 C   0  0  0  0  0  0  0  0  0  0  0  0
  1  2  1  0
  2  3  2  0
  3  4  1  0
  4  5  1  6
  6  1  1  1
  4  6  1  0
  5  7  2  0
  5  8  1  0
  6  9  1  0
  9 10  2  3
 10 11  1  0
 11 12  2  3
 12 13  1  0
 13 14  2  3
 14 15  1  0
 15 16  2  3
 16 17  1  0
M  END

$$$$
No_3248-/export/home/yangzhenyu/potential_scad_32_flow//YTHDC2/2024-12-06-03-22-00/
     RDKit          3D

 20 21  0  0  0  0  0  0  0  0999 V2000
    1.1787   -8.0297    3.5154 Cl  0  0  0  0  0  0  0  0  0  0  0  0
    0.7279   -9.0023    2.8722 C   0  0  0  0  0  0  0  0  0  0  0  0
   -0.0117   -8.9271    1.8829 C   0  0  0  0  0  0  0  0  0  0  0  0
   -0.2543  -10.1657    1.2408 C   0  0  0  0  0  0  0  0  0  0  0  0
    0.0020  -11.3985    1.5577 C   0  0  0  0  0  0  0  0  0  0  0  0
    0.9301  -11.4970    2.6344 C   0  0  0  0  0  0  0  0  0  0  0  0
    1.3031  -10.3535    3.2942 C   0  0  0  0  0  0  0  0  0  0  0  0
    1.8497  -10.5890    4.5227 C   0  0  0  0  0  0  0  0  0  0  0  0
    3.0646  -11.4679    4.5851 O   0  0  0  0  0  0  0  0  0  0  0  0
   -0.5319   -7.5909    1.2091 C   0  0  0  0  0  0  0  0  0  0  0  0
   -1.6654   -7.2406    1.6347 O   0  0  0  0  0  0  0  0  0  0  0  0
   -0.2183   -7.3377    0.0367 O   0  0  0  0  0  0  0  0  0  0  0  0
    1.2325  -12.8521    2.9786 C   0  0  0  0  0  0  0  0  0  0  0  0
    2.1444  -13.6090    2.3049 C   0  0  0  0  0  0  0  0  0  0  0  0
    2.1788  -15.0211    2.6402 C   0  0  0  0  0  0  0  0  0  0  0  0
    1.4658  -15.5929    3.4787 C   0  0  0  0  0  0  0  0  0  0  0  0
    0.4184  -14.8745    4.0199 C   0  0  0  0  0  0  0  0  0  0  0  0
    0.2150  -13.5984    3.7465 C   0  0  0  0  0  0  0  0  0  0  0  0
    1.4285  -16.9904    3.6427 Cl  0  0  0  0  0  0  0  0  0  0  0  0
   -2.0004   -5.8841    1.6856 C   0  0  0  0  0  0  0  0  0  0  0  0
  1  2  1  0
  7  8  1  0
  8  9  2  0
  3 10  1  0
 10 11  1  0
 10 12  2  0
  6 13  1  0
 16 19  1  0
 11 20  1  0
  2  3  2  0
  3  4  1  0
  4  5  2  0
  5  6  1  0
  6  7  2  0
  2  7  1  0
 13 14  2  0
 14 15  1  0
 15 16  2  0
 16 17  1  0
 17 18  2  0
 13 18  1  0
M  END

$$$$
No_3249-/export/home/yangzhenyu/potential_scad_32_flow//YTHDC2/2024-12-06-03-22-00/
     RDKit          3D

 20 21  0  0  1  0  0  0  0  0999 V2000
    1.1787   -8.0297    3.5154 C   0  0  0  0  0  0  0  0  0  0  0  0
    1.0491   -6.8434    2.9820 C   0  0  1  0  0  0  0  0  0  0  0  0
    1.9985   -8.9840    2.8958 C   0  0  0  0  0  0  0  0  0  0  0  0
    1.7297   -9.2108    1.6335 C   0  0  2  0  0  0  0  0  0  0  0  0
    2.1788  -10.5482    1.1239 C   0  0  0  0  0  0  0  0  0  0  0  0
    0.8226   -6.9903    1.4377 C   0  0  0  0  0  0  0  0  0  0  0  0
    1.5914   -8.1153    0.8208 C   0  0  0  0  0  0  0  0  0  0  0  0
    2.3898  -10.7430   -0.0922 O   0  0  0  0  0  0  0  0  0  0  0  0
    2.2187  -11.6204    1.8822 O   0  0  0  0  0  0  0  0  0  0  0  0
    1.6126   -8.1011   -0.4779 O   0  0  0  0  0  0  0  0  0  0  0  0
    0.3928   -5.7705    3.4573 C   0  0  0  0  0  0  0  0  0  0  0  0
    0.3594   -4.5577    2.7610 C   0  0  0  0  0  0  0  0  0  0  0  0
    1.3722   -4.3328    1.7629 O   0  0  0  0  0  0  0  0  0  0  0  0
   -0.2925   -3.4306    3.2986 C   0  0  0  0  0  0  0  0  0  0  0  0
    0.1168   -2.4073    3.2242 C   0  0  0  0  0  0  0  0  0  0  0  0
   -0.6113   -1.3663    4.0720 C   0  0  0  0  0  0  0  0  0  0  0  0
    0.0177   -0.1165    3.9356 C   0  0  0  0  0  0  0  0  0  0  0  0
    0.3952    0.3060    2.6664 C   0  0  0  0  0  0  0  0  0  0  0  0
    1.1153   -0.6986    1.8951 C   0  0  0  0  0  0  0  0  0  0  0  0
    0.7529   -1.9217    2.0892 C   0  0  0  0  0  0  0  0  0  0  0  0
  2  1  1  1
  1  3  1  0
  3  4  1  0
  4  5  1  6
  2  6  1  0
  4  7  1  0
  6  7  1  0
  5  8  2  0
  5  9  1  0
  7 10  2  0
  2 11  1  0
 11 12  2  3
 12 13  1  0
 12 14  1  0
 14 15  2  3
 15 16  1  0
 16 17  1  0
 17 18  1  0
 18 19  1  0
 15 20  1  0
 19 20  1  0
M  END

$$$$
No_3250-/export/home/yangzhenyu/potential_scad_32_flow//YTHDC2/2024-12-06-03-22-00/
     RDKit          3D

 18 18  0  0  0  0  0  0  0  0999 V2000
    1.1787   -8.0297    3.5154 C   0  0  0  0  0  0  0  0  0  0  0  0
    1.0491   -6.8434    2.9820 C   0  0  0  0  0  0  0  0  0  0  0  0
    0.0950   -8.8404    3.2292 C   0  0  0  0  0  0  0  0  0  0  0  0
   -0.9173   -8.4596    2.5152 C   0  0  0  0  0  0  0  0  0  0  0  0
   -1.0331   -7.2162    2.0653 C   0  0  0  0  0  0  0  0  0  0  0  0
   -0.0105   -6.3168    2.3081 C   0  0  0  0  0  0  0  0  0  0  0  0
    0.1465  -10.2446    3.6981 Cl  0  0  0  0  0  0  0  0  0  0  0  0
    0.0249   -4.9418    1.9014 C   0  0  0  0  0  0  0  0  0  0  0  0
   -0.5081   -4.6483    0.7557 N   0  0  0  0  0  0  0  0  0  0  0  0
    0.9604   -4.0598    2.4337 O   0  0  0  0  0  0  0  0  0  0  0  0
   -0.5964   -3.3237    0.2842 C   0  0  0  0  0  0  0  0  0  0  0  0
   -1.3935   -2.3623    1.1245 C   0  0  0  0  0  0  0  0  0  0  0  0
   -2.5812   -2.8329    1.2682 C   0  0  0  0  0  0  0  0  0  0  0  0
   -3.0517   -3.1585    2.5133 C   0  0  0  0  0  0  0  0  0  0  0  0
   -3.0003   -4.0188    3.1110 C   0  0  0  0  0  0  0  0  0  0  0  0
   -2.5176   -4.1539    4.4343 C   0  0  0  0  0  0  0  0  0  0  0  0
   -2.8630   -5.3594    5.1298 N   0  0  0  0  0  0  0  0  0  0  0  0
   -3.7678   -6.0141    4.2964 C   0  0  0  0  0  0  0  0  0  0  0  0
  3  7  1  0
  6  8  1  0
  8  9  1  0
  8 10  2  0
  9 11  1  0
 11 12  1  0
 12 13  1  0
 13 14  1  0
 14 15  1  0
 15 16  1  0
 16 17  2  3
 17 18  1  0
  1  2  2  0
  2  6  1  0
  5  6  2  0
  4  5  1  0
  3  4  2  0
  1  3  1  0
M  END

$$$$
No_3251-/export/home/yangzhenyu/potential_scad_32_flow//YTHDC2/2024-12-06-03-22-00/
     RDKit          3D

 16 16  0  0  1  0  0  0  0  0999 V2000
    1.1787   -8.0297    3.5154 N   0  0  0  0  0  0  0  0  0  0  0  0
    0.8669   -7.0905    2.8589 C   0  0  0  0  0  0  0  0  0  0  0  0
    1.0447   -7.3244    1.4123 C   0  0  0  0  0  0  0  0  0  0  0  0
    1.3942   -8.6358    1.3800 C   0  0  2  0  0  0  0  0  0  0  0  0
    1.6848   -9.0179    2.6581 C   0  0  2  0  0  0  0  0  0  0  0  0
    2.0378  -10.3165    2.8689 C   0  0  0  0  0  0  0  0  0  0  0  0
    1.7518   -9.1756    0.1868 C   0  0  0  0  0  0  0  0  0  0  0  0
    2.2932   -8.6932   -0.8438 O   0  0  0  0  0  0  0  0  0  0  0  0
    1.4520  -10.4970    0.0465 O   0  0  0  0  0  0  0  0  0  0  0  0
    1.2618  -11.1486    3.8416 C   0  0  0  0  0  0  0  0  0  0  0  0
    1.4630  -12.4190    3.9412 Cl  0  0  0  0  0  0  0  0  0  0  0  0
    0.1713  -10.4723    4.4029 O   0  0  0  0  0  0  0  0  0  0  0  0
    0.6246   -5.7098    3.2623 C   0  0  0  0  0  0  0  0  0  0  0  0
    1.6471   -4.7294    3.4907 C   0  0  0  0  0  0  0  0  0  0  0  0
    1.2396   -3.4973    3.1506 O   0  0  0  0  0  0  0  0  0  0  0  0
    0.9442   -2.6017    3.9296 C   0  0  0  0  0  0  0  0  0  0  0  0
  1  2  1  0
  2  3  2  0
  3  4  1  0
  1  5  1  0
  4  5  1  0
  5  6  1  1
  4  7  1  6
  7  8  2  0
  7  9  1  0
  6 10  1  0
 10 11  1  0
 10 12  2  0
  2 13  1  0
 13 14  1  0
 14 15  1  0
 15 16  1  0
M  END

$$$$
No_3252-/export/home/yangzhenyu/potential_scad_32_flow//YTHDC2/2024-12-06-03-22-00/
     RDKit          3D

 15 17  0  0  0  0  0  0  0  0999 V2000
    1.1787   -8.0297    3.5154 C   0  0  0  0  0  0  0  0  0  0  0  0
    1.1048   -9.2215    3.2892 C   0  0  0  0  0  0  0  0  0  0  0  0
    1.2339   -9.7611    2.0189 C   0  0  0  0  0  0  0  0  0  0  0  0
    1.1954  -11.2312    1.8661 C   0  0  0  0  0  0  0  0  0  0  0  0
    1.5546  -12.1691    2.7931 C   0  0  0  0  0  0  0  0  0  0  0  0
    0.9527   -7.0669    2.3918 C   0  0  0  0  0  0  0  0  0  0  0  0
    1.0618   -7.6392    1.0692 C   0  0  0  0  0  0  0  0  0  0  0  0
    1.2060   -8.9530    0.8578 C   0  0  0  0  0  0  0  0  0  0  0  0
    1.5159  -13.5011    2.3738 C   0  0  0  0  0  0  0  0  0  0  0  0
    1.1409  -13.8990    1.1908 C   0  0  0  0  0  0  0  0  0  0  0  0
    0.9249  -13.0546    0.2183 C   0  0  0  0  0  0  0  0  0  0  0  0
    0.9227  -11.6707    0.5316 C   0  0  0  0  0  0  0  0  0  0  0  0
    1.0078   -5.6071    2.4628 C   0  0  0  0  0  0  0  0  0  0  0  0
    1.4830   -9.3509   -0.3550 C   0  0  0  0  0  0  0  0  0  0  0  0
    1.0752  -10.8008   -0.5724 N   0  0  0  0  0  0  0  0  0  0  0  0
  3  4  1  0
  6 13  1  0
  8 14  1  0
 12 15  1  0
 14 15  1  0
  1  2  2  0
  2  3  1  0
  3  8  2  0
  7  8  1  0
  6  7  2  0
  1  6  1  0
  4  5  2  0
  5  9  1  0
  9 10  2  0
 10 11  1  0
 11 12  2  0
  4 12  1  0
M  END

$$$$
No_3253-/export/home/yangzhenyu/potential_scad_32_flow//YTHDC2/2024-12-06-03-22-00/
     RDKit          3D

 17 18  0  0  1  0  0  0  0  0999 V2000
    1.1787   -8.0297    3.5154 C   0  0  0  0  0  0  0  0  0  0  0  0
    1.1048   -9.2215    3.2892 C   0  0  0  0  0  0  0  0  0  0  0  0
    1.3627  -10.1721    4.3044 C   0  0  0  0  0  0  0  0  0  0  0  0
    1.7354  -11.4730    3.9023 C   0  0  0  0  0  0  0  0  0  0  0  0
    1.8080  -11.8127    2.7216 C   0  0  0  0  0  0  0  0  0  0  0  0
    1.5854  -11.0021    1.7249 C   0  0  0  0  0  0  0  0  0  0  0  0
    1.3573   -9.7389    1.9287 C   0  0  0  0  0  0  0  0  0  0  0  0
    1.1102   -8.8712    0.9017 C   0  0  0  0  0  0  0  0  0  0  0  0
    0.5299   -7.6926    1.0325 C   0  0  0  0  0  0  0  0  0  0  0  0
    0.7526   -7.0802    2.3301 C   0  0  0  0  0  0  0  0  0  0  0  0
    2.0515  -13.2522    2.4284 Cl  0  0  0  0  0  0  0  0  0  0  0  0
    0.4486   -5.4404    2.5670 C   0  0  2  0  0  0  0  0  0  0  0  0
   -0.7036   -5.0629    2.2803 C   0  0  0  0  0  0  0  0  0  0  0  0
   -0.8882   -3.6740    2.2453 C   0  0  0  0  0  0  0  0  0  0  0  0
    1.6338   -4.7988    2.8817 C   0  0  0  0  0  0  0  0  0  0  0  0
    0.2219   -2.8417    2.6130 C   0  0  0  0  0  0  0  0  0  0  0  0
   -0.0183   -1.4245    2.6337 C   0  0  0  0  0  0  0  0  0  0  0  0
  5 11  1  0
 10 12  1  0
 12 13  1  0
 13 14  2  3
 12 15  1  6
 14 16  1  0
 16 17  1  0
  1  2  2  0
  7  8  2  0
  8  9  1  0
  9 10  2  0
  1 10  1  0
  2  3  1  0
  3  4  2  0
  4  5  1  0
  5  6  2  0
  6  7  1  0
  2  7  1  0
M  END

$$$$
No_3254-/export/home/yangzhenyu/potential_scad_32_flow//YTHDC2/2024-12-06-03-22-00/
     RDKit          3D

 18 19  0  0  0  0  0  0  0  0999 V2000
    1.1787   -8.0297    3.5154 C   0  0  0  0  0  0  0  0  0  0  0  0
    1.0491   -6.8434    2.9820 C   0  0  0  0  0  0  0  0  0  0  0  0
    0.0950   -8.8404    3.2292 C   0  0  0  0  0  0  0  0  0  0  0  0
   -0.9173   -8.4596    2.5152 C   0  0  0  0  0  0  0  0  0  0  0  0
   -1.0331   -7.2162    2.0653 C   0  0  0  0  0  0  0  0  0  0  0  0
   -0.0105   -6.3168    2.3081 C   0  0  0  0  0  0  0  0  0  0  0  0
    0.1465  -10.2446    3.6981 C   0  0  0  0  0  0  0  0  0  0  0  0
    0.1907  -11.3369    2.8651 C   0  0  0  0  0  0  0  0  0  0  0  0
    1.0128  -11.8996    2.5974 C   0  0  0  0  0  0  0  0  0  0  0  0
    1.1895  -13.1640    1.9820 C   0  0  0  0  0  0  0  0  0  0  0  0
    0.1218  -13.6939    1.4868 C   0  0  0  0  0  0  0  0  0  0  0  0
   -1.0532  -13.0913    1.6355 C   0  0  0  0  0  0  0  0  0  0  0  0
   -1.0791  -11.9249    2.3376 C   0  0  0  0  0  0  0  0  0  0  0  0
   -0.0010   -4.9709    1.8906 Cl  0  0  0  0  0  0  0  0  0  0  0  0
    0.0510  -10.4336    5.0849 O   0  0  0  0  0  0  0  0  0  0  0  0
    2.4528  -13.9472    1.8888 Cl  0  0  0  0  0  0  0  0  0  0  0  0
   -0.0137  -14.8820    0.7202 O   0  0  0  0  0  0  0  0  0  0  0  0
   -0.4058  -15.9995    1.2480 C   0  0  0  0  0  0  0  0  0  0  0  0
  3  7  1  0
  7  8  1  0
  6 14  1  0
  7 15  2  0
 10 16  1  0
 11 17  1  0
 17 18  1  0
  1  2  2  0
  2  6  1  0
  5  6  2  0
  4  5  1  0
  3  4  2  0
  1  3  1  0
  8  9  2  0
  9 10  1  0
 10 11  2  0
 11 12  1  0
 12 13  2  0
  8 13  1  0
M  END

$$$$
No_3255-/export/home/yangzhenyu/potential_scad_32_flow//YTHDC2/2024-12-06-03-22-00/
     RDKit          3D

 18 18  0  0  1  0  0  0  0  0999 V2000
    1.1787   -8.0297    3.5154 C   0  0  0  0  0  0  0  0  0  0  0  0
    1.0491   -6.8434    2.9820 C   0  0  0  0  0  0  0  0  0  0  0  0
    0.9905   -9.0774    2.6527 C   0  0  0  0  0  0  0  0  0  0  0  0
    0.7897   -8.9519    1.3691 C   0  0  0  0  0  0  0  0  0  0  0  0
    0.7018   -7.7198    0.7892 C   0  0  0  0  0  0  0  0  0  0  0  0
    0.8918   -6.5957    1.6117 C   0  0  0  0  0  0  0  0  0  0  0  0
    1.0998  -10.4710    3.2437 C   0  0  1  0  0  0  0  0  0  0  0  0
    2.1917  -10.8879    3.7399 C   0  0  0  0  0  0  0  0  0  0  0  0
    0.8983   -5.2566    1.2088 C   0  0  0  0  0  0  0  0  0  0  0  0
   -0.0163  -11.2298    3.3739 C   0  0  0  0  0  0  0  0  0  0  0  0
   -0.7265  -11.5031    2.5374 C   0  0  0  0  0  0  0  0  0  0  0  0
   -2.0531  -12.0139    2.5852 C   0  0  0  0  0  0  0  0  0  0  0  0
   -2.8786  -12.0753    1.9289 N   0  0  0  0  0  0  0  0  0  0  0  0
   -0.1983   -4.7344    0.7541 O   0  0  0  0  0  0  0  0  0  0  0  0
    1.8789   -4.4637    1.3831 O   0  0  0  0  0  0  0  0  0  0  0  0
   -3.9949  -12.5622    2.1842 C   0  0  0  0  0  0  0  0  0  0  0  0
   -4.9746  -12.5943    1.3526 C   0  0  0  0  0  0  0  0  0  0  0  0
   -6.1773  -13.1319    1.7577 C   0  0  0  0  0  0  0  0  0  0  0  0
  3  7  1  0
  7  8  1  1
  6  9  1  0
  7 10  1  0
 10 11  2  3
 11 12  1  0
 12 13  2  3
  9 14  2  0
  9 15  1  0
 13 16  1  0
 16 17  1  0
 17 18  2  0
  1  2  2  0
  2  6  1  0
  5  6  2  0
  4  5  1  0
  3  4  2  0
  1  3  1  0
M  END

$$$$
No_3256-/export/home/yangzhenyu/potential_scad_32_flow//YTHDC2/2024-12-06-03-22-00/
     RDKit          3D

 19 21  0  0  0  0  0  0  0  0999 V2000
    1.1787   -8.0297    3.5154 C   0  0  0  0  0  0  0  0  0  0  0  0
    1.1048   -9.2215    3.2892 C   0  0  0  0  0  0  0  0  0  0  0  0
    1.3627  -10.1721    4.3044 C   0  0  0  0  0  0  0  0  0  0  0  0
    1.0682  -11.5187    4.0618 C   0  0  0  0  0  0  0  0  0  0  0  0
    0.6332  -11.9655    2.9682 C   0  0  0  0  0  0  0  0  0  0  0  0
    0.4776  -11.1308    1.9203 C   0  0  0  0  0  0  0  0  0  0  0  0
    0.7470   -9.8274    2.0368 C   0  0  0  0  0  0  0  0  0  0  0  0
    1.0387   -7.0301    2.5175 C   0  0  0  0  0  0  0  0  0  0  0  0
    0.9130   -7.5288    1.2013 C   0  0  0  0  0  0  0  0  0  0  0  0
    0.7893   -8.7979    0.9542 C   0  0  0  0  0  0  0  0  0  0  0  0
    0.3852  -13.5918    2.7030 C   0  0  0  0  0  0  0  0  0  0  0  0
    1.4499  -14.3811    3.1650 C   0  0  0  0  0  0  0  0  0  0  0  0
    1.1475  -15.7469    2.9869 C   0  0  0  0  0  0  0  0  0  0  0  0
    0.2349  -16.1991    2.2855 C   0  0  0  0  0  0  0  0  0  0  0  0
   -0.6528  -15.3439    1.7176 C   0  0  0  0  0  0  0  0  0  0  0  0
   -0.4565  -13.9930    1.8980 C   0  0  0  0  0  0  0  0  0  0  0  0
    0.4260   -9.3106   -0.5030 C   0  0  0  0  0  0  0  0  0  0  0  0
   -0.4682   -8.6614   -1.0776 O   0  0  0  0  0  0  0  0  0  0  0  0
    1.2170   -9.8843   -1.0770 O   0  0  0  0  0  0  0  0  0  0  0  0
  5 11  1  0
 10 17  1  0
 17 18  2  0
 17 19  1  0
 11 12  2  0
 12 13  1  0
 13 14  2  0
 14 15  1  0
 15 16  2  0
 11 16  1  0
  2  3  1  0
  3  4  2  0
  4  5  1  0
  5  6  2  0
  6  7  1  0
  1  2  2  0
  2  7  1  0
  7 10  2  0
  9 10  1  0
  8  9  2  0
  1  8  1  0
M  END

$$$$
No_3257-/export/home/yangzhenyu/potential_scad_32_flow//YTHDC2/2024-12-06-03-22-00/
     RDKit          3D

 18 18  0  0  1  0  0  0  0  0999 V2000
    1.1787   -8.0297    3.5154 C   0  0  0  0  0  0  0  0  0  0  0  0
    1.0491   -6.8434    2.9820 C   0  0  0  0  0  0  0  0  0  0  0  0
    1.9985   -8.9840    2.8958 C   0  0  0  0  0  0  0  0  0  0  0  0
    1.9135  -10.3404    3.6266 C   0  0  1  0  0  0  0  0  0  0  0  0
    2.2847  -10.5440    4.7936 C   0  0  0  0  0  0  0  0  0  0  0  0
    0.3304   -6.7696    1.8077 O   0  0  0  0  0  0  0  0  0  0  0  0
    2.0221   -5.8769    3.0809 O   0  0  0  0  0  0  0  0  0  0  0  0
    0.7337  -11.1642    3.3256 C   0  0  0  0  0  0  0  0  0  0  0  0
    0.9461  -12.3803    2.7831 C   0  0  0  0  0  0  0  0  0  0  0  0
    0.0541  -13.1475    2.4362 N   0  0  0  0  0  0  0  0  0  0  0  0
    0.2130  -14.5387    2.3395 C   0  0  0  0  0  0  0  0  0  0  0  0
   -0.7373  -15.3966    2.2071 C   0  0  0  0  0  0  0  0  0  0  0  0
   -1.9635  -14.9675    2.1019 C   0  0  0  0  0  0  0  0  0  0  0  0
   -2.2808  -13.5707    2.2210 C   0  0  1  0  0  0  0  0  0  0  0  0
   -1.2362  -12.5964    2.3394 N   0  0  0  0  0  0  0  0  0  0  0  0
   -3.5332  -13.0043    2.0780 C   0  0  0  0  0  0  0  0  0  0  0  0
    1.5790  -14.9270    2.5476 O   0  0  0  0  0  0  0  0  0  0  0  0
   -3.0092  -15.7371    1.9545 O   0  0  0  0  0  0  0  0  0  0  0  0
  1  2  1  0
  1  3  1  0
  3  4  1  0
  4  5  1  1
  2  6  2  0
  2  7  1  0
  4  8  1  0
  8  9  1  0
  9 10  1  0
 10 11  1  0
 11 12  1  0
 12 13  1  0
 13 14  1  0
 10 15  1  0
 14 15  1  0
 14 16  1  6
 11 17  2  0
 13 18  2  0
M  END

$$$$
No_3258-/export/home/yangzhenyu/potential_scad_32_flow//YTHDC2/2024-12-06-03-22-00/
     RDKit          3D

 19 20  0  0  1  0  0  0  0  0999 V2000
    1.1787   -8.0297    3.5154 N   0  0  0  0  0  0  0  0  0  0  0  0
    1.0818   -9.0751    3.2053 C   0  0  0  0  0  0  0  0  0  0  0  0
    0.7576   -9.3725    1.9159 C   0  0  2  0  0  0  0  0  0  0  0  0
    0.7445  -10.8746    1.6491 C   0  0  1  0  0  0  0  0  0  0  0  0
    0.4267  -11.1283    0.3668 C   0  0  0  0  0  0  0  0  0  0  0  0
    0.2907  -12.4268    0.1189 C   0  0  0  0  0  0  0  0  0  0  0  0
    0.6041  -13.3635    1.0471 C   0  0  2  0  0  0  0  0  0  0  0  0
    1.1478  -13.0377    2.2633 C   0  0  1  0  0  0  0  0  0  0  0  0
    1.2306  -11.7084    2.5774 C   0  0  0  0  0  0  0  0  0  0  0  0
    1.2489   -6.9580    2.4662 C   0  0  0  0  0  0  0  0  0  0  0  0
    1.1509   -7.2205    1.1909 C   0  0  0  0  0  0  0  0  0  0  0  0
    1.0252   -8.4832    0.8605 C   0  0  0  0  0  0  0  0  0  0  0  0
    1.4654  -14.1231    3.1704 O   0  0  0  0  0  0  0  0  0  0  0  0
    1.4312   -5.5130    2.9990 C   0  0  0  0  0  0  0  0  0  0  0  0
    0.8379   -8.7199   -0.4647 O   0  0  0  0  0  0  0  0  0  0  0  0
    0.5625  -14.9446    0.6647 O   0  0  0  0  0  0  0  0  0  0  0  0
    1.6722  -11.4716    3.7720 O   0  0  0  0  0  0  0  0  0  0  0  0
   -0.3554  -15.2365   -0.0120 C   0  0  0  0  0  0  0  0  0  0  0  0
    0.9284   -4.5094    2.1508 C   0  0  0  0  0  0  0  0  0  0  0  0
  1  2  1  0
  3  4  1  0
  4  5  1  6
  6  7  1  0
  4  9  1  0
  8  9  1  0
 10 11  1  0
  3 12  1  0
 11 12  1  0
  8 13  1  1
 10 14  1  0
 12 15  2  0
  7 16  1  6
  9 17  2  0
 16 18  1  0
 14 19  1  0
  3  2  1  1
  1 10  1  0
  5  6  1  0
  7  8  1  0
M  END

$$$$
No_3259-/export/home/yangzhenyu/potential_scad_32_flow//YTHDC2/2024-12-06-03-22-00/
     RDKit          3D

 18 19  0  0  0  0  0  0  0  0999 V2000
    1.1787   -8.0297    3.5154 C   0  0  0  0  0  0  0  0  0  0  0  0
    1.1048   -9.2215    3.2892 C   0  0  0  0  0  0  0  0  0  0  0  0
    1.2339   -9.7611    2.0189 C   0  0  0  0  0  0  0  0  0  0  0  0
    1.3583   -9.0036    0.9764 C   0  0  0  0  0  0  0  0  0  0  0  0
    1.5996   -7.6362    1.1311 C   0  0  0  0  0  0  0  0  0  0  0  0
    1.4830   -7.0928    2.3626 C   0  0  0  0  0  0  0  0  0  0  0  0
    1.5395   -5.7300    2.6182 N   0  0  0  0  0  0  0  0  0  0  0  0
    1.1756  -11.2259    1.8616 C   0  0  0  0  0  0  0  0  0  0  0  0
    1.9309  -12.0522    2.4890 C   0  0  0  0  0  0  0  0  0  0  0  0
    1.8756  -12.1726    3.6474 C   0  0  0  0  0  0  0  0  0  0  0  0
    1.7835  -13.4784    1.8538 C   0  0  0  0  0  0  0  0  0  0  0  0
    0.8516   -4.8318    2.7797 O   0  0  0  0  0  0  0  0  0  0  0  0
    1.5211  -13.6087    0.8081 C   0  0  0  0  0  0  0  0  0  0  0  0
    1.5277  -14.4797    2.7825 C   0  0  0  0  0  0  0  0  0  0  0  0
    0.5535  -14.3671    3.4716 C   0  0  0  0  0  0  0  0  0  0  0  0
    1.0609  -13.1199    4.3566 C   0  0  0  0  0  0  0  0  0  0  0  0
    1.5618   -9.5338   -0.2796 Cl  0  0  0  0  0  0  0  0  0  0  0  0
    0.7168  -13.0929    0.1087 C   0  0  0  0  0  0  0  0  0  0  0  0
  6  7  1  0
  3  8  1  0
  8  9  1  0
  7 12  2  0
 11 13  1  0
  4 17  1  0
 13 18  2  0
  1  2  2  0
  2  3  1  0
  3  4  2  0
  4  5  1  0
  5  6  2  0
  1  6  1  0
  9 10  2  0
 10 16  1  0
 15 16  2  0
 14 15  1  0
 11 14  2  0
  9 11  1  0
M  END

$$$$
No_3260-/export/home/yangzhenyu/potential_scad_32_flow//YTHDC2/2024-12-06-03-22-00/
     RDKit          3D

 19 20  0  0  0  0  0  0  0  0999 V2000
    1.1787   -8.0297    3.5154 C   0  0  0  0  0  0  0  0  0  0  0  0
    1.1048   -9.2215    3.2892 C   0  0  0  0  0  0  0  0  0  0  0  0
    1.3627  -10.1721    4.3044 C   0  0  0  0  0  0  0  0  0  0  0  0
    1.0682  -11.5187    4.0618 C   0  0  0  0  0  0  0  0  0  0  0  0
    0.6332  -11.9655    2.9682 C   0  0  0  0  0  0  0  0  0  0  0  0
    0.4776  -11.1308    1.9203 C   0  0  0  0  0  0  0  0  0  0  0  0
    0.7470   -9.8274    2.0368 C   0  0  0  0  0  0  0  0  0  0  0  0
    1.0387   -7.0301    2.5175 C   0  0  0  0  0  0  0  0  0  0  0  0
    0.9130   -7.5288    1.2013 C   0  0  0  0  0  0  0  0  0  0  0  0
    0.7893   -8.7979    0.9542 C   0  0  0  0  0  0  0  0  0  0  0  0
    1.3508   -9.2321   -0.2427 C   0  0  0  0  0  0  0  0  0  0  0  0
    0.8015   -8.9923   -1.3673 O   0  0  0  0  0  0  0  0  0  0  0  0
    2.5719   -9.7285   -0.3981 O   0  0  0  0  0  0  0  0  0  0  0  0
    0.4810  -13.6298    2.7045 C   0  0  0  0  0  0  0  0  0  0  0  0
    1.5386  -14.3771    3.1535 C   0  0  0  0  0  0  0  0  0  0  0  0
    2.3547  -14.7947    2.4472 C   0  0  0  0  0  0  0  0  0  0  0  0
    1.8509  -15.4807    1.2940 C   0  0  0  0  0  0  0  0  0  0  0  0
    1.0470  -14.5785    0.5734 C   0  0  0  0  0  0  0  0  0  0  0  0
    0.2840  -15.3741   -0.4911 C   0  0  0  0  0  0  0  0  0  0  0  0
 10 11  1  0
 11 12  2  0
 11 13  1  0
  5 14  1  0
 14 15  1  0
 15 16  1  0
 16 17  1  0
 17 18  1  0
 18 19  2  0
  2  3  1  0
  3  4  2  0
  4  5  1  0
  5  6  2  0
  6  7  1  0
  1  2  2  0
  2  7  1  0
  7 10  2  0
  9 10  1  0
  8  9  2  0
  1  8  1  0
M  END

$$$$
No_3261-/export/home/yangzhenyu/potential_scad_32_flow//YTHDC2/2024-12-06-03-22-00/
     RDKit          3D

 20 21  0  0  0  0  0  0  0  0999 V2000
    1.1787   -8.0297    3.5154 C   0  0  0  0  0  0  0  0  0  0  0  0
    1.1048   -9.2215    3.2892 C   0  0  0  0  0  0  0  0  0  0  0  0
    1.2339   -9.7611    2.0189 C   0  0  0  0  0  0  0  0  0  0  0  0
    1.3583   -9.0036    0.9764 C   0  0  0  0  0  0  0  0  0  0  0  0
    1.5996   -7.6362    1.1311 C   0  0  0  0  0  0  0  0  0  0  0  0
    1.4830   -7.0928    2.3626 C   0  0  0  0  0  0  0  0  0  0  0  0
    1.4898   -5.7274    2.6199 N   0  0  0  0  0  0  0  0  0  0  0  0
    1.1600  -11.2248    1.8597 C   0  0  0  0  0  0  0  0  0  0  0  0
    1.9280  -12.0518    2.4838 C   0  0  0  0  0  0  0  0  0  0  0  0
    1.7182  -13.4419    2.1496 C   0  0  0  0  0  0  0  0  0  0  0  0
    0.8654  -13.8425    1.2432 C   0  0  0  0  0  0  0  0  0  0  0  0
    0.1015  -12.9005    0.5489 C   0  0  0  0  0  0  0  0  0  0  0  0
    0.2947  -11.5056    0.8492 C   0  0  0  0  0  0  0  0  0  0  0  0
    1.1547   -4.9016    1.6850 C   0  0  0  0  0  0  0  0  0  0  0  0
    0.2257   -3.8933    2.0119 C   0  0  0  0  0  0  0  0  0  0  0  0
    0.1231   -2.7222    1.5411 C   0  0  0  0  0  0  0  0  0  0  0  0
    0.8393   -2.5602    0.2836 C   0  0  0  0  0  0  0  0  0  0  0  0
    2.4708  -14.4287    2.8513 Cl  0  0  0  0  0  0  0  0  0  0  0  0
   -0.4944  -10.7086    0.1372 C   0  0  0  0  0  0  0  0  0  0  0  0
   -1.7620  -10.3591    0.7194 O   0  0  0  0  0  0  0  0  0  0  0  0
  6  7  1  0
  3  8  1  0
  7 14  1  0
 14 15  1  0
 15 16  2  3
 16 17  1  0
 10 18  1  0
 13 19  1  0
 19 20  1  0
  1  2  2  0
  2  3  1  0
  3  4  2  0
  4  5  1  0
  5  6  2  0
  1  6  1  0
  8  9  2  0
  9 10  1  0
 10 11  2  0
 11 12  1  0
 12 13  2  0
  8 13  1  0
M  END

$$$$
No_3262-/export/home/yangzhenyu/potential_scad_32_flow//YTHDC2/2024-12-06-03-22-00/
     RDKit          3D

 19 20  0  0  0  0  0  0  0  0999 V2000
    1.1787   -8.0297    3.5154 C   0  0  0  0  0  0  0  0  0  0  0  0
    1.0491   -6.8434    2.9820 C   0  0  0  0  0  0  0  0  0  0  0  0
    0.0950   -8.8404    3.2292 C   0  0  0  0  0  0  0  0  0  0  0  0
   -0.9173   -8.4596    2.5152 C   0  0  0  0  0  0  0  0  0  0  0  0
   -1.0331   -7.2162    2.0653 C   0  0  0  0  0  0  0  0  0  0  0  0
   -0.0105   -6.3168    2.3081 C   0  0  0  0  0  0  0  0  0  0  0  0
    0.0485   -4.9783    1.8782 C   0  0  0  0  0  0  0  0  0  0  0  0
    0.9625   -4.1072    2.3252 C   0  0  0  0  0  0  0  0  0  0  0  0
    0.1334  -10.2884    3.6719 C   0  0  0  0  0  0  0  0  0  0  0  0
    0.2155  -11.3675    2.8316 C   0  0  0  0  0  0  0  0  0  0  0  0
    0.9727  -12.5040    3.2074 C   0  0  0  0  0  0  0  0  0  0  0  0
    1.0285  -13.5855    2.4436 C   0  0  0  0  0  0  0  0  0  0  0  0
    0.3991  -13.7435    1.4061 C   0  0  0  0  0  0  0  0  0  0  0  0
   -0.2700  -12.6747    0.8346 C   0  0  0  0  0  0  0  0  0  0  0  0
   -0.3213  -11.4887    1.5640 C   0  0  0  0  0  0  0  0  0  0  0  0
    1.8378  -14.7669    2.9540 O   0  0  0  0  0  0  0  0  0  0  0  0
   -0.6536   -4.4987    0.7697 O   0  0  0  0  0  0  0  0  0  0  0  0
    1.0979   -2.7750    1.8100 C   0  0  0  0  0  0  0  0  0  0  0  0
    0.1899   -2.5248    0.7764 C   0  0  0  0  0  0  0  0  0  0  0  0
  6  7  1  0
  7  8  2  3
  3  9  1  0
  9 10  1  0
 12 16  1  0
  7 17  1  0
  8 18  1  0
 18 19  2  0
  1  2  2  0
  2  6  1  0
  5  6  2  0
  4  5  1  0
  3  4  2  0
  1  3  1  0
 10 11  2  0
 11 12  1  0
 12 13  2  0
 13 14  1  0
 14 15  2  0
 10 15  1  0
M  END

$$$$
No_3263-/export/home/yangzhenyu/potential_scad_32_flow//YTHDC2/2024-12-06-03-22-00/
     RDKit          3D

 18 19  0  0  0  0  0  0  0  0999 V2000
    1.1787   -8.0297    3.5154 C   0  0  0  0  0  0  0  0  0  0  0  0
    1.1048   -9.2215    3.2892 C   0  0  0  0  0  0  0  0  0  0  0  0
    1.2339   -9.7611    2.0189 C   0  0  0  0  0  0  0  0  0  0  0  0
    1.3583   -9.0036    0.9764 C   0  0  0  0  0  0  0  0  0  0  0  0
    1.5996   -7.6362    1.1311 C   0  0  0  0  0  0  0  0  0  0  0  0
    1.4830   -7.0928    2.3626 C   0  0  0  0  0  0  0  0  0  0  0  0
    1.5395   -5.7300    2.6182 C   0  0  0  0  0  0  0  0  0  0  0  0
    1.1775  -11.2233    1.8407 C   0  0  0  0  0  0  0  0  0  0  0  0
    1.9057  -12.1147    2.3397 C   0  0  0  0  0  0  0  0  0  0  0  0
    1.6867  -13.4551    2.0621 C   0  0  0  0  0  0  0  0  0  0  0  0
    0.7025  -13.8511    1.3021 C   0  0  0  0  0  0  0  0  0  0  0  0
   -0.1111  -12.9140    0.6527 C   0  0  0  0  0  0  0  0  0  0  0  0
    0.1535  -11.5434    0.9240 C   0  0  0  0  0  0  0  0  0  0  0  0
    0.6176   -4.8912    2.7737 C   0  0  0  0  0  0  0  0  0  0  0  0
    0.7507   -3.5080    3.2349 C   0  0  0  0  0  0  0  0  0  0  0  0
    2.6241  -14.5839    2.8651 F   0  0  0  0  0  0  0  0  0  0  0  0
   -0.6937  -10.6900    0.3415 C   0  0  0  0  0  0  0  0  0  0  0  0
   -0.7139  -10.3150   -0.9304 C   0  0  0  0  0  0  0  0  0  0  0  0
  6  7  1  0
  3  8  1  0
  7 14  1  0
 14 15  1  0
 10 16  1  0
 13 17  1  0
 17 18  1  0
  1  2  2  0
  2  3  1  0
  3  4  2  0
  4  5  1  0
  5  6  2  0
  1  6  1  0
  8  9  2  0
  9 10  1  0
 10 11  2  0
 11 12  1  0
 12 13  2  0
  8 13  1  0
M  END

$$$$
No_3264-/export/home/yangzhenyu/potential_scad_32_flow//YTHDC2/2024-12-06-03-22-00/
     RDKit          3D

 18 19  0  0  0  0  0  0  0  0999 V2000
    1.1787   -8.0297    3.5154 C   0  0  0  0  0  0  0  0  0  0  0  0
    1.1048   -9.2215    3.2892 N   0  0  0  0  0  0  0  0  0  0  0  0
    1.0346   -9.7785    2.1176 C   0  0  0  0  0  0  0  0  0  0  0  0
    1.2597   -9.0826    1.0431 C   0  0  0  0  0  0  0  0  0  0  0  0
    1.5530   -7.7656    1.0977 C   0  0  0  0  0  0  0  0  0  0  0  0
    1.5300   -7.1323    2.3379 C   0  0  0  0  0  0  0  0  0  0  0  0
    1.6813   -5.7666    2.5762 C   0  0  0  0  0  0  0  0  0  0  0  0
    0.9576  -11.2422    2.1140 C   0  0  0  0  0  0  0  0  0  0  0  0
    1.9370  -12.0290    2.4379 C   0  0  0  0  0  0  0  0  0  0  0  0
    1.7573  -13.4162    2.2858 C   0  0  0  0  0  0  0  0  0  0  0  0
    0.5873  -13.9084    1.8749 C   0  0  0  0  0  0  0  0  0  0  0  0
   -0.4850  -13.1515    1.6321 C   0  0  0  0  0  0  0  0  0  0  0  0
   -0.3332  -11.7826    1.6717 C   0  0  0  0  0  0  0  0  0  0  0  0
    0.4093  -15.3739    1.8417 C   0  0  0  0  0  0  0  0  0  0  0  0
   -0.1039  -15.9938    1.0521 C   0  0  0  0  0  0  0  0  0  0  0  0
    1.1856  -16.1047    2.9746 C   0  0  0  0  0  0  0  0  0  0  0  0
    1.0911  -17.3984    3.2026 C   0  0  0  0  0  0  0  0  0  0  0  0
    0.3824  -18.0891    2.2608 C   0  0  0  0  0  0  0  0  0  0  0  0
  6  7  1  0
  3  8  1  0
 11 14  1  0
 14 15  2  0
 14 16  1  0
 16 17  2  3
 17 18  1  0
  1  2  2  0
  2  3  1  0
  3  4  2  0
  4  5  1  0
  5  6  2  0
  1  6  1  0
  8  9  2  0
  9 10  1  0
 10 11  2  0
 11 12  1  0
 12 13  2  0
  8 13  1  0
M  END

$$$$
No_3265-/export/home/yangzhenyu/potential_scad_32_flow//YTHDC2/2024-12-06-03-22-00/
     RDKit          3D

 18 20  0  0  0  0  0  0  0  0999 V2000
    1.1787   -8.0297    3.5154 C   0  0  0  0  0  0  0  0  0  0  0  0
    1.1048   -9.2215    3.2892 C   0  0  0  0  0  0  0  0  0  0  0  0
    1.3627  -10.1721    4.3044 C   0  0  0  0  0  0  0  0  0  0  0  0
    1.7354  -11.4730    3.9024 C   0  0  0  0  0  0  0  0  0  0  0  0
    1.8080  -11.8127    2.7216 C   0  0  0  0  0  0  0  0  0  0  0  0
    1.5854  -11.0021    1.7249 C   0  0  0  0  0  0  0  0  0  0  0  0
    1.3573   -9.7389    1.9287 C   0  0  0  0  0  0  0  0  0  0  0  0
    1.1102   -8.8712    0.9017 C   0  0  0  0  0  0  0  0  0  0  0  0
    0.5299   -7.6926    1.0325 C   0  0  0  0  0  0  0  0  0  0  0  0
    0.7526   -7.0802    2.3301 C   0  0  0  0  0  0  0  0  0  0  0  0
    2.1027  -13.4660    2.3958 Cl  0  0  0  0  0  0  0  0  0  0  0  0
    0.4864   -5.6367    2.5024 C   0  0  0  0  0  0  0  0  0  0  0  0
   -0.6785   -5.1074    2.2412 C   0  0  0  0  0  0  0  0  0  0  0  0
   -0.8607   -3.6930    2.3140 N   0  0  0  0  0  0  0  0  0  0  0  0
    1.5212   -4.7159    3.0138 C   0  0  0  0  0  0  0  0  0  0  0  0
    0.3479   -3.2417    2.6034 C   0  0  0  0  0  0  0  0  0  0  0  0
    1.3955   -3.5356    3.0159 C   0  0  0  0  0  0  0  0  0  0  0  0
    1.3189   -9.3549   -0.5523 C   0  0  0  0  0  0  0  0  0  0  0  0
  5 11  1  0
 10 12  1  0
  8 18  1  0
  1  2  2  0
  7  8  2  0
  8  9  1  0
  9 10  2  0
  1 10  1  0
  2  3  1  0
  3  4  2  0
  4  5  1  0
  5  6  2  0
  6  7  1  0
  2  7  1  0
 12 13  2  0
 13 14  1  0
 14 16  2  0
 16 17  1  0
 15 17  2  0
 12 15  1  0
M  END

$$$$
No_3266-/export/home/yangzhenyu/potential_scad_32_flow//YTHDC2/2024-12-06-03-22-00/
     RDKit          3D

 19 21  0  0  1  0  0  0  0  0999 V2000
    1.1787   -8.0297    3.5154 C   0  0  0  0  0  0  0  0  0  0  0  0
    1.0491   -6.8434    2.9820 C   0  0  0  0  0  0  0  0  0  0  0  0
    0.9905   -9.0774    2.6527 C   0  0  0  0  0  0  0  0  0  0  0  0
    1.1655  -10.4663    3.1286 C   0  0  0  0  0  0  0  0  0  0  0  0
    1.2197  -11.4898    2.5831 C   0  0  0  0  0  0  0  0  0  0  0  0
    1.0589  -11.4458    1.1293 C   0  0  0  0  0  0  0  0  0  0  0  0
    0.9638  -10.3069    0.4651 C   0  0  0  0  0  0  0  0  0  0  0  0
    0.9191   -9.0789    1.1942 C   0  0  0  0  0  0  0  0  0  0  0  0
    0.9198   -7.8339    0.6158 C   0  0  0  0  0  0  0  0  0  0  0  0
    1.0184   -6.6904    1.4953 C   0  0  0  0  0  0  0  0  0  0  0  0
    1.3849  -13.0399    3.2071 C   0  0  0  0  0  0  0  0  0  0  0  0
    2.3078  -13.7894    2.5728 O   0  0  0  0  0  0  0  0  0  0  0  0
    0.9195   -7.6640   -0.5750 O   0  0  0  0  0  0  0  0  0  0  0  0
    1.2984   -5.6419    3.6661 O   0  0  0  0  0  0  0  0  0  0  0  0
    1.7083  -14.9999    2.0605 C   0  0  2  0  0  0  0  0  0  0  0  0
    0.6189  -14.9285    1.4642 C   0  0  0  0  0  0  0  0  0  0  0  0
    0.1063  -16.2108    1.3295 C   0  0  0  0  0  0  0  0  0  0  0  0
    0.8042  -17.3646    1.5827 N   0  0  0  0  0  0  0  0  0  0  0  0
    2.0528  -16.6451    2.3373 C   0  0  0  0  0  0  0  0  0  0  0  0
  1  2  1  0
  8  9  1  0
  2 10  1  0
  9 10  1  0
  5 11  1  0
 11 12  1  0
  9 13  2  0
  2 14  2  0
 15 12  1  1
 15 16  1  0
 16 17  2  0
 17 18  1  0
 15 19  1  0
 18 19  2  0
  1  3  1  0
  3  4  2  0
  4  5  1  0
  5  6  2  0
  6  7  1  0
  7  8  2  0
  3  8  1  0
M  END

$$$$
No_3267-/export/home/yangzhenyu/potential_scad_32_flow//YTHDC2/2024-12-06-03-22-00/
     RDKit          3D

 17 19  0  0  0  0  0  0  0  0999 V2000
    1.1787   -8.0297    3.5154 C   0  0  0  0  0  0  0  0  0  0  0  0
    1.0491   -6.8434    2.9820 C   0  0  0  0  0  0  0  0  0  0  0  0
    0.0950   -8.8404    3.2292 C   0  0  0  0  0  0  0  0  0  0  0  0
    0.0602  -10.1764    3.8231 C   0  0  0  0  0  0  0  0  0  0  0  0
    0.2248   -6.3830    2.0648 C   0  0  0  0  0  0  0  0  0  0  0  0
   -0.6745   -7.2322    1.6857 C   0  0  0  0  0  0  0  0  0  0  0  0
   -0.7374   -8.4992    2.1291 C   0  0  0  0  0  0  0  0  0  0  0  0
   -0.1792  -11.3045    3.0702 C   0  0  0  0  0  0  0  0  0  0  0  0
   -1.1988  -11.5142    2.3719 C   0  0  0  0  0  0  0  0  0  0  0  0
   -2.0007  -10.2430    2.0348 C   0  0  0  0  0  0  0  0  0  0  0  0
   -1.7695   -9.1202    1.6650 C   0  0  0  0  0  0  0  0  0  0  0  0
    0.3972   -5.0351    1.4672 O   0  0  0  0  0  0  0  0  0  0  0  0
   -1.5849   -6.8375    0.7551 C   0  0  0  0  0  0  0  0  0  0  0  0
   -2.5427   -8.3789    0.7229 C   0  0  0  0  0  0  0  0  0  0  0  0
   -1.9600   -5.9436    0.0975 O   0  0  0  0  0  0  0  0  0  0  0  0
    0.3847  -12.5363    3.6938 C   0  0  0  0  0  0  0  0  0  0  0  0
    1.1520  -13.1985    2.5778 C   0  0  0  0  0  0  0  0  0  0  0  0
  3  4  1  0
  4  8  1  0
  8  9  2  0
  9 10  1  0
  7 11  1  0
 10 11  1  0
  5 12  1  0
  6 13  1  0
 11 14  1  0
 13 14  1  0
 13 15  2  0
  8 16  1  0
 16 17  1  0
  1  2  2  0
  2  5  1  0
  5  6  2  0
  6  7  1  0
  3  7  2  0
  1  3  1  0
M  END

$$$$
No_3268-/export/home/yangzhenyu/potential_scad_32_flow//YTHDC2/2024-12-06-03-22-00/
     RDKit          3D

 18 19  0  0  0  0  0  0  0  0999 V2000
    1.1787   -8.0297    3.5154 C   0  0  0  0  0  0  0  0  0  0  0  0
    1.0491   -6.8434    2.9820 C   0  0  0  0  0  0  0  0  0  0  0  0
    0.0950   -8.8404    3.2292 C   0  0  0  0  0  0  0  0  0  0  0  0
   -0.9173   -8.4596    2.5152 C   0  0  0  0  0  0  0  0  0  0  0  0
   -1.0331   -7.2162    2.0653 C   0  0  0  0  0  0  0  0  0  0  0  0
   -0.0105   -6.3168    2.3081 C   0  0  0  0  0  0  0  0  0  0  0  0
    0.1465  -10.2446    3.6981 C   0  0  0  0  0  0  0  0  0  0  0  0
    1.2433  -10.8239    4.0166 C   0  0  0  0  0  0  0  0  0  0  0  0
    1.0790  -12.2885    4.3779 C   0  0  0  0  0  0  0  0  0  0  0  0
    2.1319  -12.9766    3.6042 C   0  0  0  0  0  0  0  0  0  0  0  0
    1.5346  -14.2917    3.0032 C   0  0  0  0  0  0  0  0  0  0  0  0
    1.2951  -14.4137    1.8359 C   0  0  0  0  0  0  0  0  0  0  0  0
    0.9125  -15.4815    1.1979 C   0  0  0  0  0  0  0  0  0  0  0  0
    0.6538  -16.5785    1.9574 C   0  0  0  0  0  0  0  0  0  0  0  0
    0.8842  -16.6167    3.3365 C   0  0  0  0  0  0  0  0  0  0  0  0
    1.3165  -15.4271    3.9135 C   0  0  0  0  0  0  0  0  0  0  0  0
   -0.0620   -5.0284    1.8512 O   0  0  0  0  0  0  0  0  0  0  0  0
    0.8760   -4.0723    2.3172 C   0  0  0  0  0  0  0  0  0  0  0  0
  3  7  1  0
  7  8  2  3
  8  9  1  0
  9 10  1  0
 10 11  1  0
  6 17  1  0
 17 18  1  0
 11 12  2  0
 12 13  1  0
 13 14  2  0
 14 15  1  0
 15 16  2  0
 11 16  1  0
  1  2  2  0
  2  6  1  0
  5  6  2  0
  4  5  1  0
  3  4  2  0
  1  3  1  0
M  END

$$$$
No_3269-/export/home/yangzhenyu/potential_scad_32_flow//YTHDC2/2024-12-06-03-22-00/
     RDKit          3D

 19 19  0  0  0  0  0  0  0  0999 V2000
    1.1787   -8.0297    3.5154 C   0  0  0  0  0  0  0  0  0  0  0  0
    1.0491   -6.8434    2.9820 C   0  0  0  0  0  0  0  0  0  0  0  0
    1.9985   -8.9840    2.8958 C   0  0  0  0  0  0  0  0  0  0  0  0
    1.1815  -10.1889    2.5497 C   0  0  0  0  0  0  0  0  0  0  0  0
    0.9817  -11.1388    2.8133 C   0  0  0  0  0  0  0  0  0  0  0  0
    0.1125  -12.0891    2.4837 C   0  0  0  0  0  0  0  0  0  0  0  0
   -0.6446  -11.8250    1.4596 C   0  0  0  0  0  0  0  0  0  0  0  0
   -0.2941  -10.7598    0.6431 C   0  0  0  0  0  0  0  0  0  0  0  0
    0.5711   -9.8346    1.1239 C   0  0  0  0  0  0  0  0  0  0  0  0
    1.7128   -5.7488    3.1464 O   0  0  0  0  0  0  0  0  0  0  0  0
    0.9112   -8.6589    0.4747 C   0  0  0  0  0  0  0  0  0  0  0  0
    2.0910   -8.3411    0.0795 C   0  0  0  0  0  0  0  0  0  0  0  0
    2.5329   -7.1927   -0.3184 O   0  0  0  0  0  0  0  0  0  0  0  0
    2.9036   -9.4030   -0.5464 O   0  0  0  0  0  0  0  0  0  0  0  0
    0.1272   -6.5524    1.9798 O   0  0  0  0  0  0  0  0  0  0  0  0
   -0.1269  -13.3546    3.1733 C   0  0  0  0  0  0  0  0  0  0  0  0
    1.0677  -14.1400    3.4784 C   0  0  0  0  0  0  0  0  0  0  0  0
    1.9501  -14.3643    2.3114 C   0  0  0  0  0  0  0  0  0  0  0  0
    1.4185  -15.3221    1.4325 C   0  0  0  0  0  0  0  0  0  0  0  0
  1  2  1  0
  1  3  1  0
  3  4  1  0
  2 10  1  0
  9 11  1  0
 11 12  1  0
 12 13  1  0
 12 14  2  0
  2 15  2  0
  6 16  1  0
 16 17  1  0
 17 18  1  0
 18 19  1  0
  4  5  2  0
  5  6  1  0
  6  7  2  0
  7  8  1  0
  8  9  2  0
  4  9  1  0
M  END

$$$$
No_3270-/export/home/yangzhenyu/potential_scad_32_flow//YTHDC2/2024-12-06-03-22-00/
     RDKit          3D

 16 16  0  0  0  0  0  0  0  0999 V2000
    1.1787   -8.0297    3.5154 N   0  0  0  0  0  0  0  0  0  0  0  0
    0.8669   -7.0905    2.8589 C   0  0  0  0  0  0  0  0  0  0  0  0
    1.0447   -7.3244    1.4123 C   0  0  0  0  0  0  0  0  0  0  0  0
    1.3746   -8.4389    1.0864 C   0  0  0  0  0  0  0  0  0  0  0  0
    1.8493   -9.4093    1.8124 C   0  0  0  0  0  0  0  0  0  0  0  0
    1.7421   -9.2119    3.1541 C   0  0  0  0  0  0  0  0  0  0  0  0
    2.0083  -10.3048    4.0591 C   0  0  0  0  0  0  0  0  0  0  0  0
    3.0873  -10.6217    4.4304 N   0  0  0  0  0  0  0  0  0  0  0  0
    0.9526  -11.0837    4.4671 O   0  0  0  0  0  0  0  0  0  0  0  0
    1.7336   -8.6537   -0.6232 C   0  0  0  0  0  0  0  0  0  0  0  0
    3.0060   -8.8197   -0.9403 O   0  0  0  0  0  0  0  0  0  0  0  0
    0.7622   -8.8140   -1.2776 O   0  0  0  0  0  0  0  0  0  0  0  0
    0.4760   -5.8501    3.3125 C   0  0  0  0  0  0  0  0  0  0  0  0
   -0.1498   -4.9708    3.1986 C   0  0  0  0  0  0  0  0  0  0  0  0
    3.3114  -11.6985    5.4360 O   0  0  0  0  0  0  0  0  0  0  0  0
   -0.7412   -3.6292    3.2588 C   0  0  0  0  0  0  0  0  0  0  0  0
  6  7  1  0
  7  8  1  0
  7  9  2  0
  4 10  1  0
 10 11  1  0
 10 12  2  0
  2 13  1  0
 13 14  3  0
  8 15  2  0
 14 16  1  0
  1  2  2  0
  2  3  1  0
  3  4  2  0
  4  5  1  0
  5  6  2  0
  1  6  1  0
M  END

$$$$
No_3271-/export/home/yangzhenyu/potential_scad_32_flow//YTHDC2/2024-12-06-03-22-00/
     RDKit          3D

 17 18  0  0  1  0  0  0  0  0999 V2000
    1.1787   -8.0297    3.5154 C   0  0  0  0  0  0  0  0  0  0  0  0
    1.0491   -6.8434    2.9820 C   0  0  0  0  0  0  0  0  0  0  0  0
    1.9985   -8.9840    2.8958 C   0  0  2  0  0  0  0  0  0  0  0  0
    1.7297   -9.2108    1.6335 C   0  0  1  0  0  0  0  0  0  0  0  0
    1.7343   -8.0566    0.8408 Cl  0  0  0  0  0  0  0  0  0  0  0  0
    1.7865  -10.4176    3.6731 C   0  0  0  0  0  0  0  0  0  0  0  0
    1.4499  -11.5468    3.1938 C   0  0  0  0  0  0  0  0  0  0  0  0
    1.4545  -11.6567    1.7775 C   0  0  1  0  0  0  0  0  0  0  0  0
    1.7341  -10.5514    0.9978 C   0  0  0  0  0  0  0  0  0  0  0  0
   -0.0248   -6.5576    2.4464 N   0  0  0  0  0  0  0  0  0  0  0  0
   -0.1932   -5.2473    1.7677 C   0  0  0  0  0  0  0  0  0  0  0  0
   -1.2064   -4.9702    1.0029 C   0  0  0  0  0  0  0  0  0  0  0  0
   -1.9855   -6.1292    0.6898 C   0  0  0  0  0  0  0  0  0  0  0  0
   -1.8732   -7.3377    1.1881 C   0  0  0  0  0  0  0  0  0  0  0  0
   -0.8079   -7.6187    2.1362 C   0  0  0  0  0  0  0  0  0  0  0  0
    1.5401  -12.9363    1.2021 C   0  0  0  0  0  0  0  0  0  0  0  0
    1.5276  -10.6681   -0.2141 O   0  0  0  0  0  0  0  0  0  0  0  0
  1  2  1  0
  3  1  1  1
  3  4  1  0
  4  5  1  6
  3  6  1  0
  7  8  1  0
  4  9  1  0
  8  9  1  0
  2 10  1  0
 10 11  1  0
 11 12  1  0
 13 14  1  0
 10 15  1  0
 14 15  1  0
  8 16  1  1
  9 17  2  0
 12 13  1  0
  6  7  1  0
M  END

$$$$
No_3272-/export/home/yangzhenyu/potential_scad_32_flow//YTHDC2/2024-12-06-03-22-00/
     RDKit          3D

 18 19  0  0  1  0  0  0  0  0999 V2000
    1.1787   -8.0297    3.5154 C   0  0  0  0  0  0  0  0  0  0  0  0
    1.1048   -9.2215    3.2892 C   0  0  0  0  0  0  0  0  0  0  0  0
    1.2339   -9.7611    2.0189 C   0  0  0  0  0  0  0  0  0  0  0  0
    1.1954  -11.2312    1.8661 C   0  0  1  0  0  0  0  0  0  0  0  0
    1.5546  -12.1691    2.7931 C   0  0  0  0  0  0  0  0  0  0  0  0
    0.5849   -7.0929    2.5729 C   0  0  0  0  0  0  0  0  0  0  0  0
    0.5651   -5.6716    2.6680 C   0  0  0  0  0  0  0  0  0  0  0  0
   -0.3793   -4.9147    2.1532 C   0  0  0  0  0  0  0  0  0  0  0  0
   -0.3755   -3.4882    2.2883 C   0  0  0  0  0  0  0  0  0  0  0  0
    1.4346  -13.4977    2.4940 C   0  0  2  0  0  0  0  0  0  0  0  0
    0.8356  -13.9275    1.3956 C   0  0  0  0  0  0  0  0  0  0  0  0
    0.4435  -13.1355    0.4410 C   0  0  0  0  0  0  0  0  0  0  0  0
    0.6163  -11.7236    0.6232 C   0  0  0  0  0  0  0  0  0  0  0  0
    0.2559  -10.8567   -0.3424 O   0  0  0  0  0  0  0  0  0  0  0  0
    1.8781  -14.3888    3.4974 Cl  0  0  0  0  0  0  0  0  0  0  0  0
    0.5697   -2.7481    2.9142 C   0  0  0  0  0  0  0  0  0  0  0  0
    1.6922   -3.5651    3.4767 C   0  0  0  0  0  0  0  0  0  0  0  0
    1.6485   -4.9977    3.4011 C   0  0  0  0  0  0  0  0  0  0  0  0
  1  2  1  0
  2  3  2  3
  3  4  1  0
  4  5  1  1
  1  6  2  3
  6  7  1  0
 10 11  1  0
  4 13  1  0
 12 13  1  0
 13 14  2  0
 10 15  1  1
  5 10  1  0
 11 12  1  0
  7  8  2  0
  8  9  1  0
  9 16  2  0
 16 17  1  0
 17 18  2  0
  7 18  1  0
M  END

$$$$
No_3273-/export/home/yangzhenyu/potential_scad_32_flow//YTHDC2/2024-12-06-03-22-00/
     RDKit          3D

 18 20  0  0  0  0  0  0  0  0999 V2000
    1.1787   -8.0297    3.5154 C   0  0  0  0  0  0  0  0  0  0  0  0
    1.0491   -6.8434    2.9820 C   0  0  0  0  0  0  0  0  0  0  0  0
    0.9905   -9.0774    2.6527 C   0  0  0  0  0  0  0  0  0  0  0  0
    0.7897   -8.9519    1.3691 C   0  0  0  0  0  0  0  0  0  0  0  0
    0.7018   -7.7198    0.7892 C   0  0  0  0  0  0  0  0  0  0  0  0
    0.8918   -6.5957    1.6117 C   0  0  0  0  0  0  0  0  0  0  0  0
    1.0998  -10.4710    3.2437 C   0  0  0  0  0  0  0  0  0  0  0  0
    2.1917  -10.8879    3.7399 C   0  0  0  0  0  0  0  0  0  0  0  0
    0.8983   -5.2566    1.2088 Cl  0  0  0  0  0  0  0  0  0  0  0  0
   -0.0185  -11.2263    3.3687 C   0  0  0  0  0  0  0  0  0  0  0  0
   -0.0817  -12.5080    3.1849 C   0  0  0  0  0  0  0  0  0  0  0  0
    1.2124  -13.1376    2.9744 C   0  0  0  0  0  0  0  0  0  0  0  0
    2.4142  -12.2591    3.3949 C   0  0  0  0  0  0  0  0  0  0  0  0
    1.6115  -13.7330    1.7967 C   0  0  0  0  0  0  0  0  0  0  0  0
    1.0190  -14.8701    1.5136 C   0  0  0  0  0  0  0  0  0  0  0  0
    0.1745  -15.4533    2.4388 C   0  0  0  0  0  0  0  0  0  0  0  0
   -0.0067  -14.8336    3.7295 C   0  0  0  0  0  0  0  0  0  0  0  0
    0.5774  -13.7695    4.0149 C   0  0  0  0  0  0  0  0  0  0  0  0
  3  7  1  0
  7  8  1  0
  6  9  1  0
  7 10  1  0
 11 12  1  0
  8 13  1  0
 12 13  1  0
 12 14  1  0
 15 16  1  0
 12 18  1  0
 17 18  1  0
 14 15  1  0
 16 17  1  0
 10 11  1  0
  1  2  2  0
  2  6  1  0
  5  6  2  0
  4  5  1  0
  3  4  2  0
  1  3  1  0
M  END

$$$$
No_3274-/export/home/yangzhenyu/potential_scad_32_flow//YTHDC2/2024-12-06-03-22-00/
     RDKit          3D

 19 20  0  0  1  0  0  0  0  0999 V2000
    1.1787   -8.0297    3.5154 C   0  0  0  0  0  0  0  0  0  0  0  0
    1.0491   -6.8434    2.9820 C   0  0  1  0  0  0  0  0  0  0  0  0
    1.9985   -8.9840    2.8958 C   0  0  0  0  0  0  0  0  0  0  0  0
    1.9135  -10.3404    3.6266 C   0  0  0  0  0  0  0  0  0  0  0  0
    0.7479  -10.9191    3.7202 C   0  0  0  0  0  0  0  0  0  0  0  0
    1.8085   -5.7988    3.2380 C   0  0  0  0  0  0  0  0  0  0  0  0
    0.6998  -12.3189    3.4968 C   0  0  0  0  0  0  0  0  0  0  0  0
    1.8802  -13.0667    3.4012 C   0  0  0  0  0  0  0  0  0  0  0  0
    1.4685   -4.6388    2.4929 C   0  0  0  0  0  0  0  0  0  0  0  0
    0.4576   -4.9694    1.3836 C   0  0  0  0  0  0  0  0  0  0  0  0
    0.2013   -6.3965    1.5942 C   0  0  0  0  0  0  0  0  0  0  0  0
    1.5375  -14.4534    2.8854 C   0  0  0  0  0  0  0  0  0  0  0  0
    0.4142  -14.8896    2.6732 C   0  0  0  0  0  0  0  0  0  0  0  0
   -0.7213  -14.0235    2.7937 C   0  0  0  0  0  0  0  0  0  0  0  0
   -0.5635  -12.7426    3.1869 C   0  0  0  0  0  0  0  0  0  0  0  0
   -0.4689   -7.1118    0.9426 C   0  0  0  0  0  0  0  0  0  0  0  0
   -1.8449   -6.9215    0.7597 O   0  0  0  0  0  0  0  0  0  0  0  0
   -0.1230   -8.4174    0.5612 O   0  0  0  0  0  0  0  0  0  0  0  0
   -0.2952  -10.2611    4.3235 O   0  0  0  0  0  0  0  0  0  0  0  0
  2  1  1  6
  1  3  1  0
  3  4  1  0
  4  5  1  0
  2  6  1  0
  5  7  1  0
  6  9  2  0
  9 10  1  0
  2 11  1  0
 10 11  1  0
 11 16  1  0
 16 17  2  0
 16 18  1  0
  5 19  2  0
  7  8  2  0
  8 12  1  0
 12 13  2  0
 13 14  1  0
 14 15  2  0
  7 15  1  0
M  END

$$$$
No_3275-/export/home/yangzhenyu/potential_scad_32_flow//YTHDC2/2024-12-06-03-22-00/
     RDKit          3D

 20 22  0  0  0  0  0  0  0  0999 V2000
    1.1787   -8.0297    3.5154 C   0  0  0  0  0  0  0  0  0  0  0  0
    1.0491   -6.8434    2.9820 N   0  0  0  0  0  0  0  0  0  0  0  0
    0.1476   -8.8697    3.1493 C   0  0  0  0  0  0  0  0  0  0  0  0
   -0.7634   -8.3679    2.4311 C   0  0  0  0  0  0  0  0  0  0  0  0
   -0.1709   -6.9105    2.2426 C   0  0  0  0  0  0  0  0  0  0  0  0
   -0.7122   -5.8574    1.6627 C   0  0  0  0  0  0  0  0  0  0  0  0
   -1.7772   -5.9867    0.8722 C   0  0  0  0  0  0  0  0  0  0  0  0
   -2.2339   -7.3651    0.7349 C   0  0  0  0  0  0  0  0  0  0  0  0
   -1.7719   -8.3779    1.5031 C   0  0  0  0  0  0  0  0  0  0  0  0
    0.1027  -10.3015    3.3841 C   0  0  0  0  0  0  0  0  0  0  0  0
    1.0944  -11.0903    3.7769 C   0  0  0  0  0  0  0  0  0  0  0  0
    0.9537  -12.4751    3.9206 C   0  0  0  0  0  0  0  0  0  0  0  0
   -0.1633  -12.9619    3.4313 C   0  0  0  0  0  0  0  0  0  0  0  0
   -1.1320  -12.3431    2.9171 C   0  0  0  0  0  0  0  0  0  0  0  0
   -1.0768  -10.9421    2.9373 C   0  0  0  0  0  0  0  0  0  0  0  0
   -3.4576   -7.5435    0.0301 C   0  0  0  0  0  0  0  0  0  0  0  0
   -3.6034   -8.6780   -0.6805 O   0  0  0  0  0  0  0  0  0  0  0  0
   -4.0974   -6.4604   -0.4718 O   0  0  0  0  0  0  0  0  0  0  0  0
   -0.2813  -14.3808    3.4096 C   0  0  0  0  0  0  0  0  0  0  0  0
   -0.0455  -15.1335    2.2810 N   0  0  0  0  0  0  0  0  0  0  0  0
  1  2  1  0
  1  3  2  0
  3  4  1  0
  2  5  1  0
  3 10  1  0
  8 16  1  0
 16 17  2  0
 16 18  1  0
 13 19  1  0
 19 20  1  0
 10 11  2  0
 11 12  1  0
 12 13  2  0
 13 14  1  0
 14 15  2  0
 10 15  1  0
  4  5  2  0
  5  6  1  0
  6  7  2  0
  7  8  1  0
  8  9  2  0
  4  9  1  0
M  END

$$$$
No_3276-/export/home/yangzhenyu/potential_scad_32_flow//YTHDC2/2024-12-06-03-22-00/
     RDKit          3D

 18 19  0  0  1  0  0  0  0  0999 V2000
    1.1787   -8.0297    3.5154 C   0  0  0  0  0  0  0  0  0  0  0  0
    1.0491   -6.8434    2.9820 C   0  0  0  0  0  0  0  0  0  0  0  0
    0.9905   -9.0774    2.6527 C   0  0  0  0  0  0  0  0  0  0  0  0
    0.7897   -8.9519    1.3691 C   0  0  0  0  0  0  0  0  0  0  0  0
    0.7018   -7.7198    0.7892 C   0  0  0  0  0  0  0  0  0  0  0  0
    0.8918   -6.5957    1.6117 C   0  0  0  0  0  0  0  0  0  0  0  0
    1.0998  -10.4710    3.2437 C   0  0  0  0  0  0  0  0  0  0  0  0
    1.3102  -11.5554    2.5214 C   0  0  0  0  0  0  0  0  0  0  0  0
    1.4257  -12.8124    3.1919 C   0  0  0  0  0  0  0  0  0  0  0  0
    0.9222  -13.9339    2.5039 C   0  0  1  0  0  0  0  0  0  0  0  0
   -0.1904  -14.0081    1.9344 C   0  0  2  0  0  0  0  0  0  0  0  0
    0.8732   -5.2676    1.2061 C   0  0  0  0  0  0  0  0  0  0  0  0
   -0.2303  -14.3415    0.8000 N   0  0  0  0  0  0  0  0  0  0  0  0
    2.0222  -14.5666    1.6486 N   0  0  0  0  0  0  0  0  0  0  0  0
   -1.4112  -14.2632    0.1452 C   0  0  0  0  0  0  0  0  0  0  0  0
   -2.2586  -13.7743    0.8164 N   0  0  0  0  0  0  0  0  0  0  0  0
   -1.5709  -13.5153    2.1212 C   0  0  0  0  0  0  0  0  0  0  0  0
    1.5318   -4.3440    1.9020 O   0  0  0  0  0  0  0  0  0  0  0  0
  3  7  1  0
  7  8  2  3
  8  9  1  0
  9 10  1  0
 10 11  1  0
  6 12  1  0
 11 13  1  0
 10 14  1  6
 13 15  2  0
 15 16  1  0
 11 17  1  6
 16 17  1  0
 12 18  2  0
  1  2  2  0
  2  6  1  0
  5  6  2  0
  4  5  1  0
  3  4  2  0
  1  3  1  0
M  END

$$$$
No_3277-/export/home/yangzhenyu/potential_scad_32_flow//YTHDC2/2024-12-06-03-22-00/
     RDKit          3D

 19 20  0  0  0  0  0  0  0  0999 V2000
    1.1787   -8.0297    3.5154 C   0  0  0  0  0  0  0  0  0  0  0  0
    1.1048   -9.2215    3.2892 C   0  0  0  0  0  0  0  0  0  0  0  0
    1.0239   -9.7790    2.0239 C   0  0  0  0  0  0  0  0  0  0  0  0
    1.1393   -9.0211    0.9686 C   0  0  0  0  0  0  0  0  0  0  0  0
    1.4051   -7.6500    1.1251 C   0  0  0  0  0  0  0  0  0  0  0  0
    1.4868   -7.1041    2.3534 C   0  0  0  0  0  0  0  0  0  0  0  0
    1.5885   -5.7190    2.5687 C   0  0  0  0  0  0  0  0  0  0  0  0
    0.8747  -11.3633    1.9261 C   0  0  0  0  0  0  0  0  0  0  0  0
   -0.2067  -11.6965    1.2277 C   0  0  0  0  0  0  0  0  0  0  0  0
   -0.1757  -12.9714    0.7254 C   0  0  0  0  0  0  0  0  0  0  0  0
    0.8849  -13.8154    1.0484 C   0  0  0  0  0  0  0  0  0  0  0  0
    1.9366  -13.3805    1.8129 C   0  0  0  0  0  0  0  0  0  0  0  0
    1.9887  -12.0969    2.1927 C   0  0  0  0  0  0  0  0  0  0  0  0
    1.4722   -5.1660    3.7493 O   0  0  0  0  0  0  0  0  0  0  0  0
    1.6388   -4.8694    1.5655 O   0  0  0  0  0  0  0  0  0  0  0  0
    1.1408   -9.4733   -0.3929 C   0  0  0  0  0  0  0  0  0  0  0  0
    0.9708   -8.9018   -1.3020 O   0  0  0  0  0  0  0  0  0  0  0  0
    1.2299  -10.7468   -0.5812 O   0  0  0  0  0  0  0  0  0  0  0  0
    0.8934  -15.1144    0.6407 O   0  0  0  0  0  0  0  0  0  0  0  0
  6  7  1  0
  3  8  1  0
  7 14  1  0
  7 15  2  0
  4 16  1  0
 16 17  2  0
 16 18  1  0
 11 19  1  0
  1  2  2  0
  2  3  1  0
  3  4  2  0
  4  5  1  0
  5  6  2  0
  1  6  1  0
  8  9  2  0
  9 10  1  0
 10 11  2  0
 11 12  1  0
 12 13  2  0
  8 13  1  0
M  END

$$$$
No_3278-/export/home/yangzhenyu/potential_scad_32_flow//YTHDC2/2024-12-06-03-22-00/
     RDKit          3D

 19 20  0  0  1  0  0  0  0  0999 V2000
    1.1787   -8.0297    3.5154 O   0  0  0  0  0  0  0  0  0  0  0  0
    0.9969   -8.9689    3.0048 C   0  0  1  0  0  0  0  0  0  0  0  0
    0.9976   -8.9567    1.6341 C   0  0  2  0  0  0  0  0  0  0  0  0
    1.6062   -9.9071    0.9292 C   0  0  0  0  0  0  0  0  0  0  0  0
    2.1191  -10.9757    1.6503 C   0  0  0  0  0  0  0  0  0  0  0  0
    2.1177  -10.9891    3.0403 C   0  0  1  0  0  0  0  0  0  0  0  0
    1.5441   -9.8905    3.6897 C   0  0  0  0  0  0  0  0  0  0  0  0
    0.5010   -7.8164    1.0436 C   0  0  0  0  0  0  0  0  0  0  0  0
    1.0624   -6.6356    1.1779 O   0  0  0  0  0  0  0  0  0  0  0  0
   -0.4567   -7.7893    0.1161 O   0  0  0  0  0  0  0  0  0  0  0  0
    1.6319  -10.1449    5.0154 O   0  0  0  0  0  0  0  0  0  0  0  0
    2.5895  -12.1989    3.5656 O   0  0  0  0  0  0  0  0  0  0  0  0
   -1.6598   -7.2496    0.4130 C   0  0  1  0  0  0  0  0  0  0  0  0
   -2.5626   -7.9514    1.1204 C   0  0  0  0  0  0  0  0  0  0  0  0
   -2.7979   -7.6246    2.3900 C   0  0  0  0  0  0  0  0  0  0  0  0
   -2.7516   -6.2715    2.7926 C   0  0  0  0  0  0  0  0  0  0  0  0
   -1.9949   -5.3236    1.9835 C   0  0  0  0  0  0  0  0  0  0  0  0
   -1.5994   -5.6941    0.7272 C   0  0  0  0  0  0  0  0  0  0  0  0
   -1.7050   -4.0906    2.4738 O   0  0  0  0  0  0  0  0  0  0  0  0
  2  1  1  1
  2  3  1  0
  4  5  1  0
  2  7  1  0
  6  7  1  0
  3  8  1  1
  8  9  2  0
  8 10  1  0
  7 11  2  0
  6 12  1  6
 13 10  1  1
 13 14  1  0
 14 15  1  0
 15 16  1  0
 16 17  1  0
 13 18  1  0
 17 18  1  0
 17 19  2  0
  3  4  1  0
  5  6  1  0
M  END

$$$$
No_3279-/export/home/yangzhenyu/potential_scad_32_flow//YTHDC2/2024-12-06-03-22-00/
     RDKit          3D

 16 17  0  0  1  0  0  0  0  0999 V2000
    1.1787   -8.0297    3.5154 C   0  0  0  0  0  0  0  0  0  0  0  0
    1.1048   -9.2215    3.2892 C   0  0  0  0  0  0  0  0  0  0  0  0
    1.2339   -9.7611    2.0189 C   0  0  0  0  0  0  0  0  0  0  0  0
    1.3583   -9.0036    0.9764 C   0  0  0  0  0  0  0  0  0  0  0  0
    1.5996   -7.6362    1.1311 C   0  0  0  0  0  0  0  0  0  0  0  0
    1.4830   -7.0928    2.3626 C   0  0  0  0  0  0  0  0  0  0  0  0
    1.1008  -11.2372    1.8542 C   0  0  1  0  0  0  0  0  0  0  0  0
    0.4812  -11.6084    0.6459 C   0  0  0  0  0  0  0  0  0  0  0  0
    0.5134  -13.0269    0.4830 C   0  0  0  0  0  0  0  0  0  0  0  0
    1.2057  -13.8685    1.2734 C   0  0  0  0  0  0  0  0  0  0  0  0
    1.9819  -13.3990    2.3594 C   0  0  1  0  0  0  0  0  0  0  0  0
    1.8610  -12.0988    2.6716 C   0  0  0  0  0  0  0  0  0  0  0  0
    2.4163  -11.5839    3.7861 O   0  0  0  0  0  0  0  0  0  0  0  0
    1.5574   -5.6480    2.6418 Cl  0  0  0  0  0  0  0  0  0  0  0  0
    1.5385   -9.4510   -0.3483 Cl  0  0  0  0  0  0  0  0  0  0  0  0
    2.5478  -14.3241    3.1597 F   0  0  0  0  0  0  0  0  0  0  0  0
  7  3  1  6
  7  8  1  0
  9 10  1  0
  7 12  1  0
 11 12  1  0
 12 13  2  0
  6 14  1  0
  4 15  1  0
 11 16  1  1
  8  9  1  0
 10 11  1  0
  1  2  2  0
  2  3  1  0
  3  4  2  0
  4  5  1  0
  5  6  2  0
  1  6  1  0
M  END

$$$$
No_3280-/export/home/yangzhenyu/potential_scad_32_flow//YTHDC2/2024-12-06-03-22-00/
     RDKit          3D

 19 20  0  0  1  0  0  0  0  0999 V2000
    1.1787   -8.0297    3.5154 C   0  0  0  0  0  0  0  0  0  0  0  0
    1.1048   -9.2215    3.2892 C   0  0  0  0  0  0  0  0  0  0  0  0
    1.2339   -9.7611    2.0189 C   0  0  0  0  0  0  0  0  0  0  0  0
    1.4306   -8.9466    1.1170 C   0  0  1  0  0  0  0  0  0  0  0  0
    1.6532   -7.5949    1.1786 Cl  0  0  0  0  0  0  0  0  0  0  0  0
    1.7310   -9.5206   -0.3173 C   0  0  1  0  0  0  0  0  0  0  0  0
    1.6333  -10.7829   -0.3579 Cl  0  0  0  0  0  0  0  0  0  0  0  0
    1.7348   -8.7759   -1.3320 F   0  0  0  0  0  0  0  0  0  0  0  0
    0.3030   -7.1058    3.5254 C   0  0  0  0  0  0  0  0  0  0  0  0
   -1.0286   -7.6753    3.5034 C   0  0  0  0  0  0  0  0  0  0  0  0
   -1.2917   -8.9993    3.6856 C   0  0  0  0  0  0  0  0  0  0  0  0
   -0.1517   -9.8546    3.5864 C   0  0  0  0  0  0  0  0  0  0  0  0
   -2.5096   -9.5266    4.2248 C   0  0  0  0  0  0  0  0  0  0  0  0
   -3.0510  -10.6681    3.7483 C   0  0  0  0  0  0  0  0  0  0  0  0
   -4.1967  -11.1458    4.2928 C   0  0  0  0  0  0  0  0  0  0  0  0
   -4.8336  -10.4981    5.3300 C   0  0  0  0  0  0  0  0  0  0  0  0
   -4.3044   -9.3714    5.8923 C   0  0  0  0  0  0  0  0  0  0  0  0
   -3.1431   -8.8567    5.3400 C   0  0  0  0  0  0  0  0  0  0  0  0
   -6.0139  -11.1043    5.8373 C   0  0  0  0  0  0  0  0  0  0  0  0
  3  4  1  0
  4  5  1  1
  4  6  1  0
  6  7  1  0
  6  8  1  6
 11 13  1  0
 16 19  1  0
  2  3  1  0
  1  2  2  0
  2 12  1  0
 11 12  2  0
 10 11  1  0
  9 10  2  0
  1  9  1  0
 13 14  2  0
 14 15  1  0
 15 16  2  0
 16 17  1  0
 17 18  2  0
 13 18  1  0
M  END

$$$$
No_3281-/export/home/yangzhenyu/potential_scad_32_flow//YTHDC2/2024-12-06-03-22-00/
     RDKit          3D

 20 21  0  0  1  0  0  0  0  0999 V2000
    1.1787   -8.0297    3.5154 C   0  0  0  0  0  0  0  0  0  0  0  0
    1.1048   -9.2215    3.2892 C   0  0  0  0  0  0  0  0  0  0  0  0
    1.2339   -9.7611    2.0189 C   0  0  0  0  0  0  0  0  0  0  0  0
    1.3583   -9.0036    0.9764 C   0  0  0  0  0  0  0  0  0  0  0  0
    1.5996   -7.6362    1.1311 C   0  0  0  0  0  0  0  0  0  0  0  0
    1.4830   -7.0928    2.3626 C   0  0  0  0  0  0  0  0  0  0  0  0
    1.1171  -11.3311    1.8661 C   0  0  0  0  0  0  0  0  0  0  0  0
    0.5022  -11.6388    0.6531 C   0  0  0  0  0  0  0  0  0  0  0  0
   -0.5299  -12.4202    0.9357 C   0  0  0  0  0  0  0  0  0  0  0  0
   -0.5271  -13.2041    2.0625 C   0  0  0  0  0  0  0  0  0  0  0  0
    0.3551  -12.8810    3.1724 C   0  0  0  0  0  0  0  0  0  0  0  0
    1.2513  -11.8887    2.9822 C   0  0  0  0  0  0  0  0  0  0  0  0
    1.5593   -5.6461    2.6507 Cl  0  0  0  0  0  0  0  0  0  0  0  0
   -1.2184  -14.4486    2.1830 C   0  0  2  0  0  0  0  0  0  0  0  0
   -2.5952  -14.3505    2.1931 N   0  0  0  0  0  0  0  0  0  0  0  0
   -0.6802  -15.6262    2.4609 C   0  0  0  0  0  0  0  0  0  0  0  0
    0.6450  -15.8328    2.6164 C   0  0  0  0  0  0  0  0  0  0  0  0
    1.1994  -16.9922    2.9954 C   0  0  0  0  0  0  0  0  0  0  0  0
    0.5268  -17.9895    3.3319 C   0  0  0  0  0  0  0  0  0  0  0  0
   -0.8320  -17.9294    3.1406 C   0  0  0  0  0  0  0  0  0  0  0  0
  3  7  1  0
  6 13  1  0
 10 14  1  0
 14 15  1  1
 14 16  1  0
 16 17  2  3
 17 18  1  0
 18 19  2  3
 19 20  1  0
  1  2  2  0
  2  3  1  0
  3  4  2  0
  4  5  1  0
  5  6  2  0
  1  6  1  0
  7  8  2  0
  8  9  1  0
  9 10  2  0
 10 11  1  0
 11 12  2  0
  7 12  1  0
M  END

$$$$
No_3282-/export/home/yangzhenyu/potential_scad_32_flow//YTHDC2/2024-12-06-03-22-00/
     RDKit          3D

 18 19  0  0  0  0  0  0  0  0999 V2000
    1.1787   -8.0297    3.5154 C   0  0  0  0  0  0  0  0  0  0  0  0
    1.0491   -6.8434    2.9820 C   0  0  0  0  0  0  0  0  0  0  0  0
    0.9905   -9.0774    2.6527 C   0  0  0  0  0  0  0  0  0  0  0  0
    0.7897   -8.9519    1.3691 C   0  0  0  0  0  0  0  0  0  0  0  0
    0.7018   -7.7198    0.7892 C   0  0  0  0  0  0  0  0  0  0  0  0
    0.8918   -6.5957    1.6117 C   0  0  0  0  0  0  0  0  0  0  0  0
    1.0711  -10.4814    3.2282 C   0  0  0  0  0  0  0  0  0  0  0  0
   -0.1055  -11.1328    3.5223 C   0  0  0  0  0  0  0  0  0  0  0  0
   -0.7419  -11.5628    2.6150 C   0  0  0  0  0  0  0  0  0  0  0  0
   -2.0657  -11.3665    2.4148 C   0  0  0  0  0  0  0  0  0  0  0  0
   -2.9740  -12.0534    1.7785 C   0  0  0  0  0  0  0  0  0  0  0  0
   -2.3962  -13.1815    1.1282 C   0  0  0  0  0  0  0  0  0  0  0  0
   -1.0683  -13.4831    1.1312 C   0  0  0  0  0  0  0  0  0  0  0  0
   -0.2178  -12.7595    1.9935 C   0  0  0  0  0  0  0  0  0  0  0  0
    1.1504  -13.1651    2.0724 C   0  0  0  0  0  0  0  0  0  0  0  0
    1.5790  -14.4463    1.7355 N   0  0  0  0  0  0  0  0  0  0  0  0
    1.2192  -15.3940    2.3653 C   0  0  0  0  0  0  0  0  0  0  0  0
    1.7957  -16.6755    2.1691 O   0  0  0  0  0  0  0  0  0  0  0  0
  3  7  1  0
  7  8  1  0
  8  9  1  0
 14 15  1  0
 15 16  1  0
 16 17  1  0
 17 18  2  0
  1  2  2  0
  2  6  1  0
  5  6  2  0
  4  5  1  0
  3  4  2  0
  1  3  1  0
  9 10  2  0
 10 11  1  0
 11 12  2  0
 12 13  1  0
 13 14  2  0
  9 14  1  0
M  END

$$$$
No_3283-/export/home/yangzhenyu/potential_scad_32_flow//YTHDC2/2024-12-06-03-22-00/
     RDKit          3D

 19 21  0  0  0  0  0  0  0  0999 V2000
    1.1787   -8.0297    3.5154 C   0  0  0  0  0  0  0  0  0  0  0  0
    1.0491   -6.8434    2.9820 C   0  0  0  0  0  0  0  0  0  0  0  0
    0.0950   -8.8404    3.2292 C   0  0  0  0  0  0  0  0  0  0  0  0
   -0.9173   -8.4596    2.5152 C   0  0  0  0  0  0  0  0  0  0  0  0
   -1.0331   -7.2162    2.0653 C   0  0  0  0  0  0  0  0  0  0  0  0
   -0.0105   -6.3168    2.3081 C   0  0  0  0  0  0  0  0  0  0  0  0
    0.1465  -10.2446    3.6981 C   0  0  0  0  0  0  0  0  0  0  0  0
   -1.0336  -10.8619    3.9439 C   0  0  0  0  0  0  0  0  0  0  0  0
   -2.1702  -10.4673    3.2991 C   0  0  0  0  0  0  0  0  0  0  0  0
   -2.1358   -9.2084    2.5791 C   0  0  0  0  0  0  0  0  0  0  0  0
   -3.2931  -11.2079    3.0734 C   0  0  0  0  0  0  0  0  0  0  0  0
   -0.0436   -4.9790    1.8066 C   0  0  0  0  0  0  0  0  0  0  0  0
   -0.8316   -4.1137    2.1997 C   0  0  0  0  0  0  0  0  0  0  0  0
   -0.3496   -2.9108    2.7140 C   0  0  0  0  0  0  0  0  0  0  0  0
    0.9083   -2.4572    2.1274 C   0  0  0  0  0  0  0  0  0  0  0  0
    1.7723   -3.2804    1.6197 C   0  0  0  0  0  0  0  0  0  0  0  0
    1.3134   -4.6042    1.3520 C   0  0  0  0  0  0  0  0  0  0  0  0
   -4.3901  -11.0312    3.8182 O   0  0  0  0  0  0  0  0  0  0  0  0
   -3.2456  -12.2479    2.2208 N   0  0  0  0  0  0  0  0  0  0  0  0
  9 11  1  0
  6 12  1  0
 11 18  2  0
 11 19  1  0
 12 13  2  0
 13 14  1  0
 14 15  2  0
 15 16  1  0
 16 17  2  0
 12 17  1  0
  4 10  2  0
  9 10  1  0
  8  9  2  0
  7  8  1  0
  3  7  2  0
  1  2  2  0
  2  6  1  0
  5  6  2  0
  4  5  1  0
  3  4  1  0
  1  3  1  0
M  END

$$$$
No_3284-/export/home/yangzhenyu/potential_scad_32_flow//YTHDC2/2024-12-06-03-22-00/
     RDKit          3D

 18 19  0  0  0  0  0  0  0  0999 V2000
    1.1787   -8.0297    3.5154 C   0  0  0  0  0  0  0  0  0  0  0  0
    1.0491   -6.8434    2.9820 C   0  0  0  0  0  0  0  0  0  0  0  0
    0.9905   -9.0774    2.6527 C   0  0  0  0  0  0  0  0  0  0  0  0
    0.7897   -8.9519    1.3691 C   0  0  0  0  0  0  0  0  0  0  0  0
    0.7018   -7.7198    0.7892 C   0  0  0  0  0  0  0  0  0  0  0  0
    0.8918   -6.5957    1.6117 C   0  0  0  0  0  0  0  0  0  0  0  0
    1.0600  -10.5680    3.3321 C   0  0  0  0  0  0  0  0  0  0  0  0
   -0.1041  -11.1772    3.5150 C   0  0  0  0  0  0  0  0  0  0  0  0
   -0.1608  -12.4876    3.3268 C   0  0  0  0  0  0  0  0  0  0  0  0
    0.9865  -13.2841    3.1741 C   0  0  0  0  0  0  0  0  0  0  0  0
    2.2316  -12.5817    3.0045 C   0  0  0  0  0  0  0  0  0  0  0  0
    2.2290  -11.2587    2.9229 C   0  0  0  0  0  0  0  0  0  0  0  0
    0.9652  -14.6598    3.2128 O   0  0  0  0  0  0  0  0  0  0  0  0
    0.8565   -5.2743    1.1203 C   0  0  0  0  0  0  0  0  0  0  0  0
    0.2010   -4.2227    1.8977 C   0  0  0  0  0  0  0  0  0  0  0  0
    0.1826   -3.0663    1.3472 C   0  0  0  0  0  0  0  0  0  0  0  0
    0.9895   -1.9795    1.7378 C   0  0  0  0  0  0  0  0  0  0  0  0
    1.9396  -15.3639    2.6263 C   0  0  0  0  0  0  0  0  0  0  0  0
  3  7  1  0
 10 13  1  0
  6 14  1  0
 14 15  1  0
 15 16  1  0
 16 17  1  0
 13 18  1  0
  1  2  2  0
  2  6  1  0
  5  6  2  0
  4  5  1  0
  3  4  2  0
  1  3  1  0
  7  8  2  0
  8  9  1  0
  9 10  2  0
 10 11  1  0
 11 12  2  0
  7 12  1  0
M  END

$$$$
No_3285-/export/home/yangzhenyu/potential_scad_32_flow//YTHDC2/2024-12-06-03-22-00/
     RDKit          3D

 20 22  0  0  0  0  0  0  0  0999 V2000
    1.1787   -8.0297    3.5154 C   0  0  0  0  0  0  0  0  0  0  0  0
    1.1048   -9.2215    3.2892 C   0  0  0  0  0  0  0  0  0  0  0  0
    1.3627  -10.1721    4.3044 C   0  0  0  0  0  0  0  0  0  0  0  0
    1.0682  -11.5187    4.0618 C   0  0  0  0  0  0  0  0  0  0  0  0
    0.7653  -11.7320    2.7387 C   0  0  0  0  0  0  0  0  0  0  0  0
    0.5661  -10.9730    1.8367 C   0  0  0  0  0  0  0  0  0  0  0  0
    0.7745   -9.6758    2.0361 C   0  0  0  0  0  0  0  0  0  0  0  0
    1.2131   -6.9952    2.4858 C   0  0  0  0  0  0  0  0  0  0  0  0
    1.0372   -7.3618    1.2450 C   0  0  0  0  0  0  0  0  0  0  0  0
    0.8884   -8.7092    0.9459 C   0  0  0  0  0  0  0  0  0  0  0  0
    0.4710   -9.0926   -0.2605 C   0  0  0  0  0  0  0  0  0  0  0  0
    0.0244   -8.6676   -1.0798 O   0  0  0  0  0  0  0  0  0  0  0  0
    0.5455  -13.2589    2.4997 C   0  0  0  0  0  0  0  0  0  0  0  0
    1.4201  -14.1904    2.8864 C   0  0  0  0  0  0  0  0  0  0  0  0
    1.1560  -15.5533    2.6460 C   0  0  0  0  0  0  0  0  0  0  0  0
    0.1856  -15.9119    1.9802 C   0  0  0  0  0  0  0  0  0  0  0  0
   -0.6768  -15.0089    1.3896 C   0  0  0  0  0  0  0  0  0  0  0  0
   -0.4520  -13.5752    1.7318 C   0  0  0  0  0  0  0  0  0  0  0  0
    0.9828  -10.2522   -0.7401 O   0  0  0  0  0  0  0  0  0  0  0  0
    1.4121   -5.5797    2.8382 Cl  0  0  0  0  0  0  0  0  0  0  0  0
 10 11  1  0
 11 12  2  0
  5 13  1  0
 11 19  1  0
  8 20  1  0
  2  3  1  0
  3  4  2  0
  4  5  1  0
  5  6  2  0
  6  7  1  0
 13 14  2  0
 14 15  1  0
 15 16  2  0
 16 17  1  0
 17 18  2  0
 13 18  1  0
  1  2  2  0
  2  7  1  0
  7 10  2  0
  9 10  1  0
  8  9  2  0
  1  8  1  0
M  END

$$$$
No_3286-/export/home/yangzhenyu/potential_scad_32_flow//YTHDC2/2024-12-06-03-22-00/
     RDKit          3D

 19 19  0  0  1  0  0  0  0  0999 V2000
    1.1787   -8.0297    3.5154 C   0  0  2  0  0  0  0  0  0  0  0  0
    1.0491   -6.8434    2.9820 O   0  0  0  0  0  0  0  0  0  0  0  0
    1.9898   -8.9833    2.9120 C   0  0  0  0  0  0  0  0  0  0  0  0
    1.9301  -10.2956    3.6452 C   0  0  2  0  0  0  0  0  0  0  0  0
    1.0625  -10.5355    4.6754 C   0  0  0  0  0  0  0  0  0  0  0  0
    0.0507   -9.6413    4.8216 C   0  0  0  0  0  0  0  0  0  0  0  0
    0.0019   -8.4462    4.1512 C   0  0  0  0  0  0  0  0  0  0  0  0
    1.2031   -5.6969    3.4281 C   0  0  0  0  0  0  0  0  0  0  0  0
   -0.8816   -7.4891    4.4134 O   0  0  0  0  0  0  0  0  0  0  0  0
    3.0324  -11.1704    3.3162 N   0  0  0  0  0  0  0  0  0  0  0  0
    0.6661   -4.5406    2.8139 C   0  0  1  0  0  0  0  0  0  0  0  0
    0.8328   -3.3520    3.5566 C   0  0  0  0  0  0  0  0  0  0  0  0
    1.9844   -2.7363    3.5829 C   0  0  0  0  0  0  0  0  0  0  0  0
    1.0776   -4.3226    1.4200 C   0  0  0  0  0  0  0  0  0  0  0  0
    0.3418   -3.2692    0.8138 C   0  0  0  0  0  0  0  0  0  0  0  0
   -0.8439   -3.3837    0.0960 C   0  0  0  0  0  0  0  0  0  0  0  0
   -1.1965   -2.2971   -0.6954 C   0  0  0  0  0  0  0  0  0  0  0  0
   -0.3384   -1.1674   -0.7822 C   0  0  0  0  0  0  0  0  0  0  0  0
    0.8789   -1.1004   -0.2194 C   0  0  0  0  0  0  0  0  0  0  0  0
  1  2  1  6
  1  3  1  0
  4  5  1  0
  1  7  1  0
  6  7  1  0
  2  8  1  0
  7  9  2  0
  4 10  1  1
 11  8  1  1
 11 12  1  0
 12 13  1  0
 11 14  1  0
 14 15  1  0
 15 16  1  0
 16 17  2  3
 17 18  1  0
 18 19  2  0
  3  4  1  0
  5  6  1  0
M  END

$$$$
No_3287-/export/home/yangzhenyu/potential_scad_32_flow//YTHDC2/2024-12-06-03-22-00/
     RDKit          3D

 19 21  0  0  1  0  0  0  0  0999 V2000
    1.1787   -8.0297    3.5154 O   0  0  0  0  0  0  0  0  0  0  0  0
    0.9969   -8.9689    3.0048 C   0  0  0  0  0  0  0  0  0  0  0  0
    1.3055  -10.1056    3.6616 C   0  0  0  0  0  0  0  0  0  0  0  0
    1.1249  -11.3503    3.0941 C   0  0  0  0  0  0  0  0  0  0  0  0
    1.4907  -12.5554    3.7266 C   0  0  0  0  0  0  0  0  0  0  0  0
    0.6645   -9.1181    1.7007 C   0  0  0  0  0  0  0  0  0  0  0  0
    0.5373  -10.2813    1.0793 N   0  0  0  0  0  0  0  0  0  0  0  0
    0.8044  -11.3618    1.6980 C   0  0  0  0  0  0  0  0  0  0  0  0
    0.4536   -7.8373    0.9924 C   0  0  2  0  0  0  0  0  0  0  0  0
    0.6816  -12.5643    1.0325 C   0  0  0  0  0  0  0  0  0  0  0  0
    1.1230  -13.7921    3.1044 C   0  0  0  0  0  0  0  0  0  0  0  0
    0.8899  -13.8436    1.8503 C   0  0  0  0  0  0  0  0  0  0  0  0
   -0.4671   -7.7546    0.2290 C   0  0  0  0  0  0  0  0  0  0  0  0
   -1.6667   -7.1215    0.6572 C   0  0  0  0  0  0  0  0  0  0  0  0
   -2.6844   -7.5605    1.0895 C   0  0  0  0  0  0  0  0  0  0  0  0
   -2.8872   -8.9584    0.5965 C   0  0  0  0  0  0  0  0  0  0  0  0
   -1.8916   -9.5496   -0.2275 C   0  0  0  0  0  0  0  0  0  0  0  0
   -0.7498   -8.9280   -0.4544 C   0  0  0  0  0  0  0  0  0  0  0  0
    1.5886   -7.1274    1.1079 C   0  0  0  0  0  0  0  0  0  0  0  0
  1  2  1  0
  6  9  1  0
  9 13  1  0
  9 19  1  6
 13 14  2  0
 14 15  1  0
 15 16  2  0
 16 17  1  0
 17 18  2  0
 13 18  1  0
  4  5  2  0
  5 11  1  0
 11 12  2  0
 10 12  1  0
  8 10  2  0
  2  3  2  0
  3  4  1  0
  4  8  1  0
  7  8  1  0
  6  7  2  0
  2  6  1  0
M  END

$$$$
No_3288-/export/home/yangzhenyu/potential_scad_32_flow//YTHDC2/2024-12-06-03-22-00/
     RDKit          3D

 17 17  0  0  1  0  0  0  0  0999 V2000
    1.1787   -8.0297    3.5154 C   0  0  0  0  0  0  0  0  0  0  0  0
    1.0491   -6.8434    2.9820 C   0  0  0  0  0  0  0  0  0  0  0  0
    1.9985   -8.9840    2.8958 C   0  0  1  0  0  0  0  0  0  0  0  0
    1.9135  -10.3404    3.6266 C   0  0  0  0  0  0  0  0  0  0  0  0
    0.7479  -10.9191    3.7202 C   0  0  0  0  0  0  0  0  0  0  0  0
    1.3327   -6.5751    1.7543 C   0  0  0  0  0  0  0  0  0  0  0  0
    0.6763  -12.2837    3.6804 C   0  0  0  0  0  0  0  0  0  0  0  0
    1.8074   -7.6478    0.9470 C   0  0  0  0  0  0  0  0  0  0  0  0
    2.0941   -8.8249    1.4155 C   0  0  0  0  0  0  0  0  0  0  0  0
   -0.2016  -12.8475    2.7913 N   0  0  0  0  0  0  0  0  0  0  0  0
   -0.2585  -14.2173    2.7681 C   0  0  1  0  0  0  0  0  0  0  0  0
   -1.2565  -14.8234    2.1016 C   0  0  0  0  0  0  0  0  0  0  0  0
    0.8981  -14.9069    3.1319 C   0  0  0  0  0  0  0  0  0  0  0  0
    1.5969  -15.8822    2.2124 C   0  0  0  0  0  0  0  0  0  0  0  0
    2.1276  -17.0454    2.5993 C   0  0  0  0  0  0  0  0  0  0  0  0
    2.7166   -9.7018    0.7379 O   0  0  0  0  0  0  0  0  0  0  0  0
    1.5644  -17.9594    3.2687 C   0  0  0  0  0  0  0  0  0  0  0  0
  1  2  1  0
  1  3  1  0
  3  4  1  6
  4  5  1  0
  5  7  1  0
  6  8  1  0
  3  9  1  0
  8  9  1  0
  7 10  1  0
 10 11  1  0
 11 12  1  6
 11 13  1  0
 13 14  1  0
 14 15  1  0
  9 16  2  0
 15 17  1  0
  2  6  1  0
M  END

$$$$
No_3289-/export/home/yangzhenyu/potential_scad_32_flow//YTHDC2/2024-12-06-03-22-00/
     RDKit          3D

 19 21  0  0  0  0  0  0  0  0999 V2000
    1.1787   -8.0297    3.5154 N   0  0  0  0  0  0  0  0  0  0  0  0
    1.0818   -9.0751    3.2053 C   0  0  0  0  0  0  0  0  0  0  0  0
    0.7576   -9.3725    1.9159 C   0  0  0  0  0  0  0  0  0  0  0  0
    0.7445  -10.8746    1.6491 C   0  0  0  0  0  0  0  0  0  0  0  0
    0.9910  -11.7526    2.6067 C   0  0  0  0  0  0  0  0  0  0  0  0
    1.4405  -11.4331    3.8064 C   0  0  0  0  0  0  0  0  0  0  0  0
    1.4304  -10.0463    4.1669 C   0  0  0  0  0  0  0  0  0  0  0  0
    1.1357   -6.7948    2.7839 C   0  0  0  0  0  0  0  0  0  0  0  0
    1.2410   -7.1363    1.3557 N   0  0  0  0  0  0  0  0  0  0  0  0
    1.0668   -8.3879    0.9503 C   0  0  0  0  0  0  0  0  0  0  0  0
    0.9251   -8.5907   -0.3179 O   0  0  0  0  0  0  0  0  0  0  0  0
    0.9053  -13.1596    2.2671 C   0  0  0  0  0  0  0  0  0  0  0  0
   -0.2726  -13.7121    2.3414 N   0  0  0  0  0  0  0  0  0  0  0  0
   -0.2611  -15.1562    2.4125 C   0  0  0  0  0  0  0  0  0  0  0  0
   -1.3454  -15.8795    2.4912 C   0  0  0  0  0  0  0  0  0  0  0  0
   -1.2668  -17.2451    2.9600 C   0  0  0  0  0  0  0  0  0  0  0  0
   -0.0038  -17.8259    3.0390 C   0  0  0  0  0  0  0  0  0  0  0  0
    1.1660  -17.1346    3.0486 C   0  0  0  0  0  0  0  0  0  0  0  0
    1.1046  -15.7461    2.6826 C   0  0  0  0  0  0  0  0  0  0  0  0
  1  2  1  0
  8  9  1  0
  3 10  1  0
  9 10  1  0
 10 11  2  0
  5 12  1  0
 12 13  1  0
 13 14  1  0
  1  8  1  0
 14 15  2  0
 15 16  1  0
 16 17  2  0
 17 18  1  0
 18 19  2  0
 14 19  1  0
  2  7  2  0
  6  7  1  0
  5  6  2  0
  4  5  1  0
  3  4  2  0
  2  3  1  0
M  END

$$$$
No_3290-/export/home/yangzhenyu/potential_scad_32_flow//YTHDC2/2024-12-06-03-22-00/
     RDKit          3D

 12 12  0  0  0  0  0  0  0  0999 V2000
    1.1787   -8.0297    3.5154 C   0  0  0  0  0  0  0  0  0  0  0  0
    1.1048   -9.2215    3.2892 C   0  0  0  0  0  0  0  0  0  0  0  0
    1.2339   -9.7611    2.0189 C   0  0  0  0  0  0  0  0  0  0  0  0
    1.3583   -9.0036    0.9764 C   0  0  0  0  0  0  0  0  0  0  0  0
    1.5996   -7.6362    1.1311 C   0  0  0  0  0  0  0  0  0  0  0  0
    1.4830   -7.0928    2.3626 C   0  0  0  0  0  0  0  0  0  0  0  0
    1.1008  -11.2372    1.8542 Cl  0  0  0  0  0  0  0  0  0  0  0  0
    1.5701   -9.5303   -0.4293 C   0  0  0  0  0  0  0  0  0  0  0  0
    1.3661   -8.9601   -1.2586 O   0  0  0  0  0  0  0  0  0  0  0  0
    2.1636  -10.5276   -0.5663 O   0  0  0  0  0  0  0  0  0  0  0  0
    1.5197   -5.6295    2.6423 Cl  0  0  0  0  0  0  0  0  0  0  0  0
    0.9248  -10.1392    4.3792 Cl  0  0  0  0  0  0  0  0  0  0  0  0
  3  7  1  0
  4  8  1  0
  8  9  2  0
  8 10  1  0
  6 11  1  0
  2 12  1  0
  1  2  2  0
  2  3  1  0
  3  4  2  0
  4  5  1  0
  5  6  2  0
  1  6  1  0
M  END

$$$$
No_3291-/export/home/yangzhenyu/potential_scad_32_flow//YTHDC2/2024-12-06-03-22-00/
     RDKit          3D

 18 19  0  0  0  0  0  0  0  0999 V2000
    1.1787   -8.0297    3.5154 C   0  0  0  0  0  0  0  0  0  0  0  0
    1.0491   -6.8434    2.9820 C   0  0  0  0  0  0  0  0  0  0  0  0
    0.0950   -8.8404    3.2292 C   0  0  0  0  0  0  0  0  0  0  0  0
   -0.9173   -8.4596    2.5152 C   0  0  0  0  0  0  0  0  0  0  0  0
   -1.0331   -7.2162    2.0653 C   0  0  0  0  0  0  0  0  0  0  0  0
   -0.0105   -6.3168    2.3081 C   0  0  0  0  0  0  0  0  0  0  0  0
    0.1465  -10.2446    3.6981 C   0  0  0  0  0  0  0  0  0  0  0  0
    1.2433  -10.8239    4.0166 C   0  0  0  0  0  0  0  0  0  0  0  0
    1.0790  -12.2885    4.3779 N   0  0  0  0  0  0  0  0  0  0  0  0
    0.6753  -12.8866    3.3340 C   0  0  0  0  0  0  0  0  0  0  0  0
   -0.3699  -12.3733    2.6799 C   0  0  0  0  0  0  0  0  0  0  0  0
   -0.5890  -11.0358    2.7433 C   0  0  0  0  0  0  0  0  0  0  0  0
    0.9112  -14.4829    3.4422 C   0  0  0  0  0  0  0  0  0  0  0  0
    0.7709  -15.0715    2.1449 C   0  0  0  0  0  0  0  0  0  0  0  0
    1.5937  -14.7123    1.0781 C   0  0  0  0  0  0  0  0  0  0  0  0
    1.5850  -13.7250    0.7095 C   0  0  0  0  0  0  0  0  0  0  0  0
    2.5970  -12.6370    0.9232 C   0  0  0  0  0  0  0  0  0  0  0  0
    2.0737  -11.3248    1.4637 C   0  0  0  0  0  0  0  0  0  0  0  0
  3  7  1  0
 10 13  1  0
 13 14  1  0
 14 15  1  0
 15 16  1  0
 16 17  1  0
 17 18  1  0
  1  2  2  0
  2  6  1  0
  5  6  2  0
  4  5  1  0
  3  4  2  0
  1  3  1  0
  7  8  2  0
  8  9  1  0
  9 10  2  0
 10 11  1  0
 11 12  2  0
  7 12  1  0
M  END

$$$$
No_3292-/export/home/yangzhenyu/potential_scad_32_flow//YTHDC2/2024-12-06-03-22-00/
     RDKit          3D

 19 20  0  0  0  0  0  0  0  0999 V2000
    1.1787   -8.0297    3.5154 C   0  0  0  0  0  0  0  0  0  0  0  0
    1.0491   -6.8434    2.9820 C   0  0  0  0  0  0  0  0  0  0  0  0
    0.0950   -8.8404    3.2292 C   0  0  0  0  0  0  0  0  0  0  0  0
   -0.9173   -8.4596    2.5152 C   0  0  0  0  0  0  0  0  0  0  0  0
   -1.0331   -7.2162    2.0653 C   0  0  0  0  0  0  0  0  0  0  0  0
   -0.0105   -6.3168    2.3081 C   0  0  0  0  0  0  0  0  0  0  0  0
    0.1150   -4.9910    1.8495 C   0  0  0  0  0  0  0  0  0  0  0  0
    0.9121   -4.1017    2.4010 C   0  0  0  0  0  0  0  0  0  0  0  0
    0.1290  -10.2853    3.6695 C   0  0  0  0  0  0  0  0  0  0  0  0
    0.2092  -11.3666    2.8319 C   0  0  0  0  0  0  0  0  0  0  0  0
    1.0062  -12.0098    2.7247 C   0  0  0  0  0  0  0  0  0  0  0  0
    1.6649  -12.8207    3.1743 C   0  0  0  0  0  0  0  0  0  0  0  0
    1.5826  -13.1889    4.3294 C   0  0  0  0  0  0  0  0  0  0  0  0
   -0.5491   -4.5544    0.6956 C   0  0  0  0  0  0  0  0  0  0  0  0
   -0.6838   -3.2870    0.5418 C   0  0  0  0  0  0  0  0  0  0  0  0
    0.2282   -2.3139    1.0695 C   0  0  0  0  0  0  0  0  0  0  0  0
    1.0227   -2.7411    2.0488 C   0  0  0  0  0  0  0  0  0  0  0  0
    2.2192  -14.0553    2.2570 C   0  0  0  0  0  0  0  0  0  0  0  0
    2.5881  -15.2756    2.7803 O   0  0  0  0  0  0  0  0  0  0  0  0
  6  7  1  0
  3  9  1  0
  9 10  1  0
 10 11  2  3
 11 12  1  0
 12 13  2  0
 12 18  1  0
 18 19  1  0
  7  8  2  0
  8 17  1  0
 16 17  2  0
 15 16  1  0
 14 15  2  0
  7 14  1  0
  1  2  2  0
  2  6  1  0
  5  6  2  0
  4  5  1  0
  3  4  2  0
  1  3  1  0
M  END

$$$$
No_3293-/export/home/yangzhenyu/potential_scad_32_flow//YTHDC2/2024-12-06-03-22-00/
     RDKit          3D

 19 20  0  0  1  0  0  0  0  0999 V2000
    1.1787   -8.0297    3.5154 C   0  0  0  0  0  0  0  0  0  0  0  0
    1.0491   -6.8434    2.9820 C   0  0  1  0  0  0  0  0  0  0  0  0
    0.9905   -9.0774    2.6527 C   0  0  1  0  0  0  0  0  0  0  0  0
    0.7897   -8.9519    1.3691 C   0  0  0  0  0  0  0  0  0  0  0  0
    0.7018   -7.7198    0.7892 C   0  0  0  0  0  0  0  0  0  0  0  0
    1.4312   -5.5794    3.7443 C   0  0  0  0  0  0  0  0  0  0  0  0
    0.9426   -6.6664    1.5322 C   0  0  0  0  0  0  0  0  0  0  0  0
    0.9111   -5.4001    1.0251 O   0  0  0  0  0  0  0  0  0  0  0  0
    1.1429  -10.7536    3.3072 C   0  0  1  0  0  0  0  0  0  0  0  0
    2.2061  -11.0329    3.7629 C   0  0  0  0  0  0  0  0  0  0  0  0
    0.0700  -11.4053    3.2897 C   0  0  0  0  0  0  0  0  0  0  0  0
    0.3042  -12.7335    3.0208 C   0  0  0  0  0  0  0  0  0  0  0  0
    2.4328  -11.4448    4.7222 C   0  0  0  0  0  0  0  0  0  0  0  0
   -0.5788  -13.5557    2.3596 C   0  0  0  0  0  0  0  0  0  0  0  0
   -0.0664  -14.9513    2.1912 C   0  0  0  0  0  0  0  0  0  0  0  0
   -0.8311  -15.8656    1.8595 C   0  0  0  0  0  0  0  0  0  0  0  0
   -2.0283  -15.5834    1.2764 C   0  0  0  0  0  0  0  0  0  0  0  0
   -2.5126  -14.2280    1.3116 C   0  0  0  0  0  0  0  0  0  0  0  0
   -1.6955  -13.2452    1.7602 C   0  0  0  0  0  0  0  0  0  0  0  0
  1  2  1  0
  3  4  1  6
  2  6  1  6
  2  7  1  0
  5  7  1  0
  7  8  2  0
  3  9  1  0
  9 10  1  1
  9 11  1  0
 11 12  1  0
 10 13  1  0
 12 14  1  0
  1  3  1  0
  4  5  1  0
 14 15  2  0
 15 16  1  0
 16 17  2  0
 17 18  1  0
 18 19  2  0
 14 19  1  0
M  END

$$$$
No_3294-/export/home/yangzhenyu/potential_scad_32_flow//YTHDC2/2024-12-06-03-22-00/
     RDKit          3D

 18 19  0  0  1  0  0  0  0  0999 V2000
    1.1787   -8.0297    3.5154 C   0  0  0  0  0  0  0  0  0  0  0  0
    1.1048   -9.2215    3.2892 C   0  0  0  0  0  0  0  0  0  0  0  0
    1.3627  -10.1721    4.3044 C   0  0  0  0  0  0  0  0  0  0  0  0
    1.7354  -11.4730    3.9023 C   0  0  0  0  0  0  0  0  0  0  0  0
    1.8080  -11.8127    2.7216 C   0  0  0  0  0  0  0  0  0  0  0  0
    2.0797  -13.2205    2.4264 C   0  0  0  0  0  0  0  0  0  0  0  0
    1.0424   -7.1607    2.3029 C   0  0  0  0  0  0  0  0  0  0  0  0
    1.1066   -7.6297    1.0940 C   0  0  0  0  0  0  0  0  0  0  0  0
    1.2742   -8.8824    0.8244 C   0  0  0  0  0  0  0  0  0  0  0  0
    1.2734   -9.8055    1.8891 C   0  0  0  0  0  0  0  0  0  0  0  0
    1.6366  -11.0387    1.6628 C   0  0  0  0  0  0  0  0  0  0  0  0
    2.3320  -13.7470    1.2146 O   0  0  0  0  0  0  0  0  0  0  0  0
    2.3886  -14.1597    3.3961 F   0  0  0  0  0  0  0  0  0  0  0  0
    0.8887   -5.4165    2.5475 C   0  0  1  0  0  0  0  0  0  0  0  0
    1.7999   -4.9144    3.3023 C   0  0  0  0  0  0  0  0  0  0  0  0
    1.5542   -3.5221    3.3259 N   0  0  0  0  0  0  0  0  0  0  0  0
    0.0475   -4.8974    1.7699 C   0  0  0  0  0  0  0  0  0  0  0  0
   -0.1179   -3.8706    2.0203 C   0  0  0  0  0  0  0  0  0  0  0  0
  5  6  1  0
  6 12  2  0
  6 13  1  0
  7 14  1  0
 14 15  1  6
 15 16  1  0
 14 17  1  0
 17 18  2  0
  1  2  2  0
  9 10  2  0
  8  9  1  0
  7  8  2  0
  1  7  1  0
  2  3  1  0
  3  4  2  0
  4  5  1  0
  5 11  2  0
 10 11  1  0
  2 10  1  0
M  END

$$$$
No_3295-/export/home/yangzhenyu/potential_scad_32_flow//YTHDC2/2024-12-06-03-22-00/
     RDKit          3D

 16 18  0  0  1  0  0  0  0  0999 V2000
    1.1787   -8.0297    3.5154 C   0  0  0  0  0  0  0  0  0  0  0  0
    1.1048   -9.2215    3.2892 C   0  0  0  0  0  0  0  0  0  0  0  0
    1.2339   -9.7611    2.0189 C   0  0  0  0  0  0  0  0  0  0  0  0
    1.3583   -9.0036    0.9764 C   0  0  0  0  0  0  0  0  0  0  0  0
    1.5996   -7.6362    1.1311 C   0  0  0  0  0  0  0  0  0  0  0  0
    1.4830   -7.0928    2.3626 C   0  0  0  0  0  0  0  0  0  0  0  0
    1.1171  -11.3311    1.8661 C   0  0  2  0  0  0  0  0  0  0  0  0
    1.9975  -12.1095    2.2478 C   0  0  0  0  0  0  0  0  0  0  0  0
    1.7697  -13.4418    1.9079 C   0  0  0  0  0  0  0  0  0  0  0  0
    0.8824  -13.8563    1.1154 C   0  0  0  0  0  0  0  0  0  0  0  0
    0.0421  -12.3339    0.8812 C   0  0  0  0  0  0  0  0  0  0  0  0
    1.5332   -5.6519    2.6249 Cl  0  0  0  0  0  0  0  0  0  0  0  0
    0.1629  -14.6410    0.4285 C   0  0  0  0  0  0  0  0  0  0  0  0
   -0.6893  -14.3231   -0.6457 C   0  0  0  0  0  0  0  0  0  0  0  0
   -1.0742  -13.0252   -0.9016 C   0  0  0  0  0  0  0  0  0  0  0  0
   -0.6010  -12.0200   -0.0734 C   0  0  0  0  0  0  0  0  0  0  0  0
  7  3  1  6
  7  8  1  0
  8  9  2  0
  9 10  1  0
  7 11  1  0
  6 12  1  0
  1  2  2  0
  2  3  1  0
  3  4  2  0
  4  5  1  0
  5  6  2  0
  1  6  1  0
 10 11  2  0
 11 16  1  0
 15 16  2  0
 14 15  1  0
 13 14  2  0
 10 13  1  0
M  END

$$$$
No_3296-/export/home/yangzhenyu/potential_scad_32_flow//YTHDC2/2024-12-06-03-22-00/
     RDKit          3D

 17 19  0  0  0  0  0  0  0  0999 V2000
    1.1787   -8.0297    3.5154 C   0  0  0  0  0  0  0  0  0  0  0  0
    1.1048   -9.2215    3.2892 C   0  0  0  0  0  0  0  0  0  0  0  0
    1.3627  -10.1721    4.3044 C   0  0  0  0  0  0  0  0  0  0  0  0
    1.0682  -11.5187    4.0618 C   0  0  0  0  0  0  0  0  0  0  0  0
    0.6332  -11.9655    2.9682 C   0  0  0  0  0  0  0  0  0  0  0  0
    0.4776  -11.1308    1.9203 C   0  0  0  0  0  0  0  0  0  0  0  0
    0.7470   -9.8274    2.0368 C   0  0  0  0  0  0  0  0  0  0  0  0
    0.5535   -7.1314    2.6861 C   0  0  0  0  0  0  0  0  0  0  0  0
    0.2950   -7.6000    1.3275 C   0  0  0  0  0  0  0  0  0  0  0  0
    0.2692   -8.8631    1.0973 C   0  0  0  0  0  0  0  0  0  0  0  0
   -0.0070   -6.7080    0.3888 O   0  0  0  0  0  0  0  0  0  0  0  0
    0.4773  -13.6209    2.7227 C   0  0  0  0  0  0  0  0  0  0  0  0
   -0.6029  -14.0051    2.5513 C   0  0  0  0  0  0  0  0  0  0  0  0
    1.6615  -14.3444    3.0219 C   0  0  0  0  0  0  0  0  0  0  0  0
   -0.8178  -15.3371    2.3860 C   0  0  0  0  0  0  0  0  0  0  0  0
    0.2500  -16.2233    2.5567 C   0  0  0  0  0  0  0  0  0  0  0  0
    1.4995  -15.7112    2.9685 C   0  0  0  0  0  0  0  0  0  0  0  0
  1  2  1  0
  8  9  1  0
  7 10  1  0
  9 10  1  0
  9 11  2  0
  5 12  1  0
  1  8  1  0
  2  3  2  0
  3  4  1  0
  4  5  2  0
  5  6  1  0
  6  7  2  0
  2  7  1  0
 12 13  2  0
 13 15  1  0
 15 16  2  0
 16 17  1  0
 14 17  2  0
 12 14  1  0
M  END

$$$$
No_3297-/export/home/yangzhenyu/potential_scad_32_flow//YTHDC2/2024-12-06-03-22-00/
     RDKit          3D

 19 21  0  0  1  0  0  0  0  0999 V2000
    1.1787   -8.0297    3.5154 C   0  0  0  0  0  0  0  0  0  0  0  0
    1.0491   -6.8434    2.9820 C   0  0  0  0  0  0  0  0  0  0  0  0
    1.0690   -9.1150    2.7206 C   0  0  0  0  0  0  0  0  0  0  0  0
    0.9689   -6.6391    1.6260 C   0  0  0  0  0  0  0  0  0  0  0  0
    1.2594  -10.4791    3.3003 C   0  0  0  0  0  0  0  0  0  0  0  0
    0.7929   -7.6539    0.8429 C   0  0  0  0  0  0  0  0  0  0  0  0
    0.9043   -8.9494    1.3181 C   0  0  0  0  0  0  0  0  0  0  0  0
    1.4572  -11.5434    2.6971 C   0  0  1  0  0  0  0  0  0  0  0  0
    1.7203  -12.8132    3.2644 C   0  0  0  0  0  0  0  0  0  0  0  0
    0.8971  -13.9218    2.6181 C   0  0  0  0  0  0  0  0  0  0  0  0
   -0.3790  -13.6362    2.2968 C   0  0  0  0  0  0  0  0  0  0  0  0
    0.9493  -10.0505    0.5615 C   0  0  0  0  0  0  0  0  0  0  0  0
    1.2079  -11.3905    1.2424 C   0  0  0  0  0  0  0  0  0  0  0  0
    1.5179  -15.2247    2.6392 C   0  0  0  0  0  0  0  0  0  0  0  0
    0.7067  -16.3209    2.5652 C   0  0  0  0  0  0  0  0  0  0  0  0
   -0.6651  -16.0525    2.4370 C   0  0  0  0  0  0  0  0  0  0  0  0
   -1.1393  -14.8428    2.3126 C   0  0  0  0  0  0  0  0  0  0  0  0
    0.7701  -10.1035   -0.6036 O   0  0  0  0  0  0  0  0  0  0  0  0
   -2.5568  -14.7660    2.0116 C   0  0  0  0  0  0  0  0  0  0  0  0
  3  5  1  0
  8  9  1  1
  9 10  1  0
  7 12  1  0
  8 13  1  0
 12 13  1  0
 12 18  2  0
 17 19  1  0
  5  8  1  0
 10 11  2  0
 11 17  1  0
 16 17  2  0
 15 16  1  0
 14 15  2  0
 10 14  1  0
  1  2  2  0
  2  4  1  0
  4  6  2  0
  6  7  1  0
  3  7  2  0
  1  3  1  0
M  END

$$$$
No_3298-/export/home/yangzhenyu/potential_scad_32_flow//YTHDC2/2024-12-06-03-22-00/
     RDKit          3D

 20 21  0  0  1  0  0  0  0  0999 V2000
    1.1787   -8.0297    3.5154 N   0  0  0  0  0  0  0  0  0  0  0  0
    0.8669   -7.0905    2.8589 C   0  0  0  0  0  0  0  0  0  0  0  0
    1.0447   -7.3244    1.4123 C   0  0  0  0  0  0  0  0  0  0  0  0
    1.3746   -8.4389    1.0864 C   0  0  2  0  0  0  0  0  0  0  0  0
    1.6686   -9.1952    2.5608 C   0  0  0  0  0  0  0  0  0  0  0  0
    1.6471   -9.1228   -0.0034 C   0  0  0  0  0  0  0  0  0  0  0  0
    1.9678  -10.2893   -0.0536 O   0  0  0  0  0  0  0  0  0  0  0  0
    1.6047   -8.5089   -1.1627 O   0  0  0  0  0  0  0  0  0  0  0  0
    1.9381  -10.4576    2.8746 C   0  0  0  0  0  0  0  0  0  0  0  0
    2.1536  -10.7078    4.1571 C   0  0  0  0  0  0  0  0  0  0  0  0
    2.7339  -10.2940    4.9630 O   0  0  0  0  0  0  0  0  0  0  0  0
    1.6195  -11.9995    4.5044 O   0  0  0  0  0  0  0  0  0  0  0  0
    0.6742   -5.7627    3.4161 C   0  0  0  0  0  0  0  0  0  0  0  0
    1.7301   -4.8826    3.5516 C   0  0  0  0  0  0  0  0  0  0  0  0
    1.1781   -3.5254    3.9648 C   0  0  0  0  0  0  0  0  0  0  0  0
    1.3889   -2.4807    3.0083 C   0  0  0  0  0  0  0  0  0  0  0  0
    2.6380   -2.3153    2.5109 C   0  0  0  0  0  0  0  0  0  0  0  0
    2.6906   -2.7872    1.1402 C   0  0  0  0  0  0  0  0  0  0  0  0
    1.3105   -3.0292    0.6004 C   0  0  0  0  0  0  0  0  0  0  0  0
    0.5667   -2.6909    1.8727 C   0  0  0  0  0  0  0  0  0  0  0  0
  1  2  1  0
  2  3  2  0
  3  4  1  0
  1  5  2  0
  4  5  1  0
  4  6  1  6
  6  7  2  0
  6  8  1  0
  5  9  1  0
  9 10  1  0
 10 11  2  0
 10 12  1  0
  2 13  1  0
 13 14  1  0
 14 15  1  0
 15 16  1  0
 16 17  1  0
 17 18  1  0
 18 19  1  0
 16 20  1  0
 19 20  1  0
M  END

$$$$
No_3299-/export/home/yangzhenyu/potential_scad_32_flow//YTHDC2/2024-12-06-03-22-00/
     RDKit          3D

 18 18  0  0  1  0  0  0  0  0999 V2000
    1.1787   -8.0297    3.5154 Cl  0  0  0  0  0  0  0  0  0  0  0  0
    0.7279   -9.0023    2.8722 C   0  0  0  0  0  0  0  0  0  0  0  0
    1.3852  -10.2194    3.0621 C   0  0  0  0  0  0  0  0  0  0  0  0
    0.9411  -11.2612    3.2024 C   0  0  0  0  0  0  0  0  0  0  0  0
   -0.4271  -11.5165    2.9551 C   0  0  0  0  0  0  0  0  0  0  0  0
   -1.1780  -10.4324    2.6767 C   0  0  0  0  0  0  0  0  0  0  0  0
   -0.6311   -9.1616    2.7269 C   0  0  0  0  0  0  0  0  0  0  0  0
    1.7730  -12.5113    3.3849 C   0  0  0  0  0  0  0  0  0  0  0  0
    1.6982  -13.6461    2.4242 C   0  0  1  0  0  0  0  0  0  0  0  0
    1.9454  -13.5699    1.1812 C   0  0  0  0  0  0  0  0  0  0  0  0
    2.1173  -15.0137    3.0136 C   0  0  0  0  0  0  0  0  0  0  0  0
    1.8374  -16.1545    2.2511 C   0  0  0  0  0  0  0  0  0  0  0  0
    2.9117  -17.0141    2.2399 O   0  0  0  0  0  0  0  0  0  0  0  0
   -1.5229   -8.1393    2.9784 C   0  0  0  0  0  0  0  0  0  0  0  0
   -1.6964   -7.2036    1.9445 C   0  0  0  0  0  0  0  0  0  0  0  0
   -2.5713   -6.0048    2.3594 C   0  0  0  0  0  0  0  0  0  0  0  0
   -3.6325   -6.1038    3.1561 C   0  0  0  0  0  0  0  0  0  0  0  0
   -3.5406   -7.1359    4.1473 C   0  0  0  0  0  0  0  0  0  0  0  0
  1  2  1  0
  4  8  1  0
  8  9  1  0
  9 10  1  6
  9 11  1  0
 11 12  1  0
 12 13  1  0
  7 14  1  0
 14 15  2  3
 15 16  1  0
 16 17  2  3
 17 18  1  0
  2  3  2  0
  3  4  1  0
  4  5  2  0
  5  6  1  0
  6  7  2  0
  2  7  1  0
M  END

$$$$
No_3300-/export/home/yangzhenyu/potential_scad_32_flow//YTHDC2/2024-12-06-03-22-00/
     RDKit          3D

 19 21  0  0  0  0  0  0  0  0999 V2000
    1.1787   -8.0297    3.5154 Cl  0  0  0  0  0  0  0  0  0  0  0  0
    0.7279   -9.0023    2.8722 C   0  0  0  0  0  0  0  0  0  0  0  0
    1.3852  -10.2194    3.0621 C   0  0  0  0  0  0  0  0  0  0  0  0
    1.4545  -11.1895    2.1693 C   0  0  0  0  0  0  0  0  0  0  0  0
    0.8014  -11.1600    1.0315 C   0  0  0  0  0  0  0  0  0  0  0  0
    0.2687  -10.0102    0.6759 C   0  0  0  0  0  0  0  0  0  0  0  0
    0.1996   -8.9577    1.5190 C   0  0  0  0  0  0  0  0  0  0  0  0
   -0.5305   -7.8263    1.1578 C   0  0  0  0  0  0  0  0  0  0  0  0
    0.0929   -6.7772    0.9182 S   0  0  0  0  0  0  0  0  0  0  0  0
   -1.1916   -5.6028    0.6426 C   0  0  0  0  0  0  0  0  0  0  0  0
   -2.2805   -6.3677    0.5673 C   0  0  0  0  0  0  0  0  0  0  0  0
   -2.0034   -7.6937    0.9375 N   0  0  0  0  0  0  0  0  0  0  0  0
   -1.1841   -4.2155    0.3081 C   0  0  0  0  0  0  0  0  0  0  0  0
   -0.3916   -3.4225    1.1524 C   0  0  0  0  0  0  0  0  0  0  0  0
    0.5969   -2.7028    0.7015 C   0  0  0  0  0  0  0  0  0  0  0  0
    1.5042   -2.0502    1.5575 C   0  0  0  0  0  0  0  0  0  0  0  0
    1.4943   -2.2338    2.9165 C   0  0  0  0  0  0  0  0  0  0  0  0
    0.5401   -2.9216    3.4647 C   0  0  0  0  0  0  0  0  0  0  0  0
   -0.3823   -3.6119    2.6728 C   0  0  0  0  0  0  0  0  0  0  0  0
  1  2  1  0
  7  8  1  0
  8  9  1  0
  9 10  1  0
 10 11  2  0
  8 12  2  0
 11 12  1  0
 10 13  1  0
 13 14  1  0
  2  3  2  0
  3  4  1  0
  4  5  2  0
  5  6  1  0
  6  7  2  0
  2  7  1  0
 14 15  2  0
 15 16  1  0
 16 17  2  0
 17 18  1  0
 18 19  2  0
 14 19  1  0
M  END

$$$$
No_3301-/export/home/yangzhenyu/potential_scad_32_flow//YTHDC2/2024-12-06-03-22-00/
     RDKit          3D

 19 21  0  0  0  0  0  0  0  0999 V2000
    1.1787   -8.0297    3.5154 C   0  0  0  0  0  0  0  0  0  0  0  0
    1.0491   -6.8434    2.9820 C   0  0  0  0  0  0  0  0  0  0  0  0
    0.9905   -9.0774    2.6527 C   0  0  0  0  0  0  0  0  0  0  0  0
    0.7897   -8.9519    1.3691 C   0  0  0  0  0  0  0  0  0  0  0  0
    0.7018   -7.7198    0.7892 C   0  0  0  0  0  0  0  0  0  0  0  0
    0.8918   -6.5957    1.6117 C   0  0  0  0  0  0  0  0  0  0  0  0
    1.0774  -10.6059    3.3145 C   0  0  0  0  0  0  0  0  0  0  0  0
   -0.1032  -11.1934    3.4585 C   0  0  0  0  0  0  0  0  0  0  0  0
   -0.1482  -12.5102    3.2815 C   0  0  0  0  0  0  0  0  0  0  0  0
    0.9780  -13.3047    3.1595 C   0  0  0  0  0  0  0  0  0  0  0  0
    0.9845  -14.7777    2.9717 C   0  0  0  0  0  0  0  0  0  0  0  0
    2.2500  -15.2604    2.5915 C   0  0  0  0  0  0  0  0  0  0  0  0
    3.2868  -14.4639    2.1351 C   0  0  0  0  0  0  0  0  0  0  0  0
    3.1128  -13.1796    1.9934 C   0  0  0  0  0  0  0  0  0  0  0  0
    1.9564  -12.5326    2.3790 C   0  0  0  0  0  0  0  0  0  0  0  0
    2.1030  -11.4262    2.7493 N   0  0  0  0  0  0  0  0  0  0  0  0
    0.8319   -5.2779    1.0803 O   0  0  0  0  0  0  0  0  0  0  0  0
    2.3987  -16.6851    2.5884 Cl  0  0  0  0  0  0  0  0  0  0  0  0
   -0.2626   -4.4804    1.2548 C   0  0  0  0  0  0  0  0  0  0  0  0
  3  7  1  0
  6 17  1  0
 12 18  1  0
 17 19  1  0
  7  8  2  0
  8  9  1  0
  9 10  2  0
 15 16  2  0
  7 16  1  0
  1  2  2  0
  2  6  1  0
  5  6  2  0
  4  5  1  0
  3  4  2  0
  1  3  1  0
 10 11  1  0
 11 12  2  0
 12 13  1  0
 13 14  2  0
 14 15  1  0
 10 15  1  0
M  END

$$$$
No_3302-/export/home/yangzhenyu/potential_scad_32_flow//YTHDC2/2024-12-06-03-22-00/
     RDKit          3D

 18 20  0  0  0  0  0  0  0  0999 V2000
    1.1787   -8.0297    3.5154 C   0  0  0  0  0  0  0  0  0  0  0  0
    1.0491   -6.8434    2.9820 C   0  0  0  0  0  0  0  0  0  0  0  0
    0.9905   -9.0774    2.6527 C   0  0  0  0  0  0  0  0  0  0  0  0
    0.7897   -8.9519    1.3691 C   0  0  0  0  0  0  0  0  0  0  0  0
    0.7018   -7.7198    0.7892 C   0  0  0  0  0  0  0  0  0  0  0  0
    0.8918   -6.5957    1.6117 C   0  0  0  0  0  0  0  0  0  0  0  0
    1.0711  -10.4814    3.2282 C   0  0  0  0  0  0  0  0  0  0  0  0
   -0.1055  -11.1328    3.5223 C   0  0  0  0  0  0  0  0  0  0  0  0
   -0.1824  -12.4513    3.3816 C   0  0  0  0  0  0  0  0  0  0  0  0
    0.9472  -13.2655    3.1726 C   0  0  0  0  0  0  0  0  0  0  0  0
    2.1715  -12.6012    2.9116 C   0  0  0  0  0  0  0  0  0  0  0  0
    2.2064  -11.2741    2.8264 C   0  0  0  0  0  0  0  0  0  0  0  0
    0.9212  -14.7926    3.2458 C   0  0  0  0  0  0  0  0  0  0  0  0
    2.0083  -15.4106    2.7289 C   0  0  0  0  0  0  0  0  0  0  0  0
    1.9315  -16.8343    2.8762 N   0  0  0  0  0  0  0  0  0  0  0  0
    1.0670  -17.4162    3.3713 C   0  0  0  0  0  0  0  0  0  0  0  0
    0.0163  -16.7934    3.9738 C   0  0  0  0  0  0  0  0  0  0  0  0
   -0.0103  -15.4233    3.8719 C   0  0  0  0  0  0  0  0  0  0  0  0
  3  7  1  0
 10 13  1  0
 13 14  2  0
 14 15  1  0
 15 16  2  0
 16 17  1  0
 17 18  2  0
 13 18  1  0
  1  2  2  0
  2  6  1  0
  5  6  2  0
  4  5  1  0
  3  4  2  0
  1  3  1  0
  7  8  2  0
  8  9  1  0
  9 10  2  0
 10 11  1  0
 11 12  2  0
  7 12  1  0
M  END

$$$$
No_3303-/export/home/yangzhenyu/potential_scad_32_flow//YTHDC2/2024-12-06-03-22-00/
     RDKit          3D

 17 18  0  0  0  0  0  0  0  0999 V2000
    1.1787   -8.0297    3.5154 C   0  0  0  0  0  0  0  0  0  0  0  0
    1.1048   -9.2215    3.2892 C   0  0  0  0  0  0  0  0  0  0  0  0
    1.3627  -10.1721    4.3044 C   0  0  0  0  0  0  0  0  0  0  0  0
    1.0682  -11.5187    4.0618 C   0  0  0  0  0  0  0  0  0  0  0  0
    0.6332  -11.9655    2.9682 C   0  0  0  0  0  0  0  0  0  0  0  0
    0.4776  -11.1308    1.9203 C   0  0  0  0  0  0  0  0  0  0  0  0
    0.1540  -11.7530    0.6168 C   0  0  0  0  0  0  0  0  0  0  0  0
    0.7979   -9.8320    2.0306 C   0  0  0  0  0  0  0  0  0  0  0  0
   -1.3071  -11.9040    0.4813 C   0  0  0  0  0  0  0  0  0  0  0  0
    1.0628   -7.0585    2.5200 C   0  0  0  0  0  0  0  0  0  0  0  0
    0.9344   -7.5360    1.2485 C   0  0  0  0  0  0  0  0  0  0  0  0
    0.7996   -8.8278    0.9581 C   0  0  0  0  0  0  0  0  0  0  0  0
    1.0457   -9.1104   -0.3319 O   0  0  0  0  0  0  0  0  0  0  0  0
   -1.9820  -11.2494    0.8805 C   0  0  0  0  0  0  0  0  0  0  0  0
   -3.4686  -11.3857    0.7857 C   0  0  0  0  0  0  0  0  0  0  0  0
   -4.2914  -10.5977    1.5803 C   0  0  0  0  0  0  0  0  0  0  0  0
   -3.6031   -9.6112    2.3969 C   0  0  0  0  0  0  0  0  0  0  0  0
  1  2  1  0
  6  7  1  0
  7  9  1  0
 10 11  1  0
  8 12  1  0
 11 12  1  0
 12 13  2  0
  9 14  2  3
 14 15  1  0
 15 16  2  3
 16 17  1  0
  1 10  1  0
  2  3  2  0
  3  4  1  0
  4  5  2  0
  5  6  1  0
  6  8  2  0
  2  8  1  0
M  END

$$$$
No_3304-/export/home/yangzhenyu/potential_scad_32_flow//YTHDC2/2024-12-06-03-22-00/
     RDKit          3D

 18 19  0  0  1  0  0  0  0  0999 V2000
    1.1787   -8.0297    3.5154 C   0  0  0  0  0  0  0  0  0  0  0  0
    1.1048   -9.2215    3.2892 C   0  0  0  0  0  0  0  0  0  0  0  0
    1.2339   -9.7611    2.0189 C   0  0  0  0  0  0  0  0  0  0  0  0
    1.3583   -9.0036    0.9764 C   0  0  0  0  0  0  0  0  0  0  0  0
    1.7077   -9.6100   -0.3010 C   0  0  0  0  0  0  0  0  0  0  0  0
    1.3637   -7.1087    2.3226 C   0  0  0  0  0  0  0  0  0  0  0  0
    1.4257   -7.6645    1.0231 C   0  0  0  0  0  0  0  0  0  0  0  0
    1.9364   -8.8976   -1.3212 O   0  0  0  0  0  0  0  0  0  0  0  0
    1.5161  -10.9175   -0.4592 O   0  0  0  0  0  0  0  0  0  0  0  0
    1.1228  -10.1701    4.3932 Br  0  0  0  0  0  0  0  0  0  0  0  0
    1.3204   -5.5830    2.5088 Cl  0  0  0  0  0  0  0  0  0  0  0  0
    1.3142  -11.1564    1.9383 C   0  0  0  0  0  0  0  0  0  0  0  0
    1.3487  -11.7026    0.4291 C   0  0  2  0  0  0  0  0  0  0  0  0
    1.4449  -13.0977    0.3457 C   0  0  0  0  0  0  0  0  0  0  0  0
    0.2446  -13.7977    0.0118 C   0  0  0  0  0  0  0  0  0  0  0  0
   -0.7319  -13.1429   -0.5534 C   0  0  0  0  0  0  0  0  0  0  0  0
   -1.6019  -13.6879   -1.3657 C   0  0  0  0  0  0  0  0  0  0  0  0
   -1.5396  -15.0749   -1.6007 C   0  0  0  0  0  0  0  0  0  0  0  0
  4  5  1  0
  5  8  2  0
  5  9  1  0
  2 10  1  0
  6 11  1  0
  3 12  1  0
  9 13  1  0
 12 13  1  0
 13 14  1  1
 14 15  1  0
 15 16  1  0
 16 17  2  3
 17 18  1  0
  1  2  2  0
  2  3  1  0
  3  4  2  0
  4  7  1  0
  6  7  2  0
  1  6  1  0
M  END

$$$$
No_3305-/export/home/yangzhenyu/potential_scad_32_flow//YTHDC2/2024-12-06-03-22-00/
     RDKit          3D

 19 20  0  0  0  0  0  0  0  0999 V2000
    1.1787   -8.0297    3.5154 C   0  0  0  0  0  0  0  0  0  0  0  0
    1.1048   -9.2215    3.2892 C   0  0  0  0  0  0  0  0  0  0  0  0
    1.2339   -9.7611    2.0189 C   0  0  0  0  0  0  0  0  0  0  0  0
    1.3583   -9.0036    0.9764 C   0  0  0  0  0  0  0  0  0  0  0  0
    1.5996   -7.6362    1.1311 C   0  0  0  0  0  0  0  0  0  0  0  0
    1.4830   -7.0928    2.3626 C   0  0  0  0  0  0  0  0  0  0  0  0
    1.1171  -11.3311    1.8661 C   0  0  0  0  0  0  0  0  0  0  0  0
    0.5042  -11.9974    2.3631 C   0  0  0  0  0  0  0  0  0  0  0  0
    0.4547  -13.3874    2.1599 C   0  0  0  0  0  0  0  0  0  0  0  0
   -0.5486  -14.0819    1.9700 C   0  0  0  0  0  0  0  0  0  0  0  0
   -1.8364  -13.6005    2.3037 C   0  0  0  0  0  0  0  0  0  0  0  0
   -1.9278  -12.2110    2.5791 C   0  0  0  0  0  0  0  0  0  0  0  0
   -0.7934  -11.4133    2.6590 C   0  0  0  0  0  0  0  0  0  0  0  0
    1.5897   -9.4495   -0.3517 Br  0  0  0  0  0  0  0  0  0  0  0  0
    1.7341  -13.9752    1.7470 O   0  0  0  0  0  0  0  0  0  0  0  0
    1.4932   -5.4002    2.7165 Cl  0  0  0  0  0  0  0  0  0  0  0  0
   -3.4354  -11.6150    2.9956 O   0  0  0  0  0  0  0  0  0  0  0  0
   -0.5187  -15.5213    1.9143 C   0  0  0  0  0  0  0  0  0  0  0  0
   -0.3477  -15.9731    0.5141 C   0  0  0  0  0  0  0  0  0  0  0  0
  3  7  1  0
  4 14  1  0
  9 15  1  0
  6 16  1  0
 12 17  1  0
 10 18  1  0
 18 19  1  0
  7  8  1  0
  1  2  2  0
  2  3  1  0
  3  4  2  0
  4  5  1  0
  5  6  2  0
  1  6  1  0
  8  9  2  0
  9 10  1  0
 10 11  2  0
 11 12  1  0
 12 13  2  0
  8 13  1  0
M  END

$$$$
No_3306-/export/home/yangzhenyu/potential_scad_32_flow//YTHDC2/2024-12-06-03-22-00/
     RDKit          3D

 18 18  0  0  0  0  0  0  0  0999 V2000
    1.1787   -8.0297    3.5154 C   0  0  0  0  0  0  0  0  0  0  0  0
    1.0491   -6.8434    2.9820 C   0  0  0  0  0  0  0  0  0  0  0  0
    1.0690   -9.1150    2.7206 C   0  0  0  0  0  0  0  0  0  0  0  0
    0.9689   -6.6391    1.6260 C   0  0  0  0  0  0  0  0  0  0  0  0
    1.2594  -10.4791    3.3003 C   0  0  0  0  0  0  0  0  0  0  0  0
    0.7929   -7.6539    0.8429 C   0  0  0  0  0  0  0  0  0  0  0  0
    0.9043   -8.9494    1.3181 C   0  0  0  0  0  0  0  0  0  0  0  0
    2.2263  -10.7165    3.9857 C   0  0  0  0  0  0  0  0  0  0  0  0
    0.8630   -9.9127    0.4173 Cl  0  0  0  0  0  0  0  0  0  0  0  0
    3.1915   -9.7182    4.4568 N   0  0  0  0  0  0  0  0  0  0  0  0
    0.8005  -11.6084    2.7132 C   0  0  0  0  0  0  0  0  0  0  0  0
    1.4352  -12.6406    2.3055 C   0  0  0  0  0  0  0  0  0  0  0  0
    2.1722  -12.7232    1.3370 O   0  0  0  0  0  0  0  0  0  0  0  0
    1.5836  -13.8086    3.1317 N   0  0  0  0  0  0  0  0  0  0  0  0
    2.1353  -15.0367    2.7333 C   0  0  0  0  0  0  0  0  0  0  0  0
    1.4820  -16.2374    2.7291 C   0  0  0  0  0  0  0  0  0  0  0  0
    0.2717  -16.2013    3.3664 O   0  0  0  0  0  0  0  0  0  0  0  0
    1.7117  -17.0863    1.8644 O   0  0  0  0  0  0  0  0  0  0  0  0
  3  5  1  0
  5  8  2  3
  7  9  1  0
  8 10  1  0
  5 11  1  0
 11 12  1  0
 12 13  2  0
 12 14  1  0
 14 15  1  0
 15 16  1  0
 16 17  2  0
 16 18  1  0
  1  2  2  0
  2  4  1  0
  4  6  2  0
  6  7  1  0
  3  7  2  0
  1  3  1  0
M  END

$$$$
No_3307-/export/home/yangzhenyu/potential_scad_32_flow//YTHDC2/2024-12-06-03-22-00/
     RDKit          3D

 18 19  0  0  0  0  0  0  0  0999 V2000
    1.1787   -8.0297    3.5154 C   0  0  0  0  0  0  0  0  0  0  0  0
    1.1048   -9.2215    3.2892 C   0  0  0  0  0  0  0  0  0  0  0  0
    1.3627  -10.1721    4.3044 C   0  0  0  0  0  0  0  0  0  0  0  0
    2.3720  -10.8948    4.2468 C   0  0  0  0  0  0  0  0  0  0  0  0
    0.8234   -7.0464    2.5717 C   0  0  0  0  0  0  0  0  0  0  0  0
    0.4328   -7.4736    1.3042 C   0  0  0  0  0  0  0  0  0  0  0  0
    0.3532   -8.7488    0.9919 C   0  0  0  0  0  0  0  0  0  0  0  0
    0.7039   -9.7094    1.9672 C   0  0  0  0  0  0  0  0  0  0  0  0
    0.6986  -10.9809    1.7122 C   0  0  0  0  0  0  0  0  0  0  0  0
   -0.1824  -11.8267    2.1190 C   0  0  0  0  0  0  0  0  0  0  0  0
   -0.0651  -13.2415    1.9847 C   0  0  0  0  0  0  0  0  0  0  0  0
    1.0578  -13.8014    1.4547 C   0  0  0  0  0  0  0  0  0  0  0  0
    2.1146  -12.9636    1.0126 C   0  0  0  0  0  0  0  0  0  0  0  0
    1.9843  -11.5807    1.1463 C   0  0  0  0  0  0  0  0  0  0  0  0
    0.9549   -5.3814    2.8202 Br  0  0  0  0  0  0  0  0  0  0  0  0
    3.6192  -10.2700    4.4181 N   0  0  0  0  0  0  0  0  0  0  0  0
    2.3303  -12.1495    4.9667 O   0  0  0  0  0  0  0  0  0  0  0  0
    0.1819  -10.4857    5.0905 O   0  0  0  0  0  0  0  0  0  0  0  0
  2  3  1  0
  3  4  1  0
  8  9  1  0
  5 15  1  0
  4 16  1  0
  4 17  2  0
  3 18  2  0
  1  2  2  0
  2  8  1  0
  7  8  2  0
  6  7  1  0
  5  6  2  0
  1  5  1  0
  9 10  2  0
 10 11  1  0
 11 12  2  0
 12 13  1  0
 13 14  2  0
  9 14  1  0
M  END

$$$$
No_3308-/export/home/yangzhenyu/potential_scad_32_flow//YTHDC2/2024-12-06-03-22-00/
     RDKit          3D

 18 19  0  0  1  0  0  0  0  0999 V2000
    1.1787   -8.0297    3.5154 C   0  0  0  0  0  0  0  0  0  0  0  0
    1.1048   -9.2215    3.2892 C   0  0  0  0  0  0  0  0  0  0  0  0
    1.2339   -9.7611    2.0189 C   0  0  0  0  0  0  0  0  0  0  0  0
    1.3583   -9.0036    0.9764 C   0  0  0  0  0  0  0  0  0  0  0  0
    1.5996   -7.6362    1.1311 C   0  0  0  0  0  0  0  0  0  0  0  0
    1.4830   -7.0928    2.3626 C   0  0  0  0  0  0  0  0  0  0  0  0
    1.1008  -11.2372    1.8542 C   0  0  1  0  0  0  0  0  0  0  0  0
    0.4812  -11.6084    0.6459 C   0  0  0  0  0  0  0  0  0  0  0  0
    0.5134  -13.0269    0.4830 C   0  0  0  0  0  0  0  0  0  0  0  0
    1.2057  -13.8685    1.2734 C   0  0  0  0  0  0  0  0  0  0  0  0
    1.9819  -13.3990    2.3594 C   0  0  0  0  0  0  0  0  0  0  0  0
    1.8610  -12.0988    2.6716 C   0  0  0  0  0  0  0  0  0  0  0  0
    2.5653  -11.6133    3.6969 O   0  0  0  0  0  0  0  0  0  0  0  0
    1.5569   -5.6491    2.6439 C   0  0  0  0  0  0  0  0  0  0  0  0
    0.6556   -4.8276    2.5917 N   0  0  0  0  0  0  0  0  0  0  0  0
   -0.6208   -5.2217    2.2391 C   0  0  0  0  0  0  0  0  0  0  0  0
    0.9817   -3.3593    2.1052 C   0  0  0  0  0  0  0  0  0  0  0  0
   -1.5765   -4.6617    2.4657 O   0  0  0  0  0  0  0  0  0  0  0  0
  7  3  1  6
  7  8  1  0
  9 10  1  0
  7 12  1  0
 11 12  1  0
 12 13  2  0
  6 14  1  0
 14 15  1  0
 15 16  1  0
 15 17  1  0
 16 18  2  0
  8  9  1  0
 10 11  1  0
  1  2  2  0
  2  3  1  0
  3  4  2  0
  4  5  1  0
  5  6  2  0
  1  6  1  0
M  END

$$$$
No_3309-/export/home/yangzhenyu/potential_scad_32_flow//YTHDC2/2024-12-06-03-22-00/
     RDKit          3D

 19 19  0  0  0  0  0  0  0  0999 V2000
    1.1787   -8.0297    3.5154 C   0  0  0  0  0  0  0  0  0  0  0  0
    1.1048   -9.2215    3.2892 C   0  0  0  0  0  0  0  0  0  0  0  0
    1.2339   -9.7611    2.0189 C   0  0  0  0  0  0  0  0  0  0  0  0
    1.4306   -8.9466    1.1170 C   0  0  0  0  0  0  0  0  0  0  0  0
    1.6532   -7.5949    1.1786 C   0  0  0  0  0  0  0  0  0  0  0  0
    1.4973   -7.0739    2.4258 C   0  0  0  0  0  0  0  0  0  0  0  0
    1.4438   -5.6890    2.7316 C   0  0  0  0  0  0  0  0  0  0  0  0
    1.2604  -11.3384    1.8135 C   0  0  0  0  0  0  0  0  0  0  0  0
    1.2587  -11.6331    0.5247 O   0  0  0  0  0  0  0  0  0  0  0  0
    1.1130  -12.0475    2.8021 O   0  0  0  0  0  0  0  0  0  0  0  0
    1.2622   -4.7778    1.7383 O   0  0  0  0  0  0  0  0  0  0  0  0
    2.0833   -5.1142    3.8167 O   0  0  0  0  0  0  0  0  0  0  0  0
    1.6923   -9.3869   -0.3154 C   0  0  0  0  0  0  0  0  0  0  0  0
    2.0425   -8.4996   -1.2480 O   0  0  0  0  0  0  0  0  0  0  0  0
    0.8662  -10.0839   -0.8179 O   0  0  0  0  0  0  0  0  0  0  0  0
    0.8900  -10.1628    4.3996 C   0  0  0  0  0  0  0  0  0  0  0  0
   -0.5201  -10.6081    4.5836 O   0  0  0  0  0  0  0  0  0  0  0  0
    1.7560  -10.6887    5.1911 O   0  0  0  0  0  0  0  0  0  0  0  0
    1.8779  -13.0642    0.5974 C   0  0  0  0  0  0  0  0  0  0  0  0
  6  7  1  0
  3  8  1  0
  8  9  1  0
  8 10  2  0
  7 11  2  0
  7 12  1  0
  4 13  1  0
 13 14  2  0
 13 15  1  0
  2 16  1  0
 16 17  2  0
 16 18  1  0
  9 19  1  0
  1  2  2  0
  2  3  1  0
  3  4  2  0
  4  5  1  0
  5  6  2  0
  1  6  1  0
M  END

$$$$
No_3310-/export/home/yangzhenyu/potential_scad_32_flow//YTHDC2/2024-12-06-03-22-00/
     RDKit          3D

 18 19  0  0  1  0  0  0  0  0999 V2000
    1.1787   -8.0297    3.5154 C   0  0  0  0  0  0  0  0  0  0  0  0
    1.0491   -6.8434    2.9820 C   0  0  0  0  0  0  0  0  0  0  0  0
    0.9905   -9.0774    2.6527 C   0  0  0  0  0  0  0  0  0  0  0  0
    0.7897   -8.9519    1.3691 C   0  0  0  0  0  0  0  0  0  0  0  0
    0.7018   -7.7198    0.7892 C   0  0  0  0  0  0  0  0  0  0  0  0
    0.8918   -6.5957    1.6117 C   0  0  0  0  0  0  0  0  0  0  0  0
    1.0998  -10.4710    3.2437 C   0  0  0  0  0  0  0  0  0  0  0  0
    1.3102  -11.5554    2.5214 C   0  0  0  0  0  0  0  0  0  0  0  0
    1.5840  -11.4028    1.1226 C   0  0  0  0  0  0  0  0  0  0  0  0
    1.2367  -10.1673    0.5312 C   0  0  0  0  0  0  0  0  0  0  0  0
    1.6681  -12.8670    2.9548 C   0  0  0  0  0  0  0  0  0  0  0  0
    0.5437  -13.7123    3.1519 C   0  0  1  0  0  0  0  0  0  0  0  0
   -0.5356  -13.3487    2.4716 C   0  0  0  0  0  0  0  0  0  0  0  0
    0.6656   -5.2996    1.1582 O   0  0  0  0  0  0  0  0  0  0  0  0
    0.8531  -14.9935    3.6686 C   0  0  0  0  0  0  0  0  0  0  0  0
   -0.1417  -15.9151    3.5333 O   0  0  0  0  0  0  0  0  0  0  0  0
   -0.7196  -13.8726    1.1692 C   0  0  0  0  0  0  0  0  0  0  0  0
   -1.8596  -13.4992    0.3769 C   0  0  0  0  0  0  0  0  0  0  0  0
  1  2  1  0
  2  6  1  0
  5  6  1  0
  8 11  1  0
 12 11  1  6
 12 13  1  0
  6 14  2  0
 12 15  1  0
 15 16  2  0
 13 17  2  3
 17 18  1  0
  1  3  1  0
  4  5  1  0
  3  4  2  0
  4 10  1  0
  9 10  2  0
  8  9  1  0
  7  8  2  0
  3  7  1  0
M  END

$$$$
No_3311-/export/home/yangzhenyu/potential_scad_32_flow//YTHDC2/2024-12-06-03-22-00/
     RDKit          3D

 18 19  0  0  0  0  0  0  0  0999 V2000
    1.1787   -8.0297    3.5154 C   0  0  0  0  0  0  0  0  0  0  0  0
    1.1048   -9.2215    3.2892 C   0  0  0  0  0  0  0  0  0  0  0  0
    1.2339   -9.7611    2.0189 C   0  0  0  0  0  0  0  0  0  0  0  0
    1.3583   -9.0036    0.9764 C   0  0  0  0  0  0  0  0  0  0  0  0
    1.5996   -7.6362    1.1311 C   0  0  0  0  0  0  0  0  0  0  0  0
    1.4830   -7.0928    2.3626 C   0  0  0  0  0  0  0  0  0  0  0  0
    1.1008  -11.2372    1.8542 C   0  0  0  0  0  0  0  0  0  0  0  0
    0.4812  -11.6084    0.6459 C   0  0  0  0  0  0  0  0  0  0  0  0
   -0.6166  -12.2864    0.7859 C   0  0  0  0  0  0  0  0  0  0  0  0
   -0.7300  -13.0625    1.9848 C   0  0  0  0  0  0  0  0  0  0  0  0
    0.1540  -12.9133    3.0511 C   0  0  0  0  0  0  0  0  0  0  0  0
    1.1516  -11.9685    2.9361 C   0  0  0  0  0  0  0  0  0  0  0  0
    1.5663   -5.6461    2.6613 O   0  0  0  0  0  0  0  0  0  0  0  0
    2.0729  -11.7298    3.9370 C   0  0  0  0  0  0  0  0  0  0  0  0
   -1.5620  -14.2842    2.0643 C   0  0  0  0  0  0  0  0  0  0  0  0
   -2.7019  -13.9854    2.6636 C   0  0  0  0  0  0  0  0  0  0  0  0
   -3.5596  -15.0895    3.0418 C   0  0  0  0  0  0  0  0  0  0  0  0
   -3.2826  -16.3031    2.5559 C   0  0  0  0  0  0  0  0  0  0  0  0
  3  7  1  0
  6 13  1  0
 12 14  1  0
 10 15  1  0
 15 16  1  0
 16 17  2  3
 17 18  1  0
  1  2  2  0
  2  3  1  0
  3  4  2  0
  4  5  1  0
  5  6  2  0
  1  6  1  0
  7  8  2  0
  8  9  1  0
  9 10  2  0
 10 11  1  0
 11 12  2  0
  7 12  1  0
M  END

$$$$
No_3312-/export/home/yangzhenyu/potential_scad_32_flow//YTHDC2/2024-12-06-03-22-00/
     RDKit          3D

 17 18  0  0  0  0  0  0  0  0999 V2000
    1.1787   -8.0297    3.5154 N   0  0  0  0  0  0  0  0  0  0  0  0
    1.0818   -9.0751    3.2053 C   0  0  0  0  0  0  0  0  0  0  0  0
    1.5216  -10.1164    3.9747 C   0  0  0  0  0  0  0  0  0  0  0  0
    1.7650  -11.2320    3.5712 C   0  0  0  0  0  0  0  0  0  0  0  0
    1.4277  -11.6899    2.3702 C   0  0  0  0  0  0  0  0  0  0  0  0
    1.0443  -10.7313    1.4783 C   0  0  0  0  0  0  0  0  0  0  0  0
    0.9294   -9.4471    1.8469 C   0  0  0  0  0  0  0  0  0  0  0  0
    0.5107   -8.4473    0.9766 C   0  0  0  0  0  0  0  0  0  0  0  0
    0.8228   -8.6285   -0.2997 O   0  0  0  0  0  0  0  0  0  0  0  0
    0.5585   -7.1198    1.2738 N   0  0  0  0  0  0  0  0  0  0  0  0
    0.8160   -6.7833    2.6551 C   0  0  0  0  0  0  0  0  0  0  0  0
    1.6006  -13.1037    1.9944 C   0  0  0  0  0  0  0  0  0  0  0  0
    2.0479  -13.5184    0.9907 O   0  0  0  0  0  0  0  0  0  0  0  0
    1.3296  -14.0681    2.9608 N   0  0  0  0  0  0  0  0  0  0  0  0
    1.3998  -15.4398    2.7777 C   0  0  0  0  0  0  0  0  0  0  0  0
    0.3664  -16.1601    3.0758 C   0  0  0  0  0  0  0  0  0  0  0  0
    0.6675  -17.5300    3.2802 C   0  0  0  0  0  0  0  0  0  0  0  0
  1  2  1  0
  7  8  1  0
  8  9  2  0
  8 10  1  0
 10 11  1  0
  5 12  1  0
 12 13  2  0
 12 14  1  0
 14 15  1  0
 15 16  1  0
 16 17  2  0
  1 11  1  0
  2  3  2  0
  3  4  1  0
  4  5  2  0
  5  6  1  0
  6  7  2  0
  2  7  1  0
M  END

$$$$
No_3313-/export/home/yangzhenyu/potential_scad_32_flow//YTHDC2/2024-12-06-03-22-00/
     RDKit          3D

 19 20  0  0  1  0  0  0  0  0999 V2000
    1.1787   -8.0297    3.5154 C   0  0  0  0  0  0  0  0  0  0  0  0
    1.1048   -9.2215    3.2892 C   0  0  0  0  0  0  0  0  0  0  0  0
    1.2339   -9.7611    2.0189 C   0  0  0  0  0  0  0  0  0  0  0  0
    1.3583   -9.0036    0.9764 C   0  0  0  0  0  0  0  0  0  0  0  0
    1.5996   -7.6362    1.1311 C   0  0  0  0  0  0  0  0  0  0  0  0
    1.4830   -7.0928    2.3626 C   0  0  0  0  0  0  0  0  0  0  0  0
    1.1008  -11.2372    1.8542 C   0  0  0  0  0  0  0  0  0  0  0  0
    0.5178  -11.9759    2.3445 C   0  0  0  0  0  0  0  0  0  0  0  0
    0.4575  -13.3705    2.1281 C   0  0  2  0  0  0  0  0  0  0  0  0
   -0.4455  -13.9844    1.5571 C   0  0  0  0  0  0  0  0  0  0  0  0
   -0.4380  -15.3839    1.3067 C   0  0  0  0  0  0  0  0  0  0  0  0
   -1.3140  -15.9645    0.7031 C   0  0  0  0  0  0  0  0  0  0  0  0
   -2.3926  -15.2438    0.1160 C   0  0  0  0  0  0  0  0  0  0  0  0
   -2.5240  -13.9474    0.2075 C   0  0  0  0  0  0  0  0  0  0  0  0
   -1.5061  -13.2253    0.8835 C   0  0  0  0  0  0  0  0  0  0  0  0
    1.5914   -5.6603    2.6502 C   0  0  0  0  0  0  0  0  0  0  0  0
    1.5295  -14.1633    2.8416 C   0  0  0  0  0  0  0  0  0  0  0  0
    0.7423   -4.8212    2.6091 O   0  0  0  0  0  0  0  0  0  0  0  0
    1.5060   -9.4533   -0.5409 C   0  0  0  0  0  0  0  0  0  0  0  0
  3  7  1  0
  7  8  2  3
  8  9  1  0
  6 16  1  0
  9 17  1  1
 16 18  2  0
  4 19  1  0
  9 10  1  0
  1  2  2  0
  2  3  1  0
  3  4  2  0
  4  5  1  0
  5  6  2  0
  1  6  1  0
 10 11  2  0
 11 12  1  0
 12 13  2  0
 13 14  1  0
 14 15  2  0
 10 15  1  0
M  END

$$$$
No_3314-/export/home/yangzhenyu/potential_scad_32_flow//YTHDC2/2024-12-06-03-22-00/
     RDKit          3D

 19 20  0  0  1  0  0  0  0  0999 V2000
    1.1787   -8.0297    3.5154 C   0  0  0  0  0  0  0  0  0  0  0  0
    1.0491   -6.8434    2.9820 C   0  0  0  0  0  0  0  0  0  0  0  0
    0.9905   -9.0774    2.6527 C   0  0  0  0  0  0  0  0  0  0  0  0
    0.7897   -8.9519    1.3691 C   0  0  0  0  0  0  0  0  0  0  0  0
    0.7018   -7.7198    0.7892 C   0  0  0  0  0  0  0  0  0  0  0  0
    0.8918   -6.5957    1.6117 C   0  0  0  0  0  0  0  0  0  0  0  0
    1.0998  -10.4710    3.2437 C   0  0  0  0  0  0  0  0  0  0  0  0
    2.1917  -10.8879    3.7399 C   0  0  0  0  0  0  0  0  0  0  0  0
    0.8983   -5.2566    1.2088 C   0  0  0  0  0  0  0  0  0  0  0  0
   -0.0775  -10.6645    4.2505 C   0  0  0  0  0  0  0  0  0  0  0  0
    0.2252   -4.2889    2.0233 C   0  0  2  0  0  0  0  0  0  0  0  0
   -1.1308   -4.3240    1.9336 C   0  0  0  0  0  0  0  0  0  0  0  0
   -1.8197   -4.5543    0.9216 C   0  0  0  0  0  0  0  0  0  0  0  0
   -2.9384   -4.3656    0.8419 C   0  0  0  0  0  0  0  0  0  0  0  0
   -3.4767   -3.9089    2.1389 C   0  0  0  0  0  0  0  0  0  0  0  0
   -2.1263   -3.9868    2.8602 C   0  0  0  0  0  0  0  0  0  0  0  0
    0.9565   -3.0622    1.9767 C   0  0  0  0  0  0  0  0  0  0  0  0
    2.1119   -2.9083    2.6558 C   0  0  0  0  0  0  0  0  0  0  0  0
    0.5622   -2.0030    1.1201 C   0  0  0  0  0  0  0  0  0  0  0  0
  3  7  1  0
  7  8  1  0
  6  9  1  0
  7 10  1  0
 11  9  1  6
 11 12  1  0
 12 13  1  0
 13 14  2  0
 14 15  1  0
 12 16  1  0
 15 16  2  0
 11 17  1  0
 17 18  1  0
 17 19  1  0
  1  2  2  0
  2  6  1  0
  5  6  2  0
  4  5  1  0
  3  4  2  0
  1  3  1  0
M  END

$$$$
No_3315-/export/home/yangzhenyu/potential_scad_32_flow//YTHDC2/2024-12-06-03-22-00/
     RDKit          3D

 18 19  0  0  0  0  0  0  0  0999 V2000
    1.1787   -8.0297    3.5154 C   0  0  0  0  0  0  0  0  0  0  0  0
    1.1048   -9.2215    3.2892 C   0  0  0  0  0  0  0  0  0  0  0  0
    1.3627  -10.1721    4.3044 C   0  0  0  0  0  0  0  0  0  0  0  0
    1.7354  -11.4730    3.9023 C   0  0  0  0  0  0  0  0  0  0  0  0
    1.8080  -11.8127    2.7216 C   0  0  0  0  0  0  0  0  0  0  0  0
    1.5854  -11.0021    1.7249 C   0  0  0  0  0  0  0  0  0  0  0  0
    1.3573   -9.7389    1.9287 C   0  0  0  0  0  0  0  0  0  0  0  0
    1.1102   -8.8712    0.9017 C   0  0  0  0  0  0  0  0  0  0  0  0
    0.5299   -7.6926    1.0325 C   0  0  0  0  0  0  0  0  0  0  0  0
    0.7526   -7.0802    2.3301 C   0  0  0  0  0  0  0  0  0  0  0  0
    2.0528  -13.2563    2.4302 C   0  0  0  0  0  0  0  0  0  0  0  0
    1.1153  -14.0523    1.8967 C   0  0  0  0  0  0  0  0  0  0  0  0
    0.6296  -14.8085    2.6366 C   0  0  0  0  0  0  0  0  0  0  0  0
    1.3782  -15.8334    3.2746 C   0  0  0  0  0  0  0  0  0  0  0  0
    2.4486  -16.2966    2.5571 C   0  0  0  0  0  0  0  0  0  0  0  0
    0.5608   -5.7093    2.5456 C   0  0  0  0  0  0  0  0  0  0  0  0
    1.0180   -4.8359    1.6419 N   0  0  0  0  0  0  0  0  0  0  0  0
    1.2105   -3.5879    1.6306 C   0  0  0  0  0  0  0  0  0  0  0  0
  5 11  1  0
 11 12  1  0
 12 13  1  0
 13 14  1  0
 14 15  1  0
 10 16  1  0
 16 17  1  0
 17 18  1  0
  1  2  2  0
  7  8  2  0
  8  9  1  0
  9 10  2  0
  1 10  1  0
  2  3  1  0
  3  4  2  0
  4  5  1  0
  5  6  2  0
  6  7  1  0
  2  7  1  0
M  END

$$$$
No_3316-/export/home/yangzhenyu/potential_scad_32_flow//YTHDC2/2024-12-06-03-22-00/
     RDKit          3D

 20 22  0  0  1  0  0  0  0  0999 V2000
    1.1787   -8.0297    3.5154 C   0  0  0  0  0  0  0  0  0  0  0  0
    1.0491   -6.8434    2.9820 C   0  0  0  0  0  0  0  0  0  0  0  0
    1.9985   -8.9840    2.8958 C   0  0  1  0  0  0  0  0  0  0  0  0
    1.9135  -10.3404    3.6266 C   0  0  0  0  0  0  0  0  0  0  0  0
    1.3291  -11.3908    3.0222 C   0  0  0  0  0  0  0  0  0  0  0  0
    1.0344  -11.3281    1.7959 C   0  0  0  0  0  0  0  0  0  0  0  0
    0.5050   -6.6553    1.7492 N   0  0  0  0  0  0  0  0  0  0  0  0
    1.6123  -10.1988    0.9509 C   0  0  0  0  0  0  0  0  0  0  0  0
    1.7489   -9.0051    1.6018 C   0  0  1  0  0  0  0  0  0  0  0  0
    1.1442   -7.8702    0.9062 C   0  0  0  0  0  0  0  0  0  0  0  0
    1.0225   -7.7944   -0.3249 O   0  0  0  0  0  0  0  0  0  0  0  0
    1.0666  -12.4629    3.7385 C   0  0  0  0  0  0  0  0  0  0  0  0
    0.9041  -13.7031    2.8701 C   0  0  0  0  0  0  0  0  0  0  0  0
   -0.2119  -14.2641    2.6734 C   0  0  0  0  0  0  0  0  0  0  0  0
   -0.1544  -15.5289    1.9188 C   0  0  0  0  0  0  0  0  0  0  0  0
    1.0166  -16.2377    1.8590 C   0  0  0  0  0  0  0  0  0  0  0  0
    2.2397  -15.6742    2.2355 C   0  0  0  0  0  0  0  0  0  0  0  0
    2.2413  -14.4256    2.8688 C   0  0  0  0  0  0  0  0  0  0  0  0
    0.5313  -12.1802    0.9466 O   0  0  0  0  0  0  0  0  0  0  0  0
    1.5841  -10.3478   -0.3437 O   0  0  0  0  0  0  0  0  0  0  0  0
  1  2  1  0
  3  1  1  1
  3  4  1  0
  4  5  1  0
  5  6  1  0
  2  7  1  0
  6  8  1  0
  3  9  1  0
  9  8  1  1
  7 10  1  0
  9 10  1  0
 10 11  2  0
  5 12  1  0
 12 13  1  0
  6 19  2  0
  8 20  2  0
 13 14  2  0
 14 15  1  0
 15 16  2  0
 16 17  1  0
 17 18  2  0
 13 18  1  0
M  END

$$$$
No_3317-/export/home/yangzhenyu/potential_scad_32_flow//YTHDC2/2024-12-06-03-22-00/
     RDKit          3D

 18 19  0  0  0  0  0  0  0  0999 V2000
    1.1787   -8.0297    3.5154 C   0  0  0  0  0  0  0  0  0  0  0  0
    1.0491   -6.8434    2.9820 C   0  0  0  0  0  0  0  0  0  0  0  0
    0.9905   -9.0774    2.6527 C   0  0  0  0  0  0  0  0  0  0  0  0
    0.7897   -8.9519    1.3691 C   0  0  0  0  0  0  0  0  0  0  0  0
    0.7018   -7.7198    0.7892 C   0  0  0  0  0  0  0  0  0  0  0  0
    0.8918   -6.5957    1.6117 C   0  0  0  0  0  0  0  0  0  0  0  0
    1.0998  -10.4710    3.2437 C   0  0  0  0  0  0  0  0  0  0  0  0
    0.0472  -11.2546    3.3963 C   0  0  0  0  0  0  0  0  0  0  0  0
    0.1622  -12.5732    3.4140 C   0  0  0  0  0  0  0  0  0  0  0  0
    1.4182  -13.1957    3.4048 C   0  0  0  0  0  0  0  0  0  0  0  0
    2.5550  -12.3947    3.0877 C   0  0  0  0  0  0  0  0  0  0  0  0
    2.4166  -11.0849    2.9699 C   0  0  0  0  0  0  0  0  0  0  0  0
    0.8666   -5.2662    1.1708 C   0  0  0  0  0  0  0  0  0  0  0  0
    1.4169  -14.5629    3.3676 Cl  0  0  0  0  0  0  0  0  0  0  0  0
    1.5436   -4.2948    1.7844 C   0  0  0  0  0  0  0  0  0  0  0  0
    1.4417   -2.9277    1.3987 C   0  0  0  0  0  0  0  0  0  0  0  0
    0.3856   -2.4675    0.9689 C   0  0  0  0  0  0  0  0  0  0  0  0
   -0.6220   -3.4471    0.5133 C   0  0  0  0  0  0  0  0  0  0  0  0
  3  7  1  0
  6 13  1  0
 10 14  1  0
 13 15  2  3
 15 16  1  0
 16 17  2  3
 17 18  1  0
  1  2  2  0
  2  6  1  0
  5  6  2  0
  4  5  1  0
  3  4  2  0
  1  3  1  0
  7  8  2  0
  8  9  1  0
  9 10  2  0
 10 11  1  0
 11 12  2  0
  7 12  1  0
M  END

$$$$
No_3318-/export/home/yangzhenyu/potential_scad_32_flow//YTHDC2/2024-12-06-03-22-00/
     RDKit          3D

 18 19  0  0  0  0  0  0  0  0999 V2000
    1.1787   -8.0297    3.5154 C   0  0  0  0  0  0  0  0  0  0  0  0
    1.0491   -6.8434    2.9820 C   0  0  0  0  0  0  0  0  0  0  0  0
    0.9905   -9.0774    2.6527 C   0  0  0  0  0  0  0  0  0  0  0  0
    0.7897   -8.9519    1.3691 C   0  0  0  0  0  0  0  0  0  0  0  0
    0.7018   -7.7198    0.7892 C   0  0  0  0  0  0  0  0  0  0  0  0
    0.8918   -6.5957    1.6117 C   0  0  0  0  0  0  0  0  0  0  0  0
    1.0711  -10.4814    3.2282 C   0  0  0  0  0  0  0  0  0  0  0  0
    1.1227  -11.5770    2.4616 C   0  0  0  0  0  0  0  0  0  0  0  0
    1.1500  -12.9052    3.0782 C   0  0  0  0  0  0  0  0  0  0  0  0
    1.8689  -13.5339    3.4230 C   0  0  0  0  0  0  0  0  0  0  0  0
    3.2105  -13.1742    2.9919 C   0  0  0  0  0  0  0  0  0  0  0  0
    0.8552   -5.0903    1.1082 Cl  0  0  0  0  0  0  0  0  0  0  0  0
    3.8179  -13.9982    2.6798 C   0  0  0  0  0  0  0  0  0  0  0  0
    3.3214  -15.3589    2.3879 C   0  0  0  0  0  0  0  0  0  0  0  0
    2.0076  -15.6329    2.7558 C   0  0  0  0  0  0  0  0  0  0  0  0
    1.2731  -14.7529    3.1940 C   0  0  0  0  0  0  0  0  0  0  0  0
    1.5474  -17.2666    2.3553 Cl  0  0  0  0  0  0  0  0  0  0  0  0
    0.6254   -9.9875    0.4257 C   0  0  0  0  0  0  0  0  0  0  0  0
  3  7  1  0
  7  8  2  3
  8  9  1  0
  6 12  1  0
 15 17  1  0
  4 18  1  0
  9 10  1  0
  1  2  2  0
  2  6  1  0
  5  6  2  0
  4  5  1  0
  3  4  2  0
  1  3  1  0
 10 11  2  0
 11 13  1  0
 13 14  2  0
 14 15  1  0
 15 16  2  0
 10 16  1  0
M  END

$$$$
No_3319-/export/home/yangzhenyu/potential_scad_32_flow//YTHDC2/2024-12-06-03-22-00/
     RDKit          3D

 20 21  0  0  1  0  0  0  0  0999 V2000
    1.1787   -8.0297    3.5154 C   0  0  0  0  0  0  0  0  0  0  0  0
    1.1048   -9.2215    3.2892 C   0  0  0  0  0  0  0  0  0  0  0  0
    1.2339   -9.7611    2.0189 C   0  0  0  0  0  0  0  0  0  0  0  0
    1.3583   -9.0036    0.9764 C   0  0  0  0  0  0  0  0  0  0  0  0
    1.5996   -7.6362    1.1311 C   0  0  0  0  0  0  0  0  0  0  0  0
    1.4830   -7.0928    2.3626 C   0  0  0  0  0  0  0  0  0  0  0  0
    1.1171  -11.3311    1.8661 C   0  0  1  0  0  0  0  0  0  0  0  0
    0.5022  -11.6388    0.6531 N   0  0  0  0  0  0  0  0  0  0  0  0
    1.7354  -12.0497    2.6433 C   0  0  2  0  0  0  0  0  0  0  0  0
    1.6435  -13.4593    2.3328 Cl  0  0  0  0  0  0  0  0  0  0  0  0
    2.3273  -11.7324    3.8079 C   0  0  0  0  0  0  0  0  0  0  0  0
    1.5179   -5.6393    2.6537 C   0  0  0  0  0  0  0  0  0  0  0  0
   -0.7584  -11.7463    0.3697 C   0  0  0  0  0  0  0  0  0  0  0  0
   -1.5580  -11.8782    1.3444 C   0  0  0  0  0  0  0  0  0  0  0  0
   -2.4360  -10.9865    1.8129 C   0  0  0  0  0  0  0  0  0  0  0  0
   -3.2664  -11.2916    2.9871 C   0  0  0  0  0  0  0  0  0  0  0  0
   -3.9281  -10.3906    3.7024 C   0  0  0  0  0  0  0  0  0  0  0  0
   -3.6865   -9.0573    3.3259 C   0  0  0  0  0  0  0  0  0  0  0  0
   -2.8325   -8.6634    2.2874 C   0  0  0  0  0  0  0  0  0  0  0  0
   -2.1311   -9.5964    1.5908 C   0  0  0  0  0  0  0  0  0  0  0  0
  3  7  1  0
  7  8  1  6
  7  9  1  0
  9 10  1  0
  9 11  1  1
  6 12  1  0
  8 13  1  0
 13 14  1  0
 14 15  1  0
 15 16  2  0
 16 17  1  0
 17 18  2  0
 18 19  1  0
 19 20  2  0
 15 20  1  0
  1  2  2  0
  2  3  1  0
  3  4  2  0
  4  5  1  0
  5  6  2  0
  1  6  1  0
M  END

$$$$
No_3320-/export/home/yangzhenyu/potential_scad_32_flow//YTHDC2/2024-12-06-03-22-00/
     RDKit          3D

 19 20  0  0  0  0  0  0  0  0999 V2000
    1.1787   -8.0297    3.5154 C   0  0  0  0  0  0  0  0  0  0  0  0
    1.1048   -9.2215    3.2892 C   0  0  0  0  0  0  0  0  0  0  0  0
    1.2339   -9.7611    2.0189 C   0  0  0  0  0  0  0  0  0  0  0  0
    1.3583   -9.0036    0.9764 C   0  0  0  0  0  0  0  0  0  0  0  0
    1.5996   -7.6362    1.1311 C   0  0  0  0  0  0  0  0  0  0  0  0
    1.4830   -7.0928    2.3626 C   0  0  0  0  0  0  0  0  0  0  0  0
    1.5395   -5.7300    2.6182 C   0  0  0  0  0  0  0  0  0  0  0  0
    1.1775  -11.2233    1.8407 C   0  0  0  0  0  0  0  0  0  0  0  0
    0.5085  -11.9762    2.1989 C   0  0  0  0  0  0  0  0  0  0  0  0
    0.4247  -13.3704    2.0465 C   0  0  0  0  0  0  0  0  0  0  0  0
    1.6054  -14.1557    2.4664 C   0  0  0  0  0  0  0  0  0  0  0  0
    1.8317  -15.3638    2.3262 C   0  0  0  0  0  0  0  0  0  0  0  0
    0.9230  -16.1669    1.7304 C   0  0  0  0  0  0  0  0  0  0  0  0
   -0.2162  -15.6318    1.2999 C   0  0  0  0  0  0  0  0  0  0  0  0
   -0.4566  -14.2720    1.4479 C   0  0  0  0  0  0  0  0  0  0  0  0
   -1.6024  -13.7137    0.8986 C   0  0  0  0  0  0  0  0  0  0  0  0
   -2.7672  -13.8005    1.4793 C   0  0  0  0  0  0  0  0  0  0  0  0
   -3.0868  -14.1720    2.6021 C   0  0  0  0  0  0  0  0  0  0  0  0
   -3.8286  -14.0656    0.5041 C   0  0  0  0  0  0  0  0  0  0  0  0
  6  7  1  0
  3  8  1  0
  8  9  2  3
  9 10  1  0
 15 16  1  0
 16 17  1  0
 17 18  1  0
 17 19  1  0
  1  2  2  0
  2  3  1  0
  3  4  2  0
  4  5  1  0
  5  6  2  0
  1  6  1  0
 10 11  2  0
 11 12  1  0
 12 13  2  0
 13 14  1  0
 14 15  2  0
 10 15  1  0
M  END

$$$$
No_3321-/export/home/yangzhenyu/potential_scad_32_flow//YTHDC2/2024-12-06-03-22-00/
     RDKit          3D

 18 19  0  0  0  0  0  0  0  0999 V2000
    1.1787   -8.0297    3.5154 C   0  0  0  0  0  0  0  0  0  0  0  0
    1.1048   -9.2215    3.2892 C   0  0  0  0  0  0  0  0  0  0  0  0
    1.2339   -9.7611    2.0189 C   0  0  0  0  0  0  0  0  0  0  0  0
    1.3583   -9.0036    0.9764 C   0  0  0  0  0  0  0  0  0  0  0  0
    1.5996   -7.6362    1.1311 C   0  0  0  0  0  0  0  0  0  0  0  0
    1.4830   -7.0928    2.3626 C   0  0  0  0  0  0  0  0  0  0  0  0
    1.1008  -11.2372    1.8542 C   0  0  0  0  0  0  0  0  0  0  0  0
    0.5178  -11.9759    2.3445 C   0  0  0  0  0  0  0  0  0  0  0  0
   -0.4557  -11.5167    3.4352 C   0  0  0  0  0  0  0  0  0  0  0  0
    0.4022  -13.4411    2.1639 C   0  0  0  0  0  0  0  0  0  0  0  0
   -0.3856  -13.9200    1.5018 C   0  0  0  0  0  0  0  0  0  0  0  0
   -0.4517  -15.3421    1.2273 C   0  0  0  0  0  0  0  0  0  0  0  0
    0.6401  -16.1488    1.6496 C   0  0  0  0  0  0  0  0  0  0  0  0
    0.5861  -17.5756    1.4843 C   0  0  0  0  0  0  0  0  0  0  0  0
   -0.4714  -18.0752    0.8621 C   0  0  0  0  0  0  0  0  0  0  0  0
   -1.5458  -17.3463    0.5412 C   0  0  0  0  0  0  0  0  0  0  0  0
   -1.4885  -15.9535    0.6989 C   0  0  0  0  0  0  0  0  0  0  0  0
    1.5707   -5.4850    2.6698 Cl  0  0  0  0  0  0  0  0  0  0  0  0
  3  7  1  0
  7  8  2  3
  8  9  1  0
  8 10  1  0
 10 11  2  3
 11 12  1  0
  6 18  1  0
 12 13  2  0
 13 14  1  0
 14 15  2  0
 15 16  1  0
 16 17  2  0
 12 17  1  0
  1  2  2  0
  2  3  1  0
  3  4  2  0
  4  5  1  0
  5  6  2  0
  1  6  1  0
M  END

$$$$
No_3322-/export/home/yangzhenyu/potential_scad_32_flow//YTHDC2/2024-12-06-03-22-00/
     RDKit          3D

 17 17  0  0  1  0  0  0  0  0999 V2000
    1.1787   -8.0297    3.5154 C   0  0  0  0  0  0  0  0  0  0  0  0
    1.0491   -6.8434    2.9820 C   0  0  0  0  0  0  0  0  0  0  0  0
    0.9905   -9.0774    2.6527 C   0  0  0  0  0  0  0  0  0  0  0  0
    1.1655  -10.4663    3.1286 C   0  0  2  0  0  0  0  0  0  0  0  0
    1.7409  -10.6480    4.4599 C   0  0  0  0  0  0  0  0  0  0  0  0
    1.0486   -6.3431    1.8833 C   0  0  0  0  0  0  0  0  0  0  0  0
    0.8094   -7.4673    0.8674 C   0  0  0  0  0  0  0  0  0  0  0  0
    0.8523   -8.7792    1.1982 C   0  0  0  0  0  0  0  0  0  0  0  0
    0.9069  -11.5000    2.3463 C   0  0  1  0  0  0  0  0  0  0  0  0
    0.9444  -12.8008    3.1164 N   0  0  0  0  0  0  0  0  0  0  0  0
    0.8978   -4.8977    1.2546 Cl  0  0  0  0  0  0  0  0  0  0  0  0
    0.4875  -11.5490    1.2096 C   0  0  0  0  0  0  0  0  0  0  0  0
    1.2612  -11.3335    0.2736 O   0  0  0  0  0  0  0  0  0  0  0  0
   -0.7396  -11.8496    0.8014 N   0  0  0  0  0  0  0  0  0  0  0  0
    1.2962  -13.8978    2.5143 C   0  0  0  0  0  0  0  0  0  0  0  0
    0.7561  -15.1821    3.0313 C   0  0  0  0  0  0  0  0  0  0  0  0
    0.7878  -16.2086    2.6782 C   0  0  0  0  0  0  0  0  0  0  0  0
  3  4  1  0
  4  5  1  6
  4  9  1  0
  9 10  1  1
  6 11  1  0
  9 12  1  0
 12 13  2  0
 12 14  1  0
 10 15  1  0
 15 16  1  0
 16 17  2  0
  1  2  2  0
  2  6  1  0
  6  7  2  0
  7  8  1  0
  3  8  2  0
  1  3  1  0
M  END

$$$$
No_3323-/export/home/yangzhenyu/potential_scad_32_flow//YTHDC2/2024-12-06-03-22-00/
     RDKit          3D

 17 17  0  0  1  0  0  0  0  0999 V2000
    1.1787   -8.0297    3.5154 O   0  0  0  0  0  0  0  0  0  0  0  0
    0.9969   -8.9689    3.0048 C   0  0  0  0  0  0  0  0  0  0  0  0
    1.3055  -10.1056    3.6616 C   0  0  0  0  0  0  0  0  0  0  0  0
    1.1249  -11.3503    3.0941 C   0  0  0  0  0  0  0  0  0  0  0  0
    0.6932  -11.4484    1.8586 C   0  0  0  0  0  0  0  0  0  0  0  0
    0.5498  -10.3736    1.0579 C   0  0  0  0  0  0  0  0  0  0  0  0
    0.7643   -9.1185    1.6383 C   0  0  0  0  0  0  0  0  0  0  0  0
    0.4151   -7.8542    1.0784 C   0  0  0  0  0  0  0  0  0  0  0  0
    1.2617   -6.9596    0.8839 O   0  0  0  0  0  0  0  0  0  0  0  0
   -0.7681   -7.5590    0.5014 N   0  0  0  0  0  0  0  0  0  0  0  0
    1.2720  -12.8260    3.9753 C   0  0  0  0  0  0  0  0  0  0  0  0
    1.1230  -13.6788    3.3633 N   0  0  0  0  0  0  0  0  0  0  0  0
    1.4921  -13.9968    2.0615 C   0  0  1  0  0  0  0  0  0  0  0  0
    2.7811  -13.7551    1.6804 C   0  0  0  0  0  0  0  0  0  0  0  0
    1.2593  -15.5507    1.7257 C   0  0  0  0  0  0  0  0  0  0  0  0
    0.2746  -15.9386    2.0941 C   0  0  0  0  0  0  0  0  0  0  0  0
   -0.1887  -17.0063    1.8515 C   0  0  0  0  0  0  0  0  0  0  0  0
  1  2  1  0
  7  8  1  0
  8  9  2  0
  8 10  1  0
  4 11  1  0
 11 12  2  3
 12 13  1  0
 13 14  1  1
 13 15  1  0
 15 16  1  0
 16 17  2  0
  2  3  2  0
  3  4  1  0
  4  5  2  0
  5  6  1  0
  6  7  2  0
  2  7  1  0
M  END

$$$$
No_3324-/export/home/yangzhenyu/potential_scad_32_flow//YTHDC2/2024-12-06-03-22-00/
     RDKit          3D

 18 20  0  0  0  0  0  0  0  0999 V2000
    1.1787   -8.0297    3.5154 C   0  0  0  0  0  0  0  0  0  0  0  0
    1.1048   -9.2215    3.2892 C   0  0  0  0  0  0  0  0  0  0  0  0
    1.3627  -10.1721    4.3044 C   0  0  0  0  0  0  0  0  0  0  0  0
    1.0682  -11.5187    4.0618 C   0  0  0  0  0  0  0  0  0  0  0  0
    0.6332  -11.9655    2.9682 C   0  0  0  0  0  0  0  0  0  0  0  0
    0.4776  -11.1308    1.9203 C   0  0  0  0  0  0  0  0  0  0  0  0
    0.7470   -9.8274    2.0368 C   0  0  0  0  0  0  0  0  0  0  0  0
    0.5535   -7.1314    2.6861 C   0  0  0  0  0  0  0  0  0  0  0  0
    0.2950   -7.6000    1.3275 C   0  0  0  0  0  0  0  0  0  0  0  0
    0.2693   -8.8631    1.0973 C   0  0  0  0  0  0  0  0  0  0  0  0
   -0.0513   -6.7125    0.4242 O   0  0  0  0  0  0  0  0  0  0  0  0
    0.4918  -13.3974    2.7285 C   0  0  0  0  0  0  0  0  0  0  0  0
   -0.5878  -13.8014    2.2392 C   0  0  0  0  0  0  0  0  0  0  0  0
    1.5761  -14.2872    3.1179 C   0  0  0  0  0  0  0  0  0  0  0  0
   -0.7758  -15.1372    1.8977 C   0  0  0  0  0  0  0  0  0  0  0  0
    0.2091  -16.0954    2.3388 C   0  0  0  0  0  0  0  0  0  0  0  0
    1.3750  -15.6539    2.9393 C   0  0  0  0  0  0  0  0  0  0  0  0
    0.0291   -9.2965   -0.1764 O   0  0  0  0  0  0  0  0  0  0  0  0
  1  2  1  0
  8  9  1  0
  7 10  1  0
  9 10  1  0
  9 11  2  0
  5 12  1  0
 10 18  2  0
  1  8  1  0
  2  3  2  0
  3  4  1  0
  4  5  2  0
  5  6  1  0
  6  7  2  0
  2  7  1  0
 12 13  2  0
 13 15  1  0
 15 16  2  0
 16 17  1  0
 14 17  2  0
 12 14  1  0
M  END

$$$$
No_3325-/export/home/yangzhenyu/potential_scad_32_flow//YTHDC2/2024-12-06-03-22-00/
     RDKit          3D

 19 21  0  0  0  0  0  0  0  0999 V2000
    1.1787   -8.0297    3.5154 C   0  0  0  0  0  0  0  0  0  0  0  0
    1.1048   -9.2215    3.2892 C   0  0  0  0  0  0  0  0  0  0  0  0
    1.3627  -10.1721    4.3044 C   0  0  0  0  0  0  0  0  0  0  0  0
    1.0682  -11.5187    4.0618 C   0  0  0  0  0  0  0  0  0  0  0  0
    0.6332  -11.9655    2.9682 C   0  0  0  0  0  0  0  0  0  0  0  0
    0.4776  -11.1308    1.9203 C   0  0  0  0  0  0  0  0  0  0  0  0
    0.7470   -9.8274    2.0368 C   0  0  0  0  0  0  0  0  0  0  0  0
    0.5535   -7.1314    2.6861 C   0  0  0  0  0  0  0  0  0  0  0  0
    0.2950   -7.6000    1.3275 C   0  0  0  0  0  0  0  0  0  0  0  0
    0.2693   -8.8631    1.0973 C   0  0  0  0  0  0  0  0  0  0  0  0
    0.4787  -13.3960    2.7088 C   0  0  0  0  0  0  0  0  0  0  0  0
   -0.7335  -13.8737    2.3241 C   0  0  0  0  0  0  0  0  0  0  0  0
    1.5399  -14.2651    2.6845 C   0  0  0  0  0  0  0  0  0  0  0  0
    1.2983  -15.6277    2.5822 C   0  0  0  0  0  0  0  0  0  0  0  0
    0.1618  -16.1083    2.3084 C   0  0  0  0  0  0  0  0  0  0  0  0
   -0.9052  -15.1855    2.2263 C   0  0  0  0  0  0  0  0  0  0  0  0
   -0.1213   -9.2565   -0.2061 C   0  0  0  0  0  0  0  0  0  0  0  0
   -0.8891   -8.6191   -0.9114 O   0  0  0  0  0  0  0  0  0  0  0  0
    0.7479   -9.9189   -0.9861 O   0  0  0  0  0  0  0  0  0  0  0  0
  5 11  1  0
 10 17  1  0
 17 18  2  0
 17 19  1  0
  2  3  1  0
  3  4  2  0
  4  5  1  0
  5  6  2  0
  6  7  1  0
  1  2  2  0
  2  7  1  0
  7 10  2  0
  9 10  1  0
  8  9  2  0
  1  8  1  0
 11 12  2  0
 12 16  1  0
 15 16  2  0
 14 15  1  0
 13 14  2  0
 11 13  1  0
M  END

$$$$
No_3326-/export/home/yangzhenyu/potential_scad_32_flow//YTHDC2/2024-12-06-03-22-00/
     RDKit          3D

 19 20  0  0  1  0  0  0  0  0999 V2000
    1.1787   -8.0297    3.5154 C   0  0  0  0  0  0  0  0  0  0  0  0
    1.0491   -6.8434    2.9820 C   0  0  0  0  0  0  0  0  0  0  0  0
    0.0950   -8.8404    3.2292 C   0  0  0  0  0  0  0  0  0  0  0  0
   -0.9173   -8.4596    2.5152 C   0  0  0  0  0  0  0  0  0  0  0  0
   -1.0331   -7.2162    2.0653 C   0  0  0  0  0  0  0  0  0  0  0  0
   -0.0105   -6.3168    2.3081 C   0  0  0  0  0  0  0  0  0  0  0  0
    0.1150   -4.9910    1.8495 C   0  0  2  0  0  0  0  0  0  0  0  0
   -0.1376   -4.7952    0.5550 C   0  0  0  0  0  0  0  0  0  0  0  0
   -0.2146   -3.3857    0.2341 C   0  0  0  0  0  0  0  0  0  0  0  0
    0.5012   -2.6512    1.3246 C   0  0  2  0  0  0  0  0  0  0  0  0
    0.8882   -2.9429    2.5431 C   0  0  0  0  0  0  0  0  0  0  0  0
    0.7123   -4.2525    2.8231 C   0  0  0  0  0  0  0  0  0  0  0  0
    0.1130  -10.3690    3.8539 Cl  0  0  0  0  0  0  0  0  0  0  0  0
    0.6990   -0.9475    0.8766 Cl  0  0  0  0  0  0  0  0  0  0  0  0
    1.3870   -2.0624    3.5293 C   0  0  0  0  0  0  0  0  0  0  0  0
    1.1216   -4.4887    4.1210 O   0  0  0  0  0  0  0  0  0  0  0  0
    0.9957   -2.4748    4.7512 C   0  0  0  0  0  0  0  0  0  0  0  0
   -0.3874   -1.8466    5.1859 C   0  0  0  0  0  0  0  0  0  0  0  0
   -0.9998   -1.1331    4.4960 C   0  0  0  0  0  0  0  0  0  0  0  0
  7  6  1  6
  7  8  1  0
  9 10  1  0
  7 12  1  0
 11 12  1  0
  3 13  1  0
 10 14  1  1
 11 15  1  0
 12 16  2  0
 15 17  1  0
 17 18  1  0
 18 19  1  0
  8  9  1  0
 10 11  1  0
  1  2  2  0
  2  6  1  0
  5  6  2  0
  4  5  1  0
  3  4  2  0
  1  3  1  0
M  END

$$$$
No_3327-/export/home/yangzhenyu/potential_scad_32_flow//YTHDC2/2024-12-06-03-22-00/
     RDKit          3D

 21 22  0  0  1  0  0  0  0  0999 V2000
    1.1787   -8.0297    3.5154 C   0  0  0  0  0  0  0  0  0  0  0  0
    1.1048   -9.2215    3.2892 C   0  0  0  0  0  0  0  0  0  0  0  0
    1.3627  -10.1721    4.3044 C   0  0  0  0  0  0  0  0  0  0  0  0
    1.7354  -11.4730    3.9023 C   0  0  0  0  0  0  0  0  0  0  0  0
    1.8080  -11.8127    2.7216 C   0  0  0  0  0  0  0  0  0  0  0  0
    1.5854  -11.0021    1.7249 C   0  0  0  0  0  0  0  0  0  0  0  0
    1.3573   -9.7389    1.9287 C   0  0  0  0  0  0  0  0  0  0  0  0
    1.1102   -8.8712    0.9017 C   0  0  0  0  0  0  0  0  0  0  0  0
    0.5299   -7.6926    1.0325 C   0  0  0  0  0  0  0  0  0  0  0  0
    0.7526   -7.0802    2.3301 C   0  0  0  0  0  0  0  0  0  0  0  0
    2.0515  -13.2522    2.4284 C   0  0  2  0  0  0  0  0  0  0  0  0
    2.4197  -13.7233    1.3168 C   0  0  0  0  0  0  0  0  0  0  0  0
    1.0078  -14.1475    2.9623 C   0  0  0  0  0  0  0  0  0  0  0  0
   -0.0297  -14.4596    2.4361 C   0  0  0  0  0  0  0  0  0  0  0  0
   -0.8328  -13.6073    1.8430 C   0  0  0  0  0  0  0  0  0  0  0  0
    0.5135   -5.6602    2.5370 C   0  0  0  0  0  0  0  0  0  0  0  0
    0.9132   -4.8505    1.5910 N   0  0  0  0  0  0  0  0  0  0  0  0
   -1.0284  -13.7509    0.4996 C   0  0  0  0  0  0  0  0  0  0  0  0
   -1.8603  -12.7085   -0.2096 C   0  0  0  0  0  0  0  0  0  0  0  0
   -1.8204  -12.7357   -1.5699 C   0  0  0  0  0  0  0  0  0  0  0  0
   -1.1344  -13.7424   -2.2694 N   0  0  0  0  0  0  0  0  0  0  0  0
  5 11  1  0
 11 12  1  6
 11 13  1  0
 13 14  1  0
 14 15  1  0
 10 16  1  0
 16 17  1  0
 15 18  2  3
 18 19  1  0
 19 20  2  3
 20 21  1  0
  1  2  2  0
  7  8  2  0
  8  9  1  0
  9 10  2  0
  1 10  1  0
  2  3  1  0
  3  4  2  0
  4  5  1  0
  5  6  2  0
  6  7  1  0
  2  7  1  0
M  END

$$$$
No_3328-/export/home/yangzhenyu/potential_scad_32_flow//YTHDC2/2024-12-06-03-22-00/
     RDKit          3D

 18 19  0  0  1  0  0  0  0  0999 V2000
    1.1787   -8.0297    3.5154 C   0  0  0  0  0  0  0  0  0  0  0  0
    1.0491   -6.8434    2.9820 C   0  0  0  0  0  0  0  0  0  0  0  0
    1.9985   -8.9840    2.8958 C   0  0  0  0  0  0  0  0  0  0  0  0
    1.9135  -10.3404    3.6266 C   0  0  0  0  0  0  0  0  0  0  0  0
    1.3291  -11.3908    3.0222 C   0  0  1  0  0  0  0  0  0  0  0  0
    1.0344  -11.3281    1.7959 C   0  0  0  0  0  0  0  0  0  0  0  0
    0.5050   -6.6553    1.7492 C   0  0  0  0  0  0  0  0  0  0  0  0
    0.4773  -12.4299    1.1902 C   0  0  0  0  0  0  0  0  0  0  0  0
    0.3762  -13.6506    1.8382 C   0  0  1  0  0  0  0  0  0  0  0  0
   -0.0024  -14.8894    1.3889 C   0  0  0  0  0  0  0  0  0  0  0  0
    0.8704  -13.5137    3.2000 C   0  0  0  0  0  0  0  0  0  0  0  0
    1.3673  -12.4487    3.8327 C   0  0  0  0  0  0  0  0  0  0  0  0
    0.4010   -5.3092    1.3118 C   0  0  0  0  0  0  0  0  0  0  0  0
    0.6566   -4.2336    2.1299 C   0  0  0  0  0  0  0  0  0  0  0  0
    1.3266   -4.4571    3.3731 C   0  0  0  0  0  0  0  0  0  0  0  0
    1.5233   -5.7198    3.7725 C   0  0  0  0  0  0  0  0  0  0  0  0
    0.6611  -14.7057    3.8957 O   0  0  0  0  0  0  0  0  0  0  0  0
    0.5170   -2.9022    1.5601 C   0  0  0  0  0  0  0  0  0  0  0  0
  1  2  1  0
  1  3  1  0
  3  4  1  0
  5  4  1  6
  5  6  1  0
  8  9  1  0
  9 10  1  6
  9 11  1  0
  5 12  1  0
 11 12  1  0
 11 17  2  0
 14 18  1  0
  6  8  1  0
  2  7  2  0
  7 13  1  0
 13 14  2  0
 14 15  1  0
 15 16  2  0
  2 16  1  0
M  END

$$$$
No_3329-/export/home/yangzhenyu/potential_scad_32_flow//YTHDC2/2024-12-06-03-22-00/
     RDKit          3D

 19 20  0  0  1  0  0  0  0  0999 V2000
    1.1787   -8.0297    3.5154 C   0  0  0  0  0  0  0  0  0  0  0  0
    1.1048   -9.2215    3.2892 C   0  0  0  0  0  0  0  0  0  0  0  0
    1.2339   -9.7611    2.0189 C   0  0  0  0  0  0  0  0  0  0  0  0
    1.4306   -8.9466    1.1170 C   0  0  0  0  0  0  0  0  0  0  0  0
    1.6532   -7.5949    1.1786 C   0  0  0  0  0  0  0  0  0  0  0  0
    1.4973   -7.0739    2.4258 C   0  0  0  0  0  0  0  0  0  0  0  0
    1.5178   -5.6803    2.7303 C   0  0  0  0  0  0  0  0  0  0  0  0
    1.2507  -11.3384    1.8133 C   0  0  2  0  0  0  0  0  0  0  0  0
    1.7922  -12.1035    2.6143 C   0  0  0  0  0  0  0  0  0  0  0  0
    1.6121  -13.4931    2.2375 C   0  0  1  0  0  0  0  0  0  0  0  0
    1.0360  -13.8334    1.0833 C   0  0  0  0  0  0  0  0  0  0  0  0
    0.5363  -12.8265    0.1737 C   0  0  0  0  0  0  0  0  0  0  0  0
    0.6074  -11.5343    0.5657 C   0  0  0  0  0  0  0  0  0  0  0  0
    2.1490  -14.4761    3.1026 Cl  0  0  0  0  0  0  0  0  0  0  0  0
    1.3084   -4.7729    1.7368 O   0  0  0  0  0  0  0  0  0  0  0  0
    1.4818   -5.2158    3.9911 O   0  0  0  0  0  0  0  0  0  0  0  0
    0.1011  -10.6426   -0.2605 O   0  0  0  0  0  0  0  0  0  0  0  0
    0.8740  -10.0969    4.4301 N   0  0  0  0  0  0  0  0  0  0  0  0
   -0.2862  -10.5221    4.8174 O   0  0  0  0  0  0  0  0  0  0  0  0
  6  7  1  0
  8  3  1  6
  8  9  1  0
 10 11  1  0
  8 13  1  0
 12 13  1  0
 10 14  1  6
  7 15  2  0
  7 16  1  0
 13 17  2  0
  2 18  1  0
 18 19  2  0
  9 10  1  0
 11 12  1  0
  1  2  2  0
  2  3  1  0
  3  4  2  0
  4  5  1  0
  5  6  2  0
  1  6  1  0
M  END

$$$$
No_3330-/export/home/yangzhenyu/potential_scad_32_flow//YTHDC2/2024-12-06-03-22-00/
     RDKit          3D

 17 18  0  0  1  0  0  0  0  0999 V2000
    1.1787   -8.0297    3.5154 C   0  0  0  0  0  0  0  0  0  0  0  0
    1.0491   -6.8434    2.9820 C   0  0  0  0  0  0  0  0  0  0  0  0
    1.9985   -8.9840    2.8958 C   0  0  0  0  0  0  0  0  0  0  0  0
    1.9135  -10.3404    3.6266 C   0  0  0  0  0  0  0  0  0  0  0  0
    0.9460  -10.6347    4.5748 C   0  0  0  0  0  0  0  0  0  0  0  0
   -0.0977   -9.6850    4.6652 C   0  0  0  0  0  0  0  0  0  0  0  0
   -0.0465   -8.4791    4.1040 C   0  0  0  0  0  0  0  0  0  0  0  0
    0.3395   -6.3173    2.3392 C   0  0  0  0  0  0  0  0  0  0  0  0
    0.3781   -4.8194    1.9358 C   0  0  1  0  0  0  0  0  0  0  0  0
    1.5121   -4.1555    2.4554 Cl  0  0  0  0  0  0  0  0  0  0  0  0
   -0.4836   -4.3529    1.0352 C   0  0  0  0  0  0  0  0  0  0  0  0
   -1.4191   -5.1369    0.4096 C   0  0  0  0  0  0  0  0  0  0  0  0
   -2.4373   -4.5158   -0.3310 C   0  0  0  0  0  0  0  0  0  0  0  0
   -2.4302   -3.1156   -0.5438 C   0  0  0  0  0  0  0  0  0  0  0  0
   -1.4829   -2.3456    0.0481 C   0  0  0  0  0  0  0  0  0  0  0  0
   -0.5280   -2.8954    0.8373 C   0  0  0  0  0  0  0  0  0  0  0  0
   -3.4119   -2.4792   -1.5214 O   0  0  0  0  0  0  0  0  0  0  0  0
  1  2  1  0
  2  8  2  3
  8  9  1  0
  9 10  1  6
  9 11  1  0
 14 17  1  0
 11 12  2  0
 12 13  1  0
 13 14  2  0
 14 15  1  0
 15 16  2  0
 11 16  1  0
  1  3  2  0
  3  4  1  0
  4  5  2  0
  5  6  1  0
  6  7  2  0
  1  7  1  0
M  END

$$$$
No_3331-/export/home/yangzhenyu/potential_scad_32_flow//YTHDC2/2024-12-06-03-22-00/
     RDKit          3D

 19 20  0  0  0  0  0  0  0  0999 V2000
    1.1787   -8.0297    3.5154 C   0  0  0  0  0  0  0  0  0  0  0  0
    1.0491   -6.8434    2.9820 C   0  0  0  0  0  0  0  0  0  0  0  0
    0.0950   -8.8404    3.2292 C   0  0  0  0  0  0  0  0  0  0  0  0
   -0.9173   -8.4596    2.5152 C   0  0  0  0  0  0  0  0  0  0  0  0
   -1.0331   -7.2162    2.0653 C   0  0  0  0  0  0  0  0  0  0  0  0
   -0.0105   -6.3168    2.3081 C   0  0  0  0  0  0  0  0  0  0  0  0
    0.1465  -10.2446    3.6981 C   0  0  0  0  0  0  0  0  0  0  0  0
   -1.0337  -10.8619    3.9439 C   0  0  0  0  0  0  0  0  0  0  0  0
   -2.1702  -10.4673    3.2991 C   0  0  0  0  0  0  0  0  0  0  0  0
   -2.1358   -9.2084    2.5791 C   0  0  0  0  0  0  0  0  0  0  0  0
   -0.0407   -4.9560    1.8452 C   0  0  0  0  0  0  0  0  0  0  0  0
   -0.7987   -4.0992    2.2489 O   0  0  0  0  0  0  0  0  0  0  0  0
    0.9767   -4.4912    1.0020 N   0  0  0  0  0  0  0  0  0  0  0  0
    1.5309  -10.7824    4.6104 C   0  0  0  0  0  0  0  0  0  0  0  0
    2.1901  -11.5653    3.7393 C   0  0  0  0  0  0  0  0  0  0  0  0
    1.8367  -11.5881    2.3927 C   0  0  0  0  0  0  0  0  0  0  0  0
    2.1474  -10.6723    1.4684 C   0  0  0  0  0  0  0  0  0  0  0  0
    1.6306  -10.7105    0.2996 C   0  0  0  0  0  0  0  0  0  0  0  0
    0.9788  -11.8685    0.1328 C   0  0  0  0  0  0  0  0  0  0  0  0
  6 11  1  0
 11 12  2  0
 11 13  1  0
  7 14  1  0
 14 15  1  0
 15 16  1  0
 16 17  1  0
 17 18  2  3
 18 19  1  0
  4 10  2  0
  9 10  1  0
  8  9  2  0
  7  8  1  0
  3  7  2  0
  1  2  2  0
  2  6  1  0
  5  6  2  0
  4  5  1  0
  3  4  1  0
  1  3  1  0
M  END

$$$$
No_3332-/export/home/yangzhenyu/potential_scad_32_flow//YTHDC2/2024-12-06-03-22-00/
     RDKit          3D

 19 20  0  0  1  0  0  0  0  0999 V2000
    1.1787   -8.0297    3.5154 C   0  0  0  0  0  0  0  0  0  0  0  0
    1.1048   -9.2215    3.2892 C   0  0  0  0  0  0  0  0  0  0  0  0
    1.3627  -10.1721    4.3044 C   0  0  0  0  0  0  0  0  0  0  0  0
    1.7354  -11.4730    3.9023 C   0  0  0  0  0  0  0  0  0  0  0  0
    1.8080  -11.8127    2.7216 C   0  0  0  0  0  0  0  0  0  0  0  0
    1.5854  -11.0021    1.7249 C   0  0  0  0  0  0  0  0  0  0  0  0
    1.3573   -9.7389    1.9287 C   0  0  0  0  0  0  0  0  0  0  0  0
    1.2865   -8.8078    0.9161 C   0  0  2  0  0  0  0  0  0  0  0  0
    1.6845   -9.1638   -0.2896 Br  0  0  0  0  0  0  0  0  0  0  0  0
    1.0903   -7.0241    2.9193 N   0  0  0  0  0  0  0  0  0  0  0  0
    1.1882   -7.4230    1.3263 C   0  0  0  0  0  0  0  0  0  0  0  0
    2.0745  -13.4718    2.3375 C   0  0  0  0  0  0  0  0  0  0  0  0
    1.2703   -6.4734    0.4618 O   0  0  0  0  0  0  0  0  0  0  0  0
    2.4128  -13.8140    1.2442 O   0  0  0  0  0  0  0  0  0  0  0  0
    2.0441  -14.3526    3.2578 O   0  0  0  0  0  0  0  0  0  0  0  0
    1.9194  -15.6456    2.8365 C   0  0  0  0  0  0  0  0  0  0  0  0
    0.7571  -16.3317    2.9509 C   0  0  0  0  0  0  0  0  0  0  0  0
    0.6629  -17.4784    3.2262 O   0  0  0  0  0  0  0  0  0  0  0  0
   -0.2953  -15.5385    2.8076 O   0  0  0  0  0  0  0  0  0  0  0  0
  1  2  1  0
  7  8  1  0
  8  9  1  6
  8 11  1  0
 10 11  1  0
  5 12  1  0
 11 13  2  0
 12 14  2  0
 12 15  1  0
 15 16  1  0
 16 17  1  0
 17 18  2  0
 17 19  1  0
  1 10  1  0
  2  3  2  0
  3  4  1  0
  4  5  2  0
  5  6  1  0
  6  7  2  0
  2  7  1  0
M  END

$$$$
No_3333-/export/home/yangzhenyu/potential_scad_32_flow//YTHDC2/2024-12-06-03-22-00/
     RDKit          3D

 18 18  0  0  0  0  0  0  0  0999 V2000
    1.1787   -8.0297    3.5154 N   0  0  0  0  0  0  0  0  0  0  0  0
    0.8669   -7.0905    2.8589 C   0  0  0  0  0  0  0  0  0  0  0  0
    1.0447   -7.3244    1.4123 C   0  0  0  0  0  0  0  0  0  0  0  0
    1.3746   -8.4389    1.0864 C   0  0  0  0  0  0  0  0  0  0  0  0
    1.8493   -9.4093    1.8124 C   0  0  0  0  0  0  0  0  0  0  0  0
    1.7421   -9.2119    3.1541 C   0  0  0  0  0  0  0  0  0  0  0  0
    2.0608  -10.3132    4.0586 C   0  0  0  0  0  0  0  0  0  0  0  0
    1.3103  -11.3806    4.2606 C   0  0  0  0  0  0  0  0  0  0  0  0
    1.6675  -12.5943    3.8005 N   0  0  0  0  0  0  0  0  0  0  0  0
    1.7057   -8.6195   -0.4098 C   0  0  0  0  0  0  0  0  0  0  0  0
    2.8605   -8.9900   -0.9162 O   0  0  0  0  0  0  0  0  0  0  0  0
    0.7514   -8.6918   -1.2631 O   0  0  0  0  0  0  0  0  0  0  0  0
    1.0710  -13.1599    2.7948 C   0  0  0  0  0  0  0  0  0  0  0  0
    1.5654  -14.6050    2.5899 O   0  0  0  0  0  0  0  0  0  0  0  0
    0.1787  -12.7236    2.1615 O   0  0  0  0  0  0  0  0  0  0  0  0
    1.1765  -15.2495    1.5538 C   0  0  0  0  0  0  0  0  0  0  0  0
    0.9351  -16.5216    1.9454 C   0  0  0  0  0  0  0  0  0  0  0  0
    0.2058  -17.1798    1.4582 I   0  0  0  0  0  0  0  0  0  0  0  0
  6  7  1  0
  7  8  1  0
  8  9  1  0
  4 10  1  0
 10 11  2  0
 10 12  1  0
  9 13  1  0
 13 14  1  0
 13 15  2  0
 14 16  1  0
 16 17  1  0
 17 18  1  0
  1  2  2  0
  2  3  1  0
  3  4  2  0
  4  5  1  0
  5  6  2  0
  1  6  1  0
M  END

$$$$
No_3334-/export/home/yangzhenyu/potential_scad_32_flow//YTHDC2/2024-12-06-03-22-00/
     RDKit          3D

 19 21  0  0  0  0  0  0  0  0999 V2000
    1.1787   -8.0297    3.5154 C   0  0  0  0  0  0  0  0  0  0  0  0
    1.1048   -9.2215    3.2892 C   0  0  0  0  0  0  0  0  0  0  0  0
    1.3627  -10.1721    4.3044 C   0  0  0  0  0  0  0  0  0  0  0  0
    1.0682  -11.5187    4.0618 C   0  0  0  0  0  0  0  0  0  0  0  0
    0.6332  -11.9655    2.9682 C   0  0  0  0  0  0  0  0  0  0  0  0
    0.4776  -11.1308    1.9203 C   0  0  0  0  0  0  0  0  0  0  0  0
    0.7470   -9.8274    2.0368 C   0  0  0  0  0  0  0  0  0  0  0  0
    1.0387   -7.0301    2.5175 C   0  0  0  0  0  0  0  0  0  0  0  0
    0.9130   -7.5288    1.2013 C   0  0  0  0  0  0  0  0  0  0  0  0
    0.7893   -8.7979    0.9542 C   0  0  0  0  0  0  0  0  0  0  0  0
    0.3851  -13.5918    2.7030 C   0  0  0  0  0  0  0  0  0  0  0  0
    1.4499  -14.3811    3.1650 C   0  0  0  0  0  0  0  0  0  0  0  0
    1.1475  -15.7469    2.9869 C   0  0  0  0  0  0  0  0  0  0  0  0
    0.2349  -16.1991    2.2855 C   0  0  0  0  0  0  0  0  0  0  0  0
   -0.6528  -15.3439    1.7176 C   0  0  0  0  0  0  0  0  0  0  0  0
   -0.4565  -13.9930    1.8980 C   0  0  0  0  0  0  0  0  0  0  0  0
    0.4260   -9.3106   -0.5030 C   0  0  0  0  0  0  0  0  0  0  0  0
   -0.8430   -9.7100   -0.6468 O   0  0  0  0  0  0  0  0  0  0  0  0
    0.8945   -8.5395   -1.4049 O   0  0  0  0  0  0  0  0  0  0  0  0
  5 11  1  0
 10 17  1  0
 17 18  1  0
 17 19  2  0
 11 12  2  0
 12 13  1  0
 13 14  2  0
 14 15  1  0
 15 16  2  0
 11 16  1  0
  2  3  1  0
  3  4  2  0
  4  5  1  0
  5  6  2  0
  6  7  1  0
  1  2  2  0
  2  7  1  0
  7 10  2  0
  9 10  1  0
  8  9  2  0
  1  8  1  0
M  END

$$$$
No_3335-/export/home/yangzhenyu/potential_scad_32_flow//YTHDC2/2024-12-06-03-22-00/
     RDKit          3D

 19 20  0  0  0  0  0  0  0  0999 V2000
    1.1787   -8.0297    3.5154 C   0  0  0  0  0  0  0  0  0  0  0  0
    1.1048   -9.2215    3.2892 C   0  0  0  0  0  0  0  0  0  0  0  0
    1.2339   -9.7611    2.0189 C   0  0  0  0  0  0  0  0  0  0  0  0
    1.3583   -9.0036    0.9764 C   0  0  0  0  0  0  0  0  0  0  0  0
    1.5996   -7.6362    1.1311 C   0  0  0  0  0  0  0  0  0  0  0  0
    1.4830   -7.0928    2.3626 C   0  0  0  0  0  0  0  0  0  0  0  0
    1.1008  -11.2372    1.8542 C   0  0  0  0  0  0  0  0  0  0  0  0
    0.5178  -11.9759    2.3445 C   0  0  0  0  0  0  0  0  0  0  0  0
    0.4575  -13.3705    2.1281 C   0  0  0  0  0  0  0  0  0  0  0  0
    1.3992  -14.2795    2.9784 C   0  0  0  0  0  0  0  0  0  0  0  0
    1.3981  -15.5837    2.7718 C   0  0  0  0  0  0  0  0  0  0  0  0
    0.6478  -16.1498    1.8129 C   0  0  0  0  0  0  0  0  0  0  0  0
   -0.1507  -15.4364    1.0074 C   0  0  0  0  0  0  0  0  0  0  0  0
   -0.2761  -14.0581    1.2370 C   0  0  0  0  0  0  0  0  0  0  0  0
    1.5638   -5.6558    2.6514 C   0  0  0  0  0  0  0  0  0  0  0  0
    1.1965   -4.7842    1.6468 O   0  0  0  0  0  0  0  0  0  0  0  0
    1.8271   -5.0766    3.7435 O   0  0  0  0  0  0  0  0  0  0  0  0
   -0.8889  -13.3351    0.2380 C   0  0  0  0  0  0  0  0  0  0  0  0
   -1.9900  -13.7116   -0.2927 O   0  0  0  0  0  0  0  0  0  0  0  0
  3  7  1  0
  7  8  2  3
  8  9  1  0
  6 15  1  0
 15 16  2  0
 15 17  1  0
 14 18  1  0
 18 19  2  0
  1  2  2  0
  2  3  1  0
  3  4  2  0
  4  5  1  0
  5  6  2  0
  1  6  1  0
  9 10  2  0
 10 11  1  0
 11 12  2  0
 12 13  1  0
 13 14  2  0
  9 14  1  0
M  END

$$$$
No_3336-/export/home/yangzhenyu/potential_scad_32_flow//YTHDC2/2024-12-06-03-22-00/
     RDKit          3D

 18 19  0  0  0  0  0  0  0  0999 V2000
    1.1787   -8.0297    3.5154 C   0  0  0  0  0  0  0  0  0  0  0  0
    1.0491   -6.8434    2.9820 C   0  0  0  0  0  0  0  0  0  0  0  0
    0.0950   -8.8404    3.2292 C   0  0  0  0  0  0  0  0  0  0  0  0
   -0.9173   -8.4596    2.5152 C   0  0  0  0  0  0  0  0  0  0  0  0
   -1.0331   -7.2162    2.0653 C   0  0  0  0  0  0  0  0  0  0  0  0
   -0.0105   -6.3168    2.3081 C   0  0  0  0  0  0  0  0  0  0  0  0
    0.1150   -4.9910    1.8495 C   0  0  0  0  0  0  0  0  0  0  0  0
    0.9121   -4.1017    2.4010 O   0  0  0  0  0  0  0  0  0  0  0  0
   -0.4792   -4.5325    0.7806 O   0  0  0  0  0  0  0  0  0  0  0  0
    0.1711  -10.2801    3.6571 C   0  0  0  0  0  0  0  0  0  0  0  0
   -1.0473  -10.9697    3.7989 C   0  0  0  0  0  0  0  0  0  0  0  0
    1.4219  -10.9473    4.0819 C   0  0  0  0  0  0  0  0  0  0  0  0
    1.4988  -12.2823    4.1517 C   0  0  0  0  0  0  0  0  0  0  0  0
    0.3626  -13.0141    3.9443 C   0  0  0  0  0  0  0  0  0  0  0  0
   -0.8979  -12.3581    3.8316 C   0  0  0  0  0  0  0  0  0  0  0  0
    0.5280  -14.3519    3.8626 N   0  0  0  0  0  0  0  0  0  0  0  0
   -0.4544  -15.0498    3.3177 N   0  0  0  0  0  0  0  0  0  0  0  0
   -0.2792  -16.4065    3.5534 O   0  0  0  0  0  0  0  0  0  0  0  0
  6  7  1  0
  7  8  2  0
  7  9  1  0
  3 10  1  0
 16 17  1  0
 17 18  2  0
 14 16  1  0
 10 11  2  0
 11 15  1  0
 14 15  2  0
 13 14  1  0
 12 13  2  0
 10 12  1  0
  1  2  2  0
  2  6  1  0
  5  6  2  0
  4  5  1  0
  3  4  2  0
  1  3  1  0
M  END

$$$$
No_3337-/export/home/yangzhenyu/potential_scad_32_flow//YTHDC2/2024-12-06-03-22-00/
     RDKit          3D

 19 21  0  0  0  0  0  0  0  0999 V2000
    1.1787   -8.0297    3.5154 N   0  0  0  0  0  0  0  0  0  0  0  0
    0.8669   -7.0905    2.8589 C   0  0  0  0  0  0  0  0  0  0  0  0
    0.8842   -5.8387    3.2677 Cl  0  0  0  0  0  0  0  0  0  0  0  0
    0.6190   -7.4847    1.4351 C   0  0  0  0  0  0  0  0  0  0  0  0
    1.2964   -9.4135    3.0599 C   0  0  0  0  0  0  0  0  0  0  0  0
    1.7812  -10.4645    4.0949 C   0  0  0  0  0  0  0  0  0  0  0  0
    1.1507   -9.8940    1.8022 C   0  0  0  0  0  0  0  0  0  0  0  0
    1.3206  -11.1630    1.4150 C   0  0  0  0  0  0  0  0  0  0  0  0
    0.3130   -6.5995    0.5205 C   0  0  0  0  0  0  0  0  0  0  0  0
    0.5721  -11.8241    1.4849 C   0  0  0  0  0  0  0  0  0  0  0  0
   -0.3618  -12.2291    1.8360 C   0  0  0  0  0  0  0  0  0  0  0  0
   -0.4207   -6.9936   -0.4371 C   0  0  0  0  0  0  0  0  0  0  0  0
   -0.7063   -8.3008   -0.7141 C   0  0  0  0  0  0  0  0  0  0  0  0
   -0.2969   -9.2454    0.3129 C   0  0  0  0  0  0  0  0  0  0  0  0
    0.3026   -8.7924    1.2255 C   0  0  0  0  0  0  0  0  0  0  0  0
   -1.2602  -13.2242    1.9424 C   0  0  0  0  0  0  0  0  0  0  0  0
   -0.3666  -14.4436    1.8173 C   0  0  0  0  0  0  0  0  0  0  0  0
    0.9706  -14.3842    1.4408 C   0  0  0  0  0  0  0  0  0  0  0  0
    1.5370  -13.1062    1.2519 C   0  0  0  0  0  0  0  0  0  0  0  0
  2  3  1  0
  5  6  1  0
  7  8  1  0
  8 10  1  0
 10 11  2  0
 11 16  1  0
 16 17  2  0
 17 18  1  0
 18 19  2  0
 10 19  1  0
  4  9  2  0
  9 12  1  0
 12 13  2  0
 13 14  1  0
 14 15  2  0
  1  2  2  0
  2  4  1  0
  4 15  1  0
  7 15  1  0
  5  7  2  0
  1  5  1  0
M  END

$$$$
No_3338-/export/home/yangzhenyu/potential_scad_32_flow//YTHDC2/2024-12-06-03-22-00/
     RDKit          3D

 18 19  0  0  0  0  0  0  0  0999 V2000
    1.1787   -8.0297    3.5154 C   0  0  0  0  0  0  0  0  0  0  0  0
    1.0491   -6.8434    2.9820 C   0  0  0  0  0  0  0  0  0  0  0  0
    0.9905   -9.0774    2.6527 C   0  0  0  0  0  0  0  0  0  0  0  0
    0.7897   -8.9519    1.3691 C   0  0  0  0  0  0  0  0  0  0  0  0
    0.7018   -7.7198    0.7892 C   0  0  0  0  0  0  0  0  0  0  0  0
    0.8918   -6.5957    1.6117 C   0  0  0  0  0  0  0  0  0  0  0  0
    1.0600  -10.5680    3.3321 C   0  0  0  0  0  0  0  0  0  0  0  0
    2.1422  -11.0089    3.6867 C   0  0  0  0  0  0  0  0  0  0  0  0
    0.8608   -5.2505    1.2071 C   0  0  0  0  0  0  0  0  0  0  0  0
   -0.0563  -11.2194    3.4640 C   0  0  0  0  0  0  0  0  0  0  0  0
   -0.1826  -12.4505    3.1737 N   0  0  0  0  0  0  0  0  0  0  0  0
    2.1857  -12.4955    3.7495 N   0  0  0  0  0  0  0  0  0  0  0  0
    1.0997  -13.1402    3.5445 C   0  0  0  0  0  0  0  0  0  0  0  0
    1.2004  -14.4567    3.4855 O   0  0  0  0  0  0  0  0  0  0  0  0
   -0.2094   -4.7742    0.7101 C   0  0  0  0  0  0  0  0  0  0  0  0
   -0.3308   -3.4102    0.3182 C   0  0  0  0  0  0  0  0  0  0  0  0
   -0.9452   -2.9988   -0.7186 C   0  0  0  0  0  0  0  0  0  0  0  0
   -0.7538   -1.5635   -1.1205 C   0  0  0  0  0  0  0  0  0  0  0  0
  3  7  1  0
  7  8  1  0
  6  9  1  0
  7 10  1  0
  8 12  1  0
 11 13  1  0
 12 13  1  0
 13 14  2  0
  9 15  2  3
 15 16  1  0
 16 17  2  3
 17 18  1  0
 10 11  1  0
  1  2  2  0
  2  6  1  0
  5  6  2  0
  4  5  1  0
  3  4  2  0
  1  3  1  0
M  END

$$$$
No_3339-/export/home/yangzhenyu/potential_scad_32_flow//YTHDC2/2024-12-06-03-22-00/
     RDKit          3D

 17 17  0  0  0  0  0  0  0  0999 V2000
    1.1787   -8.0297    3.5154 N   0  0  0  0  0  0  0  0  0  0  0  0
    1.0818   -9.0751    3.2053 C   0  0  0  0  0  0  0  0  0  0  0  0
    0.7576   -9.3725    1.9159 C   0  0  0  0  0  0  0  0  0  0  0  0
    0.8823   -8.4917    1.0547 C   0  0  0  0  0  0  0  0  0  0  0  0
    1.4631   -7.3107    1.2451 C   0  0  0  0  0  0  0  0  0  0  0  0
    1.6470   -6.9326    2.5669 C   0  0  0  0  0  0  0  0  0  0  0  0
    0.8237  -10.1305    4.2407 C   0  0  0  0  0  0  0  0  0  0  0  0
   -0.4178  -10.6899    4.4426 O   0  0  0  0  0  0  0  0  0  0  0  0
    1.8552  -10.7022    4.8355 N   0  0  0  0  0  0  0  0  0  0  0  0
    0.8094   -8.9448   -0.5559 C   0  0  0  0  0  0  0  0  0  0  0  0
   -0.5130   -9.0426   -0.7571 O   0  0  0  0  0  0  0  0  0  0  0  0
    1.6401   -8.9421   -1.2835 O   0  0  0  0  0  0  0  0  0  0  0  0
    1.8112   -5.6103    3.0151 C   0  0  0  0  0  0  0  0  0  0  0  0
    1.0388   -4.7385    3.2148 O   0  0  0  0  0  0  0  0  0  0  0  0
    0.3063   -4.1292    2.2711 C   0  0  0  0  0  0  0  0  0  0  0  0
   -0.1128   -2.9006    2.4923 C   0  0  0  0  0  0  0  0  0  0  0  0
   -0.0604   -2.3062    3.7444 C   0  0  0  0  0  0  0  0  0  0  0  0
  2  7  1  0
  7  8  2  0
  7  9  1  0
  4 10  1  0
 10 11  2  0
 10 12  1  0
  6 13  1  0
 13 14  1  0
 14 15  1  0
 15 16  1  0
 16 17  1  0
  1  2  2  0
  2  3  1  0
  3  4  2  0
  4  5  1  0
  5  6  2  0
  1  6  1  0
M  END

$$$$
No_3340-/export/home/yangzhenyu/potential_scad_32_flow//YTHDC2/2024-12-06-03-22-00/
     RDKit          3D

 19 20  0  0  1  0  0  0  0  0999 V2000
    1.1787   -8.0297    3.5154 O   0  0  0  0  0  0  0  0  0  0  0  0
    0.9969   -8.9689    3.0048 C   0  0  1  0  0  0  0  0  0  0  0  0
    0.9976   -8.9567    1.6341 C   0  0  2  0  0  0  0  0  0  0  0  0
    1.6062   -9.9071    0.9292 C   0  0  1  0  0  0  0  0  0  0  0  0
    2.1191  -10.9757    1.6503 C   0  0  0  0  0  0  0  0  0  0  0  0
    2.1177  -10.9891    3.0403 C   0  0  0  0  0  0  0  0  0  0  0  0
    1.5441   -9.8905    3.6897 C   0  0  0  0  0  0  0  0  0  0  0  0
    0.5010   -7.8164    1.0436 O   0  0  0  0  0  0  0  0  0  0  0  0
    1.6035  -10.1896    5.0261 O   0  0  0  0  0  0  0  0  0  0  0  0
    1.5139   -9.8898   -0.5229 O   0  0  0  0  0  0  0  0  0  0  0  0
   -0.8465   -7.8405    0.8187 C   0  0  0  0  0  0  0  0  0  0  0  0
   -1.3731   -6.5521    0.8061 C   0  0  1  0  0  0  0  0  0  0  0  0
   -0.7797   -5.6850    1.3840 C   0  0  0  0  0  0  0  0  0  0  0  0
   -1.2964   -5.1486    2.5287 C   0  0  0  0  0  0  0  0  0  0  0  0
   -1.9968   -4.0270    2.3568 C   0  0  0  0  0  0  0  0  0  0  0  0
   -1.7051   -3.3503    1.2664 C   0  0  0  0  0  0  0  0  0  0  0  0
   -0.9718   -4.2833    0.3986 C   0  0  0  0  0  0  0  0  0  0  0  0
   -1.4279   -9.0150    0.6937 O   0  0  0  0  0  0  0  0  0  0  0  0
   -2.4729   -6.5331   -0.0460 C   0  0  0  0  0  0  0  0  0  0  0  0
  2  1  1  1
  2  3  1  0
  4  5  1  0
  2  7  1  0
  6  7  1  0
  3  8  1  1
  7  9  2  0
  4 10  1  6
  8 11  1  0
 11 12  1  0
 12 13  1  0
 13 14  1  0
 14 15  1  0
 15 16  1  0
 13 17  1  0
 16 17  1  0
 11 18  2  0
 12 19  1  6
  3  4  1  0
  5  6  1  0
M  END

$$$$
No_3341-/export/home/yangzhenyu/potential_scad_32_flow//YTHDC2/2024-12-06-03-22-00/
     RDKit          3D

 18 18  0  0  1  0  0  0  0  0999 V2000
    1.1787   -8.0297    3.5154 C   0  0  0  0  0  0  0  0  0  0  0  0
    1.1048   -9.2215    3.2892 C   0  0  2  0  0  0  0  0  0  0  0  0
    1.3627  -10.1721    4.3044 C   0  0  0  0  0  0  0  0  0  0  0  0
    2.3720  -10.8948    4.2468 C   0  0  0  0  0  0  0  0  0  0  0  0
    1.0579   -7.0441    2.4219 C   0  0  0  0  0  0  0  0  0  0  0  0
    0.8578   -7.4970    1.1686 C   0  0  0  0  0  0  0  0  0  0  0  0
    0.7382   -8.7683    0.8754 C   0  0  0  0  0  0  0  0  0  0  0  0
    0.8882   -9.7347    1.9238 C   0  0  0  0  0  0  0  0  0  0  0  0
    0.9437  -11.0299    1.7005 O   0  0  0  0  0  0  0  0  0  0  0  0
    0.5136   -9.3272   -0.4196 C   0  0  0  0  0  0  0  0  0  0  0  0
    1.1007   -9.0255   -1.4246 S   0  0  0  0  0  0  0  0  0  0  0  0
    2.6132   -8.7304   -0.9149 C   0  0  0  0  0  0  0  0  0  0  0  0
    3.5212  -10.5302    5.0113 C   0  0  0  0  0  0  0  0  0  0  0  0
    3.1408  -10.1717    6.3390 O   0  0  0  0  0  0  0  0  0  0  0  0
    4.7005  -10.9109    4.9806 O   0  0  0  0  0  0  0  0  0  0  0  0
   -0.9260   -9.6800   -0.4320 O   0  0  0  0  0  0  0  0  0  0  0  0
    1.1646   -5.6309    2.7592 C   0  0  0  0  0  0  0  0  0  0  0  0
    0.1595   -4.8500    2.6678 C   0  0  0  0  0  0  0  0  0  0  0  0
  1  2  1  0
  2  3  1  6
  3  4  1  0
  5  6  1  0
  2  8  1  0
  7  8  1  0
  8  9  2  0
  7 10  1  0
 10 11  1  0
 11 12  1  0
  4 13  1  0
 13 14  1  0
 13 15  2  0
 10 16  2  0
  5 17  1  0
 17 18  1  0
  1  5  1  0
  6  7  1  0
M  END

$$$$
No_3342-/export/home/yangzhenyu/potential_scad_32_flow//YTHDC2/2024-12-06-03-22-00/
     RDKit          3D

 19 20  0  0  1  0  0  0  0  0999 V2000
    1.1787   -8.0297    3.5154 C   0  0  0  0  0  0  0  0  0  0  0  0
    1.1048   -9.2215    3.2892 C   0  0  0  0  0  0  0  0  0  0  0  0
    1.2339   -9.7611    2.0189 C   0  0  0  0  0  0  0  0  0  0  0  0
    1.3583   -9.0036    0.9764 C   0  0  0  0  0  0  0  0  0  0  0  0
    1.5996   -7.6362    1.1311 C   0  0  0  0  0  0  0  0  0  0  0  0
    1.4830   -7.0928    2.3626 C   0  0  0  0  0  0  0  0  0  0  0  0
    1.4898   -5.7274    2.6199 C   0  0  0  0  0  0  0  0  0  0  0  0
    1.1681  -11.2222    1.8390 C   0  0  2  0  0  0  0  0  0  0  0  0
    1.9047  -12.1147    2.3357 C   0  0  0  0  0  0  0  0  0  0  0  0
    1.6844  -13.4555    2.0602 C   0  0  2  0  0  0  0  0  0  0  0  0
    0.6977  -13.8514    1.3046 C   0  0  0  0  0  0  0  0  0  0  0  0
   -0.1168  -12.9151    0.6553 C   0  0  0  0  0  0  0  0  0  0  0  0
    0.1481  -11.5441    0.9254 C   0  0  0  0  0  0  0  0  0  0  0  0
    1.2485   -4.8600    1.6197 O   0  0  0  0  0  0  0  0  0  0  0  0
    1.7677   -5.1383    3.7959 O   0  0  0  0  0  0  0  0  0  0  0  0
    2.5136  -14.4244    2.7624 Cl  0  0  0  0  0  0  0  0  0  0  0  0
   -0.7770  -10.6989    0.4336 O   0  0  0  0  0  0  0  0  0  0  0  0
    1.6545   -9.4519   -0.5445 O   0  0  0  0  0  0  0  0  0  0  0  0
    0.8824  -10.1598    4.3742 O   0  0  0  0  0  0  0  0  0  0  0  0
  6  7  1  0
  8  3  1  6
  8  9  1  0
 10 11  1  0
  8 13  1  0
 12 13  1  0
  7 14  2  0
  7 15  1  0
 10 16  1  1
 13 17  2  0
  4 18  1  0
  2 19  1  0
  9 10  1  0
 11 12  1  0
  1  2  2  0
  2  3  1  0
  3  4  2  0
  4  5  1  0
  5  6  2  0
  1  6  1  0
M  END

$$$$
No_3343-/export/home/yangzhenyu/potential_scad_32_flow//YTHDC2/2024-12-06-03-22-00/
     RDKit          3D

 20 21  0  0  1  0  0  0  0  0999 V2000
    1.1787   -8.0297    3.5154 C   0  0  0  0  0  0  0  0  0  0  0  0
    1.1048   -9.2215    3.2892 C   0  0  0  0  0  0  0  0  0  0  0  0
    1.2339   -9.7611    2.0189 C   0  0  0  0  0  0  0  0  0  0  0  0
    1.3583   -9.0036    0.9764 C   0  0  0  0  0  0  0  0  0  0  0  0
    1.5996   -7.6362    1.1311 C   0  0  0  0  0  0  0  0  0  0  0  0
    1.4830   -7.0928    2.3626 C   0  0  0  0  0  0  0  0  0  0  0  0
    1.1008  -11.2372    1.8542 C   0  0  1  0  0  0  0  0  0  0  0  0
    0.4812  -11.6084    0.6459 C   0  0  0  0  0  0  0  0  0  0  0  0
   -0.6166  -12.2864    0.7859 C   0  0  0  0  0  0  0  0  0  0  0  0
   -1.4513  -12.6828   -0.2947 C   0  0  0  0  0  0  0  0  0  0  0  0
   -1.8295  -11.8840   -1.2922 C   0  0  0  0  0  0  0  0  0  0  0  0
   -2.4645  -12.4234   -2.3763 C   0  0  0  0  0  0  0  0  0  0  0  0
   -2.8382  -13.6875   -2.3389 C   0  0  0  0  0  0  0  0  0  0  0  0
   -2.4894  -14.5540   -1.3965 C   0  0  0  0  0  0  0  0  0  0  0  0
   -1.7170  -14.1073   -0.3051 C   0  0  0  0  0  0  0  0  0  0  0  0
    1.8818  -11.9722    2.6420 C   0  0  0  0  0  0  0  0  0  0  0  0
    1.2780  -13.0227    3.2695 C   0  0  0  0  0  0  0  0  0  0  0  0
    1.5231   -5.6283    2.6464 Cl  0  0  0  0  0  0  0  0  0  0  0  0
    1.0859  -14.2835    2.5612 C   0  0  0  0  0  0  0  0  0  0  0  0
    2.1075  -14.7034    1.7229 S   0  0  0  0  0  0  0  0  0  0  0  0
  3  7  1  0
  7  8  1  0
  8  9  2  3
  9 10  1  0
  7 16  1  6
 16 17  1  0
  6 18  1  0
 17 19  1  0
 19 20  1  0
  1  2  2  0
  2  3  1  0
  3  4  2  0
  4  5  1  0
  5  6  2  0
  1  6  1  0
 10 11  2  0
 11 12  1  0
 12 13  2  0
 13 14  1  0
 14 15  2  0
 10 15  1  0
M  END

$$$$
No_3344-/export/home/yangzhenyu/potential_scad_32_flow//YTHDC2/2024-12-06-03-22-00/
     RDKit          3D

 21 23  0  0  0  0  0  0  0  0999 V2000
    1.1787   -8.0297    3.5154 C   0  0  0  0  0  0  0  0  0  0  0  0
    1.1048   -9.2215    3.2892 C   0  0  0  0  0  0  0  0  0  0  0  0
    1.4683  -10.2314    4.1915 C   0  0  0  0  0  0  0  0  0  0  0  0
    0.8445   -6.9865    2.5175 C   0  0  0  0  0  0  0  0  0  0  0  0
    0.3587   -7.3973    1.3953 C   0  0  0  0  0  0  0  0  0  0  0  0
    0.1901   -8.6971    1.0711 C   0  0  0  0  0  0  0  0  0  0  0  0
    0.5759   -9.6647    1.9442 C   0  0  0  0  0  0  0  0  0  0  0  0
    0.6465  -11.4192    4.2286 C   0  0  0  0  0  0  0  0  0  0  0  0
    0.8177  -12.2543    3.2387 N   0  0  0  0  0  0  0  0  0  0  0  0
    2.0930  -12.7170    2.9728 C   0  0  0  0  0  0  0  0  0  0  0  0
    2.1570  -13.6420    1.7908 C   0  0  0  0  0  0  0  0  0  0  0  0
    1.4600  -12.9183    0.7100 C   0  0  0  0  0  0  0  0  0  0  0  0
    0.1189  -12.6609    0.9868 C   0  0  0  0  0  0  0  0  0  0  0  0
   -0.0176  -11.8358    2.2011 C   0  0  0  0  0  0  0  0  0  0  0  0
    0.0299   -6.5021    0.4010 Cl  0  0  0  0  0  0  0  0  0  0  0  0
   -1.2834  -11.4605    2.3923 C   0  0  0  0  0  0  0  0  0  0  0  0
   -2.4235  -11.7277    1.7662 C   0  0  0  0  0  0  0  0  0  0  0  0
   -2.0919  -12.2902    0.4382 C   0  0  0  0  0  0  0  0  0  0  0  0
   -0.7983  -12.7204    0.1022 C   0  0  0  0  0  0  0  0  0  0  0  0
    1.1235   -5.6162    2.8785 F   0  0  0  0  0  0  0  0  0  0  0  0
   -3.9344  -11.4427    2.2238 Cl  0  0  0  0  0  0  0  0  0  0  0  0
  2  3  1  0
  3  8  1  0
  8  9  1  0
  9 10  1  0
 10 11  1  0
 11 12  1  0
 12 13  1  0
  9 14  1  0
  5 15  1  0
  4 20  1  0
 17 21  1  0
 13 14  2  0
 14 16  1  0
 16 17  2  0
 17 18  1  0
 18 19  2  0
 13 19  1  0
  1  2  2  0
  2  7  1  0
  6  7  2  0
  5  6  1  0
  4  5  2  0
  1  4  1  0
M  END

$$$$
No_3345-/export/home/yangzhenyu/potential_scad_32_flow//YTHDC2/2024-12-06-03-22-00/
     RDKit          3D

 17 18  0  0  1  0  0  0  0  0999 V2000
    1.1787   -8.0297    3.5154 C   0  0  0  0  0  0  0  0  0  0  0  0
    1.0491   -6.8434    2.9820 C   0  0  0  0  0  0  0  0  0  0  0  0
    0.9905   -9.0774    2.6527 C   0  0  0  0  0  0  0  0  0  0  0  0
    0.7897   -8.9519    1.3691 C   0  0  0  0  0  0  0  0  0  0  0  0
    0.7018   -7.7198    0.7892 C   0  0  0  0  0  0  0  0  0  0  0  0
    0.8918   -6.5957    1.6117 C   0  0  0  0  0  0  0  0  0  0  0  0
    1.0600  -10.5680    3.3321 C   0  0  2  0  0  0  0  0  0  0  0  0
   -0.1041  -11.1772    3.5150 C   0  0  0  0  0  0  0  0  0  0  0  0
   -0.6926  -11.6099    2.5612 C   0  0  0  0  0  0  0  0  0  0  0  0
   -2.0308  -11.4401    2.3478 C   0  0  0  0  0  0  0  0  0  0  0  0
   -2.6875  -11.9242    1.1819 C   0  0  0  0  0  0  0  0  0  0  0  0
   -1.8633  -12.7968    0.4365 C   0  0  0  0  0  0  0  0  0  0  0  0
   -0.5649  -12.9824    0.5815 C   0  0  0  0  0  0  0  0  0  0  0  0
    0.1092  -12.4824    1.6928 C   0  0  0  0  0  0  0  0  0  0  0  0
    0.8870   -5.2525    1.1958 C   0  0  0  0  0  0  0  0  0  0  0  0
    2.3748  -10.8398    3.7507 C   0  0  0  0  0  0  0  0  0  0  0  0
   -0.2171   -4.7868    0.7151 O   0  0  0  0  0  0  0  0  0  0  0  0
  3  7  1  0
  7  8  1  0
  8  9  1  0
  6 15  1  0
  7 16  1  1
 15 17  2  0
  1  2  2  0
  2  6  1  0
  5  6  2  0
  4  5  1  0
  3  4  2  0
  1  3  1  0
  9 10  2  0
 10 11  1  0
 11 12  2  0
 12 13  1  0
 13 14  2  0
  9 14  1  0
M  END

$$$$
No_3346-/export/home/yangzhenyu/potential_scad_32_flow//YTHDC2/2024-12-06-03-22-00/
     RDKit          3D

 18 19  0  0  1  0  0  0  0  0999 V2000
    1.1787   -8.0297    3.5154 O   0  0  0  0  0  0  0  0  0  0  0  0
    0.9969   -8.9689    3.0048 C   0  0  0  0  0  0  0  0  0  0  0  0
    0.8148   -8.9936    1.6651 C   0  0  1  0  0  0  0  0  0  0  0  0
    1.5371  -10.1980    3.5726 C   0  0  0  0  0  0  0  0  0  0  0  0
    1.1946  -11.4044    3.2151 C   0  0  0  0  0  0  0  0  0  0  0  0
    0.6156  -11.5546    1.9629 C   0  0  1  0  0  0  0  0  0  0  0  0
    0.3919  -10.3676    1.1443 C   0  0  0  0  0  0  0  0  0  0  0  0
    0.6197   -7.9277    0.9359 C   0  0  0  0  0  0  0  0  0  0  0  0
    0.7803   -6.8202    1.3055 O   0  0  0  0  0  0  0  0  0  0  0  0
    0.2776   -8.0398   -0.3813 N   0  0  0  0  0  0  0  0  0  0  0  0
    1.3152  -12.7841    3.9930 C   0  0  0  0  0  0  0  0  0  0  0  0
    0.4246  -12.7104    1.2826 C   0  0  2  0  0  0  0  0  0  0  0  0
   -0.6380  -13.1092    0.7535 C   0  0  0  0  0  0  0  0  0  0  0  0
   -0.8530  -14.3016    0.0440 C   0  0  0  0  0  0  0  0  0  0  0  0
    0.0667  -15.3718    0.2515 C   0  0  0  0  0  0  0  0  0  0  0  0
    1.2576  -15.0621    0.9468 C   0  0  0  0  0  0  0  0  0  0  0  0
    1.5240  -13.7989    1.4922 C   0  0  0  0  0  0  0  0  0  0  0  0
    2.1334  -16.0515    0.9964 O   0  0  0  0  0  0  0  0  0  0  0  0
  1  2  2  0
  2  3  1  0
  2  4  1  0
  5  6  1  0
  3  7  1  0
  6  7  1  6
  3  8  1  1
  8  9  2  0
  8 10  1  0
  5 11  1  0
  6 12  1  0
 13 14  1  0
 15 16  1  0
 12 17  1  1
 16 17  1  0
 16 18  2  0
  4  5  1  0
 14 15  1  0
 12 13  1  0
M  END

$$$$
No_3347-/export/home/yangzhenyu/potential_scad_32_flow//YTHDC2/2024-12-06-03-22-00/
     RDKit          3D

 11 11  0  0  0  0  0  0  0  0999 V2000
    1.1787   -8.0297    3.5154 C   0  0  0  0  0  0  0  0  0  0  0  0
    1.0491   -6.8434    2.9820 C   0  0  0  0  0  0  0  0  0  0  0  0
    0.9905   -9.0774    2.6527 C   0  0  0  0  0  0  0  0  0  0  0  0
    0.7897   -8.9519    1.3691 C   0  0  0  0  0  0  0  0  0  0  0  0
    0.7018   -7.7198    0.7892 C   0  0  0  0  0  0  0  0  0  0  0  0
    0.8918   -6.5957    1.6117 C   0  0  0  0  0  0  0  0  0  0  0  0
    1.0774  -10.6059    3.3145 S   0  0  0  0  0  0  0  0  0  0  0  0
    2.2445  -10.8925    3.8925 N   0  0  0  0  0  0  0  0  0  0  0  0
    0.8311  -11.5600    2.2103 O   0  0  0  0  0  0  0  0  0  0  0  0
   -0.0968  -10.6509    4.2460 O   0  0  0  0  0  0  0  0  0  0  0  0
    0.8277   -5.2758    1.0987 Cl  0  0  0  0  0  0  0  0  0  0  0  0
  3  7  1  0
  7  8  1  0
  7  9  2  0
  7 10  2  0
  6 11  1  0
  1  2  2  0
  2  6  1  0
  5  6  2  0
  4  5  1  0
  3  4  2  0
  1  3  1  0
M  END

$$$$
No_3348-/export/home/yangzhenyu/potential_scad_32_flow//YTHDC2/2024-12-06-03-22-00/
     RDKit          3D

 18 18  0  0  0  0  0  0  0  0999 V2000
    1.1787   -8.0297    3.5154 N   0  0  0  0  0  0  0  0  0  0  0  0
    1.0818   -9.0751    3.2053 C   0  0  0  0  0  0  0  0  0  0  0  0
    0.7576   -9.3725    1.9159 C   0  0  0  0  0  0  0  0  0  0  0  0
    0.8823   -8.4917    1.0547 C   0  0  0  0  0  0  0  0  0  0  0  0
    1.4631   -7.3107    1.2451 N   0  0  0  0  0  0  0  0  0  0  0  0
    1.6157   -6.9601    2.5253 C   0  0  0  0  0  0  0  0  0  0  0  0
    0.8630  -10.1554    4.2156 C   0  0  0  0  0  0  0  0  0  0  0  0
   -0.4023  -10.7235    4.4159 O   0  0  0  0  0  0  0  0  0  0  0  0
    1.8930  -10.7237    4.7977 O   0  0  0  0  0  0  0  0  0  0  0  0
    0.8657   -8.8552   -0.3986 C   0  0  0  0  0  0  0  0  0  0  0  0
   -0.4975   -9.0291   -0.7766 O   0  0  0  0  0  0  0  0  0  0  0  0
    1.6863   -8.8651   -1.2437 O   0  0  0  0  0  0  0  0  0  0  0  0
    1.7523   -5.6227    2.9522 C   0  0  0  0  0  0  0  0  0  0  0  0
    1.4837   -4.6725    1.8878 C   0  0  0  0  0  0  0  0  0  0  0  0
    1.7842   -3.3206    2.1728 C   0  0  0  0  0  0  0  0  0  0  0  0
    1.8781   -2.5198    1.1304 C   0  0  0  0  0  0  0  0  0  0  0  0
    0.8329   -2.6657    0.1789 C   0  0  0  0  0  0  0  0  0  0  0  0
    0.1208   -3.7780    0.0412 C   0  0  0  0  0  0  0  0  0  0  0  0
  2  7  1  0
  7  8  1  0
  7  9  2  0
  4 10  1  0
 10 11  2  0
 10 12  1  0
  6 13  1  0
 13 14  1  0
 14 15  1  0
 15 16  2  3
 16 17  1  0
 17 18  2  0
  1  2  2  0
  2  3  1  0
  3  4  2  0
  4  5  1  0
  5  6  2  0
  1  6  1  0
M  END

$$$$
No_3349-/export/home/yangzhenyu/potential_scad_32_flow//YTHDC2/2024-12-06-03-22-00/
     RDKit          3D

 18 19  0  0  0  0  0  0  0  0999 V2000
    1.1787   -8.0297    3.5154 C   0  0  0  0  0  0  0  0  0  0  0  0
    1.0491   -6.8434    2.9820 C   0  0  0  0  0  0  0  0  0  0  0  0
    0.9905   -9.0774    2.6527 C   0  0  0  0  0  0  0  0  0  0  0  0
    1.1655  -10.4663    3.1286 C   0  0  0  0  0  0  0  0  0  0  0  0
    1.2197  -11.4898    2.5831 C   0  0  0  0  0  0  0  0  0  0  0  0
    1.0589  -11.4458    1.1293 C   0  0  0  0  0  0  0  0  0  0  0  0
    0.9638  -10.3069    0.4651 C   0  0  0  0  0  0  0  0  0  0  0  0
    0.9191   -9.0789    1.1942 C   0  0  0  0  0  0  0  0  0  0  0  0
    0.9198   -7.8339    0.6158 C   0  0  0  0  0  0  0  0  0  0  0  0
    1.0184   -6.6904    1.4953 C   0  0  0  0  0  0  0  0  0  0  0  0
    1.3445  -12.8197    3.0746 P   0  0  0  0  0  0  0  0  0  0  0  0
    1.4953  -13.9354    1.9465 O   0  0  0  0  0  0  0  0  0  0  0  0
    2.3866  -13.0246    4.1135 O   0  0  0  0  0  0  0  0  0  0  0  0
   -0.0163  -13.2377    3.7703 O   0  0  0  0  0  0  0  0  0  0  0  0
    1.3410   -5.5972    3.6515 C   0  0  0  0  0  0  0  0  0  0  0  0
    0.8727   -4.4133    3.2970 O   0  0  0  0  0  0  0  0  0  0  0  0
    2.0406   -5.6352    4.6637 O   0  0  0  0  0  0  0  0  0  0  0  0
    0.8375   -7.6819   -0.6168 O   0  0  0  0  0  0  0  0  0  0  0  0
  5 11  1  0
 11 12  2  0
 11 13  1  0
 11 14  1  0
  2 15  1  0
 15 16  2  0
 15 17  1  0
  9 18  1  0
  1  2  2  0
  2 10  1  0
  9 10  2  0
  8  9  1  0
  1  3  1  0
  3  4  2  0
  4  5  1  0
  5  6  2  0
  6  7  1  0
  7  8  2  0
  3  8  1  0
M  END

$$$$
No_3350-/export/home/yangzhenyu/potential_scad_32_flow//YTHDC2/2024-12-06-03-22-00/
     RDKit          3D

 19 21  0  0  1  0  0  0  0  0999 V2000
    1.1787   -8.0297    3.5154 C   0  0  0  0  0  0  0  0  0  0  0  0
    1.1048   -9.2215    3.2892 C   0  0  0  0  0  0  0  0  0  0  0  0
    1.3627  -10.1721    4.3044 C   0  0  0  0  0  0  0  0  0  0  0  0
    1.7354  -11.4730    3.9023 C   0  0  0  0  0  0  0  0  0  0  0  0
    1.8080  -11.8127    2.7216 N   0  0  0  0  0  0  0  0  0  0  0  0
    1.6163  -11.0258    1.7554 C   0  0  0  0  0  0  0  0  0  0  0  0
    1.3973   -9.7755    1.9269 C   0  0  0  0  0  0  0  0  0  0  0  0
    1.3839   -8.9010    0.8794 C   0  0  0  0  0  0  0  0  0  0  0  0
    1.9218   -9.2238   -0.2442 O   0  0  0  0  0  0  0  0  0  0  0  0
    0.9119   -7.6365    0.9769 N   0  0  0  0  0  0  0  0  0  0  0  0
    0.8547   -7.0925    2.2968 C   0  0  2  0  0  0  0  0  0  0  0  0
    0.6174   -5.7575    2.4069 C   0  0  0  0  0  0  0  0  0  0  0  0
   -0.5443   -5.2758    1.9368 C   0  0  0  0  0  0  0  0  0  0  0  0
   -0.6608   -3.9311    1.5550 C   0  0  0  0  0  0  0  0  0  0  0  0
    0.4675   -3.1167    1.7168 C   0  0  0  0  0  0  0  0  0  0  0  0
    1.6792   -3.5723    2.2737 C   0  0  0  0  0  0  0  0  0  0  0  0
    1.7405   -4.9287    2.5700 C   0  0  0  0  0  0  0  0  0  0  0  0
    0.3072   -1.6796    1.5436 O   0  0  0  0  0  0  0  0  0  0  0  0
   -1.8284   -3.3717    1.0591 O   0  0  0  0  0  0  0  0  0  0  0  0
  1  2  1  0
  7  8  1  0
  8  9  2  0
  8 10  1  0
  1 11  1  0
 10 11  1  0
 11 12  1  6
 15 18  1  0
 14 19  1  0
 12 13  2  0
 13 14  1  0
 14 15  2  0
 15 16  1  0
 16 17  2  0
 12 17  1  0
  2  3  2  0
  3  4  1  0
  4  5  2  0
  5  6  1  0
  6  7  2  0
  2  7  1  0
M  END

$$$$
No_3351-/export/home/yangzhenyu/potential_scad_32_flow//YTHDC2/2024-12-06-03-22-00/
     RDKit          3D

 18 19  0  0  0  0  0  0  0  0999 V2000
    1.1787   -8.0297    3.5154 C   0  0  0  0  0  0  0  0  0  0  0  0
    1.0491   -6.8434    2.9820 C   0  0  0  0  0  0  0  0  0  0  0  0
    0.0950   -8.8404    3.2292 C   0  0  0  0  0  0  0  0  0  0  0  0
   -0.9173   -8.4596    2.5152 C   0  0  0  0  0  0  0  0  0  0  0  0
   -1.0331   -7.2162    2.0653 C   0  0  0  0  0  0  0  0  0  0  0  0
   -0.0105   -6.3168    2.3081 C   0  0  0  0  0  0  0  0  0  0  0  0
    0.1150   -4.9910    1.8495 C   0  0  0  0  0  0  0  0  0  0  0  0
    0.9121   -4.1017    2.4010 C   0  0  0  0  0  0  0  0  0  0  0  0
    0.1290  -10.2853    3.6695 Cl  0  0  0  0  0  0  0  0  0  0  0  0
    1.2331   -2.7781    1.8745 C   0  0  0  0  0  0  0  0  0  0  0  0
    0.4662   -2.4409    0.8223 C   0  0  0  0  0  0  0  0  0  0  0  0
   -0.4378   -3.2217    0.1904 C   0  0  0  0  0  0  0  0  0  0  0  0
   -0.6562   -4.5389    0.6887 C   0  0  0  0  0  0  0  0  0  0  0  0
   -1.2037   -2.8353   -0.9372 C   0  0  0  0  0  0  0  0  0  0  0  0
   -1.2225   -1.6408   -1.3357 C   0  0  0  0  0  0  0  0  0  0  0  0
   -1.9244   -1.3118   -2.5306 C   0  0  0  0  0  0  0  0  0  0  0  0
   -2.4443   -2.1442   -3.3554 C   0  0  0  0  0  0  0  0  0  0  0  0
   -2.3888   -3.4786   -3.0260 C   0  0  0  0  0  0  0  0  0  0  0  0
  6  7  1  0
  3  9  1  0
 12 14  1  0
 14 15  2  3
 15 16  1  0
 16 17  2  3
 17 18  1  0
  1  2  2  0
  2  6  1  0
  5  6  2  0
  4  5  1  0
  3  4  2  0
  1  3  1  0
  7  8  2  0
  8 10  1  0
 10 11  2  0
 11 12  1  0
 12 13  2  0
  7 13  1  0
M  END

$$$$
No_3352-/export/home/yangzhenyu/potential_scad_32_flow//YTHDC2/2024-12-06-03-22-00/
     RDKit          3D

 18 18  0  0  0  0  0  0  0  0999 V2000
    1.1787   -8.0297    3.5154 C   0  0  0  0  0  0  0  0  0  0  0  0
    1.1048   -9.2215    3.2892 C   0  0  0  0  0  0  0  0  0  0  0  0
    1.2339   -9.7611    2.0189 C   0  0  0  0  0  0  0  0  0  0  0  0
    1.3583   -9.0036    0.9764 C   0  0  0  0  0  0  0  0  0  0  0  0
    1.7077   -9.6100   -0.3010 C   0  0  0  0  0  0  0  0  0  0  0  0
    1.3637   -7.1087    2.3226 C   0  0  0  0  0  0  0  0  0  0  0  0
    1.1857   -5.6971    2.3625 C   0  0  0  0  0  0  0  0  0  0  0  0
    1.3192   -7.7188    1.0140 C   0  0  0  0  0  0  0  0  0  0  0  0
    2.0692   -8.9526   -1.2707 O   0  0  0  0  0  0  0  0  0  0  0  0
    1.1713  -10.7745   -0.5817 O   0  0  0  0  0  0  0  0  0  0  0  0
    1.7109   -5.0640    3.4125 N   0  0  0  0  0  0  0  0  0  0  0  0
    1.0553   -5.0427    1.2195 O   0  0  0  0  0  0  0  0  0  0  0  0
    1.3068  -11.3982    1.9488 C   0  0  0  0  0  0  0  0  0  0  0  0
    0.2843  -11.9921    1.9365 C   0  0  0  0  0  0  0  0  0  0  0  0
   -0.8996  -11.5307    1.9565 C   0  0  0  0  0  0  0  0  0  0  0  0
   -2.0386  -12.2993    1.8472 C   0  0  0  0  0  0  0  0  0  0  0  0
   -1.8396  -13.6501    1.8470 C   0  0  0  0  0  0  0  0  0  0  0  0
   -0.6120  -14.2127    1.9574 C   0  0  0  0  0  0  0  0  0  0  0  0
  4  5  1  0
  6  7  1  0
  5  9  2  0
  5 10  1  0
  7 11  1  0
  7 12  2  0
  3 13  1  0
 13 14  1  0
 14 15  2  3
 15 16  1  0
 16 17  2  3
 17 18  1  0
  1  2  2  0
  2  3  1  0
  3  4  2  0
  4  8  1  0
  6  8  2  0
  1  6  1  0
M  END

$$$$
No_3353-/export/home/yangzhenyu/potential_scad_32_flow//YTHDC2/2024-12-06-03-22-00/
     RDKit          3D

 18 20  0  0  0  0  0  0  0  0999 V2000
    1.1787   -8.0297    3.5154 C   0  0  0  0  0  0  0  0  0  0  0  0
    1.1048   -9.2215    3.2892 C   0  0  0  0  0  0  0  0  0  0  0  0
    1.2339   -9.7611    2.0189 C   0  0  0  0  0  0  0  0  0  0  0  0
    1.3583   -9.0036    0.9764 C   0  0  0  0  0  0  0  0  0  0  0  0
    1.5996   -7.6362    1.1311 C   0  0  0  0  0  0  0  0  0  0  0  0
    1.4830   -7.0928    2.3626 C   0  0  0  0  0  0  0  0  0  0  0  0
    1.1008  -11.2372    1.8542 C   0  0  0  0  0  0  0  0  0  0  0  0
    1.9749  -12.0938    2.2342 C   0  0  0  0  0  0  0  0  0  0  0  0
    1.7533  -13.4231    1.8956 C   0  0  0  0  0  0  0  0  0  0  0  0
    0.8624  -13.8318    1.1071 C   0  0  0  0  0  0  0  0  0  0  0  0
    0.5887  -15.0331    0.5602 C   0  0  0  0  0  0  0  0  0  0  0  0
    0.0774  -12.6150    0.5819 C   0  0  0  0  0  0  0  0  0  0  0  0
    0.1613  -11.5240    0.8981 C   0  0  0  0  0  0  0  0  0  0  0  0
    1.5491   -5.6324    2.6488 C   0  0  0  0  0  0  0  0  0  0  0  0
   -0.9430  -13.0714   -0.3087 N   0  0  0  0  0  0  0  0  0  0  0  0
   -0.4402  -14.7224   -0.4288 C   0  0  0  0  0  0  0  0  0  0  0  0
    1.1873   -4.7814    1.6438 O   0  0  0  0  0  0  0  0  0  0  0  0
    1.5870   -5.0851    3.8428 O   0  0  0  0  0  0  0  0  0  0  0  0
  3  7  1  0
 10 11  1  0
  6 14  1  0
 11 16  2  0
 15 16  1  0
 14 17  2  0
 14 18  1  0
 12 15  1  0
  1  2  2  0
  2  3  1  0
  3  4  2  0
  4  5  1  0
  5  6  2  0
  1  6  1  0
  7  8  2  0
  8  9  1  0
  9 10  2  0
 10 12  1  0
 12 13  2  0
  7 13  1  0
M  END

$$$$
No_3354-/export/home/yangzhenyu/potential_scad_32_flow//YTHDC2/2024-12-06-03-22-00/
     RDKit          3D

 18 20  0  0  0  0  0  0  0  0999 V2000
    1.1787   -8.0297    3.5154 C   0  0  0  0  0  0  0  0  0  0  0  0
    1.1048   -9.2215    3.2892 C   0  0  0  0  0  0  0  0  0  0  0  0
    1.3627  -10.1721    4.3044 C   0  0  0  0  0  0  0  0  0  0  0  0
    1.0682  -11.5187    4.0618 C   0  0  0  0  0  0  0  0  0  0  0  0
    0.7653  -11.7320    2.7387 C   0  0  0  0  0  0  0  0  0  0  0  0
    0.5661  -10.9730    1.8367 C   0  0  0  0  0  0  0  0  0  0  0  0
    0.7745   -9.6758    2.0361 C   0  0  0  0  0  0  0  0  0  0  0  0
    1.2131   -6.9952    2.4858 N   0  0  0  0  0  0  0  0  0  0  0  0
    1.0527   -7.3674    1.2892 C   0  0  0  0  0  0  0  0  0  0  0  0
    0.8836   -8.6723    0.9514 C   0  0  0  0  0  0  0  0  0  0  0  0
    0.7565   -9.0748   -0.3009 C   0  0  0  0  0  0  0  0  0  0  0  0
    0.2220   -8.6445   -1.0562 O   0  0  0  0  0  0  0  0  0  0  0  0
    0.5308  -13.2514    2.4803 C   0  0  0  0  0  0  0  0  0  0  0  0
   -0.6579  -13.6628    2.1030 C   0  0  0  0  0  0  0  0  0  0  0  0
    1.6178  -14.1665    2.4749 C   0  0  0  0  0  0  0  0  0  0  0  0
    1.7688  -15.2482    1.7496 C   0  0  0  0  0  0  0  0  0  0  0  0
    0.4773  -15.8314    1.4990 C   0  0  0  0  0  0  0  0  0  0  0  0
   -0.5954  -14.8917    1.0579 C   0  0  0  0  0  0  0  0  0  0  0  0
 10 11  1  0
 11 12  2  0
  5 13  1  0
 13 14  1  0
 13 15  1  0
 15 16  1  0
 16 17  1  0
 14 18  1  0
 17 18  1  0
  2  3  1  0
  3  4  2  0
  4  5  1  0
  5  6  2  0
  6  7  1  0
  1  2  2  0
  2  7  1  0
  7 10  2  0
  9 10  1  0
  8  9  2  0
  1  8  1  0
M  END

$$$$
No_3355-/export/home/yangzhenyu/potential_scad_32_flow//YTHDC2/2024-12-06-03-22-00/
     RDKit          3D

 20 21  0  0  1  0  0  0  0  0999 V2000
    1.1787   -8.0297    3.5154 C   0  0  0  0  0  0  0  0  0  0  0  0
    1.1048   -9.2215    3.2892 C   0  0  0  0  0  0  0  0  0  0  0  0
    1.2339   -9.7611    2.0189 C   0  0  0  0  0  0  0  0  0  0  0  0
    1.3583   -9.0036    0.9764 C   0  0  0  0  0  0  0  0  0  0  0  0
    1.7077   -9.6100   -0.3010 C   0  0  0  0  0  0  0  0  0  0  0  0
    1.3637   -7.1087    2.3226 C   0  0  0  0  0  0  0  0  0  0  0  0
    1.4257   -7.6645    1.0231 C   0  0  0  0  0  0  0  0  0  0  0  0
    1.6722  -10.7840   -0.4044 O   0  0  0  0  0  0  0  0  0  0  0  0
    1.2336   -8.9275   -1.4153 O   0  0  0  0  0  0  0  0  0  0  0  0
    0.8932  -10.3756    4.5756 Cl  0  0  0  0  0  0  0  0  0  0  0  0
    1.3516   -5.6035    2.5729 I   0  0  0  0  0  0  0  0  0  0  0  0
    1.3080  -11.1934    1.9560 O   0  0  0  0  0  0  0  0  0  0  0  0
    2.3773  -12.1309    2.3179 C   0  0  0  0  0  0  0  0  0  0  0  0
    1.8675  -13.4184    2.5667 C   0  0  2  0  0  0  0  0  0  0  0  0
    2.1849  -14.5366    1.8595 O   0  0  0  0  0  0  0  0  0  0  0  0
    1.7494  -15.7343    2.2296 C   0  0  0  0  0  0  0  0  0  0  0  0
    0.4851  -15.9330    2.3004 C   0  0  0  0  0  0  0  0  0  0  0  0
   -0.3115  -15.0182    1.6609 C   0  0  0  0  0  0  0  0  0  0  0  0
   -0.3978  -13.5848    2.1601 C   0  0  0  0  0  0  0  0  0  0  0  0
    0.3298  -13.3191    2.9296 C   0  0  0  0  0  0  0  0  0  0  0  0
  4  5  1  0
  5  8  2  0
  5  9  1  0
  2 10  1  0
  6 11  1  0
  3 12  1  0
 12 13  1  0
 14 13  1  6
 14 15  1  0
 15 16  1  0
 16 17  1  0
 17 18  1  0
 18 19  1  0
 14 20  1  0
 19 20  1  0
  1  2  2  0
  2  3  1  0
  3  4  2  0
  4  7  1  0
  6  7  2  0
  1  6  1  0
M  END

$$$$
No_3356-/export/home/yangzhenyu/potential_scad_32_flow//YTHDC2/2024-12-06-03-22-00/
     RDKit          3D

 18 18  0  0  0  0  0  0  0  0999 V2000
    1.1787   -8.0297    3.5154 C   0  0  0  0  0  0  0  0  0  0  0  0
    1.1048   -9.2215    3.2892 C   0  0  0  0  0  0  0  0  0  0  0  0
    1.2339   -9.7611    2.0189 C   0  0  0  0  0  0  0  0  0  0  0  0
    1.1954  -11.2312    1.8661 C   0  0  0  0  0  0  0  0  0  0  0  0
    1.5546  -12.1691    2.7931 C   0  0  0  0  0  0  0  0  0  0  0  0
    0.5849   -7.0929    2.5729 C   0  0  0  0  0  0  0  0  0  0  0  0
    0.5651   -5.6716    2.6680 C   0  0  0  0  0  0  0  0  0  0  0  0
   -0.3793   -4.9147    2.1532 C   0  0  0  0  0  0  0  0  0  0  0  0
   -0.3755   -3.4882    2.2883 C   0  0  0  0  0  0  0  0  0  0  0  0
    1.4346  -13.4977    2.4940 C   0  0  0  0  0  0  0  0  0  0  0  0
    0.8356  -13.9275    1.3956 C   0  0  0  0  0  0  0  0  0  0  0  0
    0.4435  -13.1355    0.4410 C   0  0  0  0  0  0  0  0  0  0  0  0
    0.6163  -11.7236    0.6232 C   0  0  0  0  0  0  0  0  0  0  0  0
    0.2559  -10.8567   -0.3424 C   0  0  0  0  0  0  0  0  0  0  0  0
    0.8740   -9.7596   -0.7699 C   0  0  0  0  0  0  0  0  0  0  0  0
    0.1551   -8.7065   -1.4472 N   0  0  0  0  0  0  0  0  0  0  0  0
    2.2505   -9.5183   -0.6658 O   0  0  0  0  0  0  0  0  0  0  0  0
    1.9215  -14.5466    3.6507 Cl  0  0  0  0  0  0  0  0  0  0  0  0
  1  2  1  0
  2  3  2  3
  3  4  1  0
  1  6  2  3
  6  7  1  0
  7  8  2  3
  8  9  1  0
 13 14  1  0
 14 15  2  3
 15 16  1  0
 15 17  1  0
 10 18  1  0
  4  5  2  0
  5 10  1  0
 10 11  2  0
 11 12  1  0
 12 13  2  0
  4 13  1  0
M  END

$$$$
No_3357-/export/home/yangzhenyu/potential_scad_32_flow//YTHDC2/2024-12-06-03-22-00/
     RDKit          3D

 19 20  0  0  1  0  0  0  0  0999 V2000
    1.1787   -8.0297    3.5154 C   0  0  0  0  0  0  0  0  0  0  0  0
    1.1048   -9.2215    3.2892 C   0  0  0  0  0  0  0  0  0  0  0  0
    1.3627  -10.1721    4.3044 C   0  0  0  0  0  0  0  0  0  0  0  0
    1.7354  -11.4730    3.9023 C   0  0  0  0  0  0  0  0  0  0  0  0
    1.8080  -11.8127    2.7216 C   0  0  0  0  0  0  0  0  0  0  0  0
    2.0797  -13.2205    2.4264 C   0  0  2  0  0  0  0  0  0  0  0  0
    1.0424   -7.1607    2.3029 C   0  0  0  0  0  0  0  0  0  0  0  0
    1.1066   -7.6297    1.0940 C   0  0  0  0  0  0  0  0  0  0  0  0
    1.2742   -8.8824    0.8244 C   0  0  0  0  0  0  0  0  0  0  0  0
    1.2734   -9.8055    1.8891 C   0  0  0  0  0  0  0  0  0  0  0  0
    1.6366  -11.0387    1.6628 C   0  0  0  0  0  0  0  0  0  0  0  0
    2.3320  -13.7470    1.2146 F   0  0  0  0  0  0  0  0  0  0  0  0
    1.0754  -14.0639    2.8964 Br  0  0  0  0  0  0  0  0  0  0  0  0
    0.9050   -5.6416    2.5043 C   0  0  0  0  0  0  0  0  0  0  0  0
    1.8258   -5.0187    3.2072 C   0  0  0  0  0  0  0  0  0  0  0  0
    2.0526   -5.3641    4.3022 O   0  0  0  0  0  0  0  0  0  0  0  0
    1.8430   -3.6119    2.9239 O   0  0  0  0  0  0  0  0  0  0  0  0
    1.4101   -9.3142   -0.4349 C   0  0  0  0  0  0  0  0  0  0  0  0
    2.4530   -9.9387   -0.8107 O   0  0  0  0  0  0  0  0  0  0  0  0
  5  6  1  0
  6 12  1  6
  6 13  1  0
  7 14  1  0
 14 15  1  0
 15 16  2  0
 15 17  1  0
  9 18  1  0
 18 19  2  0
  1  2  2  0
  9 10  2  0
  8  9  1  0
  7  8  2  0
  1  7  1  0
  2  3  1  0
  3  4  2  0
  4  5  1  0
  5 11  2  0
 10 11  1  0
  2 10  1  0
M  END

$$$$
No_3358-/export/home/yangzhenyu/potential_scad_32_flow//YTHDC2/2024-12-06-03-22-00/
     RDKit          3D

 17 18  0  0  0  0  0  0  0  0999 V2000
    1.1787   -8.0297    3.5154 C   0  0  0  0  0  0  0  0  0  0  0  0
    1.0491   -6.8434    2.9820 C   0  0  0  0  0  0  0  0  0  0  0  0
    0.0950   -8.8404    3.2292 C   0  0  0  0  0  0  0  0  0  0  0  0
    0.0602  -10.1764    3.8231 C   0  0  0  0  0  0  0  0  0  0  0  0
    0.2248   -6.3830    2.0648 C   0  0  0  0  0  0  0  0  0  0  0  0
   -0.6745   -7.2322    1.6857 C   0  0  0  0  0  0  0  0  0  0  0  0
   -0.7374   -8.4992    2.1291 C   0  0  0  0  0  0  0  0  0  0  0  0
   -1.2197  -10.6611    4.0385 C   0  0  0  0  0  0  0  0  0  0  0  0
   -2.2122  -10.2766    3.1435 C   0  0  0  0  0  0  0  0  0  0  0  0
   -2.0039   -9.1685    2.3316 C   0  0  0  0  0  0  0  0  0  0  0  0
    0.2925   -5.1707    1.3181 C   0  0  0  0  0  0  0  0  0  0  0  0
   -0.5563   -4.5413    0.7244 C   0  0  0  0  0  0  0  0  0  0  0  0
   -0.4894   -3.3277    0.1380 C   0  0  0  0  0  0  0  0  0  0  0  0
   -1.0991   -3.0728   -1.1312 C   0  0  0  0  0  0  0  0  0  0  0  0
   -0.8250   -1.8791   -1.7947 C   0  0  0  0  0  0  0  0  0  0  0  0
   -0.1027   -0.9536   -1.1834 C   0  0  0  0  0  0  0  0  0  0  0  0
    0.5228   -1.1393    0.0542 C   0  0  0  0  0  0  0  0  0  0  0  0
  5 11  1  0
 11 12  2  3
 12 13  1  0
 13 14  1  0
 14 15  2  3
 15 16  1  0
 16 17  2  0
  1  2  2  0
  2  5  1  0
  5  6  2  0
  6  7  1  0
  1  3  1  0
  3  4  2  0
  4  8  1  0
  8  9  2  0
  9 10  1  0
  7 10  2  0
  3  7  1  0
M  END

$$$$
No_3359-/export/home/yangzhenyu/potential_scad_32_flow//YTHDC2/2024-12-06-03-22-00/
     RDKit          3D

 17 18  0  0  1  0  0  0  0  0999 V2000
    1.1787   -8.0297    3.5154 C   0  0  0  0  0  0  0  0  0  0  0  0
    1.1048   -9.2215    3.2892 C   0  0  0  0  0  0  0  0  0  0  0  0
    1.3627  -10.1721    4.3044 C   0  0  0  0  0  0  0  0  0  0  0  0
    1.0682  -11.5187    4.0618 C   0  0  0  0  0  0  0  0  0  0  0  0
    0.6332  -11.9655    2.9682 C   0  0  0  0  0  0  0  0  0  0  0  0
    0.4776  -11.1308    1.9203 C   0  0  0  0  0  0  0  0  0  0  0  0
    0.7470   -9.8274    2.0368 C   0  0  0  0  0  0  0  0  0  0  0  0
    1.0387   -7.0301    2.5175 N   0  0  0  0  0  0  0  0  0  0  0  0
    1.0482   -5.6912    2.8349 C   0  0  1  0  0  0  0  0  0  0  0  0
    0.4271  -13.4280    2.7942 C   0  0  0  0  0  0  0  0  0  0  0  0
    0.8582  -14.0616    1.6937 C   0  0  0  0  0  0  0  0  0  0  0  0
    1.4643  -15.2818    1.8282 C   0  0  0  0  0  0  0  0  0  0  0  0
    1.2951  -16.0941    3.0006 C   0  0  0  0  0  0  0  0  0  0  0  0
    0.7395  -15.4110    4.1202 C   0  0  0  0  0  0  0  0  0  0  0  0
    0.3290  -14.1536    4.0152 C   0  0  0  0  0  0  0  0  0  0  0  0
    1.6984   -5.2078    3.8842 N   0  0  0  0  0  0  0  0  0  0  0  0
    0.9039   -4.8426    1.6943 C   0  0  0  0  0  0  0  0  0  0  0  0
  1  2  1  0
  1  8  1  0
  8  9  1  0
  5 10  1  0
  9 16  1  0
  9 17  1  6
  2  3  2  0
  3  4  1  0
  4  5  2  0
  5  6  1  0
  6  7  2  0
  2  7  1  0
 10 11  2  0
 11 12  1  0
 12 13  2  0
 13 14  1  0
 14 15  2  0
 10 15  1  0
M  END

$$$$
No_3360-/export/home/yangzhenyu/potential_scad_32_flow//YTHDC2/2024-12-06-03-22-00/
     RDKit          3D

 18 18  0  0  1  0  0  0  0  0999 V2000
    1.1787   -8.0297    3.5154 N   0  0  0  0  0  0  0  0  0  0  0  0
    0.8669   -7.0905    2.8589 C   0  0  0  0  0  0  0  0  0  0  0  0
    1.0447   -7.3244    1.4123 C   0  0  0  0  0  0  0  0  0  0  0  0
    1.3746   -8.4389    1.0864 C   0  0  2  0  0  0  0  0  0  0  0  0
    1.6686   -9.1952    2.5608 C   0  0  0  0  0  0  0  0  0  0  0  0
    1.7474   -9.1250   -0.0219 C   0  0  0  0  0  0  0  0  0  0  0  0
    2.1020   -8.4131   -1.0307 O   0  0  0  0  0  0  0  0  0  0  0  0
    1.7329  -10.3816   -0.1667 O   0  0  0  0  0  0  0  0  0  0  0  0
    1.9649  -10.5127    2.8990 C   0  0  0  0  0  0  0  0  0  0  0  0
    1.0445  -11.1627    3.7010 C   0  0  0  0  0  0  0  0  0  0  0  0
    1.3348  -12.5036    3.7351 O   0  0  0  0  0  0  0  0  0  0  0  0
    0.0688  -10.7166    4.3478 O   0  0  0  0  0  0  0  0  0  0  0  0
    0.6444   -5.6973    3.4347 C   0  0  0  0  0  0  0  0  0  0  0  0
    0.7868   -4.6016    2.5196 C   0  0  0  0  0  0  0  0  0  0  0  0
    0.1421   -3.8179    2.3406 N   0  0  0  0  0  0  0  0  0  0  0  0
    0.3597   -2.7806    1.4009 C   0  0  0  0  0  0  0  0  0  0  0  0
   -1.3575   -4.3534    2.1821 C   0  0  0  0  0  0  0  0  0  0  0  0
   -2.2595   -3.9372    3.0793 C   0  0  0  0  0  0  0  0  0  0  0  0
  1  2  1  0
  2  3  2  0
  3  4  1  0
  1  5  2  0
  4  5  1  0
  4  6  1  6
  6  7  2  0
  6  8  1  0
  5  9  1  0
  9 10  1  0
 10 11  1  0
 10 12  2  0
  2 13  1  0
 13 14  1  0
 14 15  1  0
 15 16  1  0
 15 17  1  0
 17 18  1  0
M  END

$$$$
No_3361-/export/home/yangzhenyu/potential_scad_32_flow//YTHDC2/2024-12-06-03-22-00/
     RDKit          3D

 19 20  0  0  1  0  0  0  0  0999 V2000
    1.1787   -8.0297    3.5154 C   0  0  0  0  0  0  0  0  0  0  0  0
    1.1048   -9.2215    3.2892 C   0  0  0  0  0  0  0  0  0  0  0  0
    1.2339   -9.7611    2.0189 C   0  0  0  0  0  0  0  0  0  0  0  0
    1.3583   -9.0036    0.9764 C   0  0  0  0  0  0  0  0  0  0  0  0
    1.5996   -7.6362    1.1311 C   0  0  0  0  0  0  0  0  0  0  0  0
    1.4830   -7.0928    2.3626 C   0  0  0  0  0  0  0  0  0  0  0  0
    1.4898   -5.7274    2.6199 C   0  0  0  0  0  0  0  0  0  0  0  0
    1.1681  -11.2222    1.8390 C   0  0  1  0  0  0  0  0  0  0  0  0
    0.7145  -11.5870    0.5424 N   0  0  0  0  0  0  0  0  0  0  0  0
    1.6013  -12.0513    2.6406 C   0  0  0  0  0  0  0  0  0  0  0  0
    1.5888  -13.4432    2.3133 C   0  0  0  0  0  0  0  0  0  0  0  0
    2.0311  -14.4930    3.2179 C   0  0  0  0  0  0  0  0  0  0  0  0
    1.0591  -13.6507    0.9923 C   0  0  0  0  0  0  0  0  0  0  0  0
    0.6285  -12.7983    0.1943 C   0  0  0  0  0  0  0  0  0  0  0  0
    1.2440   -4.8530    1.6296 O   0  0  0  0  0  0  0  0  0  0  0  0
    1.7697   -5.1383    3.8002 O   0  0  0  0  0  0  0  0  0  0  0  0
    0.0670  -13.1524   -0.9728 O   0  0  0  0  0  0  0  0  0  0  0  0
    2.7967  -15.4772    2.7554 N   0  0  0  0  0  0  0  0  0  0  0  0
    2.4758  -16.5049    2.2301 C   0  0  0  0  0  0  0  0  0  0  0  0
  6  7  1  0
  8  3  1  6
  8  9  1  0
  8 10  1  0
 11 12  1  0
 11 13  1  0
  9 14  1  0
 13 14  1  0
  7 15  2  0
  7 16  1  0
 14 17  2  0
 12 18  1  0
 18 19  1  0
 10 11  1  0
  1  2  2  0
  2  3  1  0
  3  4  2  0
  4  5  1  0
  5  6  2  0
  1  6  1  0
M  END

$$$$
No_3362-/export/home/yangzhenyu/potential_scad_32_flow//YTHDC2/2024-12-06-03-22-00/
     RDKit          3D

 19 20  0  0  1  0  0  0  0  0999 V2000
    1.1787   -8.0297    3.5154 C   0  0  0  0  0  0  0  0  0  0  0  0
    1.1048   -9.2215    3.2892 C   0  0  0  0  0  0  0  0  0  0  0  0
    1.2339   -9.7611    2.0189 C   0  0  0  0  0  0  0  0  0  0  0  0
    1.3583   -9.0036    0.9764 C   0  0  0  0  0  0  0  0  0  0  0  0
    1.5996   -7.6362    1.1311 C   0  0  0  0  0  0  0  0  0  0  0  0
    1.4830   -7.0928    2.3626 C   0  0  0  0  0  0  0  0  0  0  0  0
    1.4898   -5.7274    2.6199 C   0  0  0  0  0  0  0  0  0  0  0  0
    1.1681  -11.2222    1.8390 C   0  0  2  0  0  0  0  0  0  0  0  0
    1.9047  -12.1147    2.3357 C   0  0  0  0  0  0  0  0  0  0  0  0
    1.6844  -13.4555    2.0602 N   0  0  0  0  0  0  0  0  0  0  0  0
    0.7970  -13.6295    1.1691 C   0  0  0  0  0  0  0  0  0  0  0  0
    0.4344  -12.0952    0.9545 N   0  0  0  0  0  0  0  0  0  0  0  0
    1.6833   -5.1688    3.8644 O   0  0  0  0  0  0  0  0  0  0  0  0
    1.3639   -4.8312    1.6625 O   0  0  0  0  0  0  0  0  0  0  0  0
    2.7452  -11.8271    3.4727 O   0  0  0  0  0  0  0  0  0  0  0  0
    1.6128   -9.5308   -0.5688 C   0  0  0  0  0  0  0  0  0  0  0  0
    0.3968   -9.7708   -1.0211 O   0  0  0  0  0  0  0  0  0  0  0  0
    2.6113   -9.5371   -1.0849 O   0  0  0  0  0  0  0  0  0  0  0  0
    0.3715  -14.5001    0.4311 C   0  0  0  0  0  0  0  0  0  0  0  0
  6  7  1  0
  8  3  1  6
  8  9  1  0
  9 10  1  0
 10 11  2  0
  8 12  1  0
 11 12  1  0
  7 13  1  0
  7 14  2  0
  9 15  2  0
  4 16  1  0
 16 17  2  0
 16 18  1  0
 11 19  1  0
  1  2  2  0
  2  3  1  0
  3  4  2  0
  4  5  1  0
  5  6  2  0
  1  6  1  0
M  END

$$$$
No_3363-/export/home/yangzhenyu/potential_scad_32_flow//YTHDC2/2024-12-06-03-22-00/
     RDKit          3D

 17 18  0  0  1  0  0  0  0  0999 V2000
    1.1787   -8.0297    3.5154 C   0  0  0  0  0  0  0  0  0  0  0  0
    1.1048   -9.2215    3.2892 C   0  0  0  0  0  0  0  0  0  0  0  0
    1.2339   -9.7611    2.0189 C   0  0  0  0  0  0  0  0  0  0  0  0
    1.3583   -9.0036    0.9764 C   0  0  0  0  0  0  0  0  0  0  0  0
    1.5996   -7.6362    1.1311 C   0  0  0  0  0  0  0  0  0  0  0  0
    1.4830   -7.0928    2.3626 C   0  0  1  0  0  0  0  0  0  0  0  0
    1.5395   -5.7300    2.6182 C   0  0  0  0  0  0  0  0  0  0  0  0
    1.1775  -11.2233    1.8407 C   0  0  0  0  0  0  0  0  0  0  0  0
    1.9057  -12.1147    2.3397 C   0  0  0  0  0  0  0  0  0  0  0  0
    1.6867  -13.4551    2.0621 C   0  0  0  0  0  0  0  0  0  0  0  0
    0.7025  -13.8511    1.3021 C   0  0  0  0  0  0  0  0  0  0  0  0
   -0.1111  -12.9140    0.6527 C   0  0  0  0  0  0  0  0  0  0  0  0
    0.1535  -11.5434    0.9240 C   0  0  0  0  0  0  0  0  0  0  0  0
    1.6688   -5.1779    3.8866 O   0  0  0  0  0  0  0  0  0  0  0  0
    1.4063   -4.8344    1.6658 O   0  0  0  0  0  0  0  0  0  0  0  0
    2.5143  -14.4249    2.7647 O   0  0  0  0  0  0  0  0  0  0  0  0
   -0.6882  -10.6755    0.3329 S   0  0  0  0  0  0  0  0  0  0  0  0
  1  2  1  0
  2  3  2  0
  3  4  1  0
  4  5  2  0
  1  6  1  0
  5  6  1  0
  6  7  1  6
  3  8  1  0
  8  9  1  0
  9 10  2  0
 10 11  1  0
 11 12  2  0
  8 13  1  0
 12 13  1  0
  7 14  1  0
  7 15  2  0
 10 16  1  0
 13 17  2  0
M  END

$$$$
No_3364-/export/home/yangzhenyu/potential_scad_32_flow//YTHDC2/2024-12-06-03-22-00/
     RDKit          3D

 19 20  0  0  1  0  0  0  0  0999 V2000
    1.1787   -8.0297    3.5154 C   0  0  0  0  0  0  0  0  0  0  0  0
    1.1048   -9.2215    3.2892 C   0  0  0  0  0  0  0  0  0  0  0  0
    1.2339   -9.7611    2.0189 C   0  0  0  0  0  0  0  0  0  0  0  0
    1.3583   -9.0036    0.9764 C   0  0  0  0  0  0  0  0  0  0  0  0
    1.5996   -7.6362    1.1311 C   0  0  0  0  0  0  0  0  0  0  0  0
    1.4830   -7.0928    2.3626 C   0  0  0  0  0  0  0  0  0  0  0  0
    1.1171  -11.3311    1.8661 C   0  0  0  0  0  0  0  0  0  0  0  0
    0.5042  -11.9974    2.3631 N   0  0  0  0  0  0  0  0  0  0  0  0
    0.7661  -13.1640    2.6757 C   0  0  0  0  0  0  0  0  0  0  0  0
    1.2596  -14.0429    1.8165 C   0  0  1  0  0  0  0  0  0  0  0  0
    2.2887  -13.2667    0.9170 C   0  0  0  0  0  0  0  0  0  0  0  0
    1.9997  -11.8725    0.8681 C   0  0  0  0  0  0  0  0  0  0  0  0
    1.5387   -5.4603    2.6779 Cl  0  0  0  0  0  0  0  0  0  0  0  0
    1.4979  -15.3578    1.8672 C   0  0  0  0  0  0  0  0  0  0  0  0
    0.5655  -16.1304    2.1846 O   0  0  0  0  0  0  0  0  0  0  0  0
    2.7603  -16.0048    1.8736 O   0  0  0  0  0  0  0  0  0  0  0  0
    1.6924   -9.4783   -0.5197 Cl  0  0  0  0  0  0  0  0  0  0  0  0
    0.8710  -10.1617    4.3948 O   0  0  0  0  0  0  0  0  0  0  0  0
   -0.1950  -13.9593    3.4538 O   0  0  0  0  0  0  0  0  0  0  0  0
  3  7  1  0
  7  8  1  0
  8  9  1  0
  9 10  1  0
 10 11  1  0
  7 12  1  0
 11 12  1  0
  6 13  1  0
 10 14  1  1
 14 15  2  0
 14 16  1  0
  4 17  1  0
  2 18  1  0
  9 19  2  0
  1  2  2  0
  2  3  1  0
  3  4  2  0
  4  5  1  0
  5  6  2  0
  1  6  1  0
M  END

$$$$
No_3365-/export/home/yangzhenyu/potential_scad_32_flow//YTHDC2/2024-12-06-03-22-00/
     RDKit          3D

 18 18  0  0  1  0  0  0  0  0999 V2000
    1.1787   -8.0297    3.5154 C   0  0  0  0  0  0  0  0  0  0  0  0
    1.1048   -9.2215    3.2892 C   0  0  0  0  0  0  0  0  0  0  0  0
    1.3627  -10.1721    4.3044 C   0  0  0  0  0  0  0  0  0  0  0  0
    1.7354  -11.4730    3.9023 C   0  0  0  0  0  0  0  0  0  0  0  0
    1.8080  -11.8127    2.7216 C   0  0  0  0  0  0  0  0  0  0  0  0
    1.5854  -11.0021    1.7249 C   0  0  0  0  0  0  0  0  0  0  0  0
    1.3573   -9.7389    1.9287 C   0  0  0  0  0  0  0  0  0  0  0  0
    1.1102   -8.8712    0.9017 C   0  0  0  0  0  0  0  0  0  0  0  0
    0.5299   -7.6926    1.0325 O   0  0  0  0  0  0  0  0  0  0  0  0
    1.3970   -9.2634   -0.4035 C   0  0  0  0  0  0  0  0  0  0  0  0
    2.6131   -9.4618   -0.7933 O   0  0  0  0  0  0  0  0  0  0  0  0
    0.5020   -9.4482   -1.2562 O   0  0  0  0  0  0  0  0  0  0  0  0
    2.0759  -13.2299    2.3817 C   0  0  0  0  0  0  0  0  0  0  0  0
    1.1838  -14.0354    1.7546 C   0  0  2  0  0  0  0  0  0  0  0  0
    0.1011  -13.5243    1.4650 C   0  0  0  0  0  0  0  0  0  0  0  0
    1.4617  -15.3109    1.6361 C   0  0  0  0  0  0  0  0  0  0  0  0
    0.5982  -16.1020    0.9749 C   0  0  0  0  0  0  0  0  0  0  0  0
   -0.5528  -15.6414    0.5081 N   0  0  0  0  0  0  0  0  0  0  0  0
  1  2  1  0
  7  8  1  0
  8  9  2  0
  8 10  1  0
 10 11  1  0
 10 12  2  0
  5 13  1  0
 13 14  1  0
 14 15  1  1
 14 16  1  0
 16 17  2  3
 17 18  1  0
  2  3  2  0
  3  4  1  0
  4  5  2  0
  5  6  1  0
  6  7  2  0
  2  7  1  0
M  END

$$$$
No_3366-/export/home/yangzhenyu/potential_scad_32_flow//YTHDC2/2024-12-06-03-22-00/
     RDKit          3D

 20 21  0  0  0  0  0  0  0  0999 V2000
    1.1787   -8.0297    3.5154 C   0  0  0  0  0  0  0  0  0  0  0  0
    1.1048   -9.2215    3.2892 C   0  0  0  0  0  0  0  0  0  0  0  0
    1.2339   -9.7611    2.0189 C   0  0  0  0  0  0  0  0  0  0  0  0
    1.4306   -8.9466    1.1170 C   0  0  0  0  0  0  0  0  0  0  0  0
    1.5580   -7.4985    1.4243 C   0  0  0  0  0  0  0  0  0  0  0  0
    1.4934   -7.0970    2.5434 C   0  0  0  0  0  0  0  0  0  0  0  0
    1.6220   -9.3517   -0.2977 C   0  0  0  0  0  0  0  0  0  0  0  0
    2.5449   -9.1939   -0.9335 O   0  0  0  0  0  0  0  0  0  0  0  0
    0.4424   -9.4994   -0.9263 O   0  0  0  0  0  0  0  0  0  0  0  0
    0.8839  -10.2919    4.3086 S   0  0  0  0  0  0  0  0  0  0  0  0
    0.6190  -11.8298    3.5237 N   0  0  0  0  0  0  0  0  0  0  0  0
   -0.5681  -12.2172    3.0896 C   0  0  0  0  0  0  0  0  0  0  0  0
   -0.5457  -13.4700    2.5024 C   0  0  0  0  0  0  0  0  0  0  0  0
   -1.6586  -14.0246    2.1100 C   0  0  0  0  0  0  0  0  0  0  0  0
   -2.8409  -13.3094    2.1720 C   0  0  0  0  0  0  0  0  0  0  0  0
   -2.8431  -12.0086    2.7062 C   0  0  0  0  0  0  0  0  0  0  0  0
   -1.6870  -11.5124    3.2777 C   0  0  0  0  0  0  0  0  0  0  0  0
    0.8321  -10.2809    5.4819 O   0  0  0  0  0  0  0  0  0  0  0  0
    2.0210  -11.3690    4.4832 O   0  0  0  0  0  0  0  0  0  0  0  0
   -4.0180  -13.8996    1.7865 O   0  0  0  0  0  0  0  0  0  0  0  0
  4  7  1  0
  7  8  2  0
  7  9  1  0
  2 10  1  0
 10 11  1  0
 11 12  1  0
 10 18  2  0
 10 19  2  0
 15 20  1  0
 12 13  2  0
 13 14  1  0
 14 15  2  0
 15 16  1  0
 16 17  2  0
 12 17  1  0
  1  2  2  0
  2  3  1  0
  3  4  2  0
  4  5  1  0
  5  6  2  0
  1  6  1  0
M  END

$$$$
No_3367-/export/home/yangzhenyu/potential_scad_32_flow//YTHDC2/2024-12-06-03-22-00/
     RDKit          3D

 19 21  0  0  1  0  0  0  0  0999 V2000
    1.1787   -8.0297    3.5154 C   0  0  0  0  0  0  0  0  0  0  0  0
    1.1048   -9.2215    3.2892 C   0  0  0  0  0  0  0  0  0  0  0  0
    1.3627  -10.1721    4.3044 C   0  0  0  0  0  0  0  0  0  0  0  0
    1.0682  -11.5187    4.0618 C   0  0  0  0  0  0  0  0  0  0  0  0
    0.6332  -11.9655    2.9682 C   0  0  0  0  0  0  0  0  0  0  0  0
    0.4776  -11.1308    1.9203 C   0  0  0  0  0  0  0  0  0  0  0  0
    0.7470   -9.8274    2.0368 C   0  0  0  0  0  0  0  0  0  0  0  0
    1.0387   -7.0301    2.5175 C   0  0  0  0  0  0  0  0  0  0  0  0
    0.9130   -7.5288    1.2013 C   0  0  0  0  0  0  0  0  0  0  0  0
    0.7893   -8.7979    0.9542 C   0  0  0  0  0  0  0  0  0  0  0  0
    0.5241   -9.2578   -0.2817 C   0  0  0  0  0  0  0  0  0  0  0  0
    1.2450   -9.2169   -1.2769 Cl  0  0  0  0  0  0  0  0  0  0  0  0
   -0.8696   -9.7250   -0.5208 O   0  0  0  0  0  0  0  0  0  0  0  0
    0.5131  -13.3742    2.6990 C   0  0  2  0  0  0  0  0  0  0  0  0
   -0.6443  -13.9918    2.4323 N   0  0  0  0  0  0  0  0  0  0  0  0
    1.6271  -14.2395    2.8523 C   0  0  0  0  0  0  0  0  0  0  0  0
    2.6899  -14.1704    2.7088 C   0  0  0  0  0  0  0  0  0  0  0  0
    0.9915  -15.7230    2.7069 C   0  0  0  0  0  0  0  0  0  0  0  0
   -0.4219  -15.2895    2.5647 N   0  0  0  0  0  0  0  0  0  0  0  0
 10 11  1  0
 11 12  1  0
 11 13  2  0
 14  5  1  1
 14 15  1  0
 14 16  1  0
 16 17  2  0
 16 18  1  0
 15 19  1  0
 18 19  1  0
  2  3  1  0
  3  4  2  0
  4  5  1  0
  5  6  2  0
  6  7  1  0
  1  2  2  0
  2  7  1  0
  7 10  2  0
  9 10  1  0
  8  9  2  0
  1  8  1  0
M  END

$$$$
No_3368-/export/home/yangzhenyu/potential_scad_32_flow//YTHDC2/2024-12-06-03-22-00/
     RDKit          3D

 20 20  0  0  0  0  0  0  0  0999 V2000
    1.1787   -8.0297    3.5154 C   0  0  0  0  0  0  0  0  0  0  0  0
    1.1048   -9.2215    3.2892 C   0  0  0  0  0  0  0  0  0  0  0  0
    1.3627  -10.1721    4.3044 C   0  0  0  0  0  0  0  0  0  0  0  0
    1.7354  -11.4730    3.9024 C   0  0  0  0  0  0  0  0  0  0  0  0
    1.8080  -11.8127    2.7216 C   0  0  0  0  0  0  0  0  0  0  0  0
    1.5854  -11.0021    1.7249 C   0  0  0  0  0  0  0  0  0  0  0  0
    1.3573   -9.7389    1.9287 C   0  0  0  0  0  0  0  0  0  0  0  0
    1.2865   -8.8078    0.9161 C   0  0  0  0  0  0  0  0  0  0  0  0
    0.9210   -7.5140    1.1674 O   0  0  0  0  0  0  0  0  0  0  0  0
    1.5321   -9.1645   -0.3432 O   0  0  0  0  0  0  0  0  0  0  0  0
    2.0860  -13.2080    2.3166 C   0  0  0  0  0  0  0  0  0  0  0  0
    1.8888  -14.2524    3.1312 Cl  0  0  0  0  0  0  0  0  0  0  0  0
    2.5233  -13.3806    1.0134 O   0  0  0  0  0  0  0  0  0  0  0  0
    0.1327   -7.1988    3.6774 N   0  0  0  0  0  0  0  0  0  0  0  0
   -0.6299   -7.0230    2.8600 C   0  0  0  0  0  0  0  0  0  0  0  0
   -1.7945   -7.9110    2.8686 C   0  0  0  0  0  0  0  0  0  0  0  0
   -2.2348   -8.6174    3.8951 O   0  0  0  0  0  0  0  0  0  0  0  0
   -2.0907   -8.3666    1.6508 N   0  0  0  0  0  0  0  0  0  0  0  0
   -3.0191   -8.6116    1.2949 C   0  0  0  0  0  0  0  0  0  0  0  0
   -3.4209   -9.9002    1.0748 C   0  0  0  0  0  0  0  0  0  0  0  0
  1  2  1  0
  7  8  1  0
  8  9  2  0
  8 10  1  0
  5 11  1  0
 11 12  1  0
 11 13  2  0
  1 14  1  0
 14 15  1  0
 15 16  1  0
 16 17  2  0
 16 18  1  0
 18 19  1  0
 19 20  1  0
  2  3  2  0
  3  4  1  0
  4  5  2  0
  5  6  1  0
  6  7  2  0
  2  7  1  0
M  END

$$$$
No_3369-/export/home/yangzhenyu/potential_scad_32_flow//YTHDC2/2024-12-06-03-22-00/
     RDKit          3D

 18 20  0  0  0  0  0  0  0  0999 V2000
    1.1787   -8.0297    3.5154 C   0  0  0  0  0  0  0  0  0  0  0  0
    1.1048   -9.2215    3.2892 C   0  0  0  0  0  0  0  0  0  0  0  0
    1.2339   -9.7611    2.0189 C   0  0  0  0  0  0  0  0  0  0  0  0
    1.1954  -11.2312    1.8661 C   0  0  0  0  0  0  0  0  0  0  0  0
    1.5546  -12.1691    2.7931 C   0  0  0  0  0  0  0  0  0  0  0  0
    0.9527   -7.0669    2.3918 C   0  0  0  0  0  0  0  0  0  0  0  0
    0.9645   -5.6276    2.5409 C   0  0  0  0  0  0  0  0  0  0  0  0
    1.4432  -13.4928    2.4897 C   0  0  0  0  0  0  0  0  0  0  0  0
    0.9776  -13.9149    1.3022 C   0  0  0  0  0  0  0  0  0  0  0  0
    0.5078  -13.1382    0.4150 C   0  0  0  0  0  0  0  0  0  0  0  0
    0.6417  -11.7396    0.6089 C   0  0  0  0  0  0  0  0  0  0  0  0
    0.5675   -4.8359    1.5983 C   0  0  0  0  0  0  0  0  0  0  0  0
   -0.2930   -5.2778    0.6896 C   0  0  0  0  0  0  0  0  0  0  0  0
   -0.6069   -6.6527    0.6193 C   0  0  0  0  0  0  0  0  0  0  0  0
    0.0365   -7.5695    1.4678 C   0  0  0  0  0  0  0  0  0  0  0  0
    1.0305   -8.8939    0.8159 C   0  0  0  0  0  0  0  0  0  0  0  0
   -1.3478   -7.0850   -0.3905 C   0  0  0  0  0  0  0  0  0  0  0  0
   -1.7574   -6.4835   -1.4164 O   0  0  0  0  0  0  0  0  0  0  0  0
  3  4  1  0
 14 17  1  0
 17 18  2  0
  1  2  2  0
  2  3  1  0
  3 16  2  0
 15 16  1  0
  1  6  1  0
  6  7  2  0
  7 12  1  0
 12 13  2  0
 13 14  1  0
 14 15  2  0
  6 15  1  0
  4  5  2  0
  5  8  1  0
  8  9  2  0
  9 10  1  0
 10 11  2  0
  4 11  1  0
M  END

$$$$
No_3370-/export/home/yangzhenyu/potential_scad_32_flow//YTHDC2/2024-12-06-03-22-00/
     RDKit          3D

 18 19  0  0  0  0  0  0  0  0999 V2000
    1.1787   -8.0297    3.5154 C   0  0  0  0  0  0  0  0  0  0  0  0
    1.0491   -6.8434    2.9820 I   0  0  0  0  0  0  0  0  0  0  0  0
    0.9718   -9.2778    2.6638 C   0  0  0  0  0  0  0  0  0  0  0  0
    0.9442   -9.2977    1.4296 C   0  0  0  0  0  0  0  0  0  0  0  0
    1.0637  -10.5223    0.8868 C   0  0  0  0  0  0  0  0  0  0  0  0
    1.3284  -11.7137    1.5172 C   0  0  0  0  0  0  0  0  0  0  0  0
    1.5860  -11.6145    2.9234 C   0  0  0  0  0  0  0  0  0  0  0  0
    1.4716  -10.3687    3.4815 C   0  0  0  0  0  0  0  0  0  0  0  0
    1.1968  -10.5419    4.6902 Cl  0  0  0  0  0  0  0  0  0  0  0  0
    1.8761  -13.0235    3.3807 O   0  0  0  0  0  0  0  0  0  0  0  0
    0.7786   -8.2617    0.6493 O   0  0  0  0  0  0  0  0  0  0  0  0
    1.6870  -14.1421    2.7987 C   0  0  0  0  0  0  0  0  0  0  0  0
    0.4747  -14.7311    3.0664 C   0  0  0  0  0  0  0  0  0  0  0  0
    0.3938  -16.1074    2.9482 C   0  0  0  0  0  0  0  0  0  0  0  0
    1.4233  -16.7903    2.3024 C   0  0  0  0  0  0  0  0  0  0  0  0
    2.5723  -16.1434    1.9445 C   0  0  0  0  0  0  0  0  0  0  0  0
    2.7771  -14.9066    2.3757 C   0  0  0  0  0  0  0  0  0  0  0  0
    1.2555  -18.1798    1.9157 O   0  0  0  0  0  0  0  0  0  0  0  0
  1  2  1  0
  1  3  1  0
  8  9  1  0
  7 10  1  0
  4 11  1  0
 10 12  1  0
 15 18  1  0
 12 13  2  0
 13 14  1  0
 14 15  2  0
 15 16  1  0
 16 17  2  0
 12 17  1  0
  3  4  2  0
  4  5  1  0
  5  6  2  0
  6  7  1  0
  7  8  2  0
  3  8  1  0
M  END

$$$$
No_3371-/export/home/yangzhenyu/potential_scad_32_flow//YTHDC2/2024-12-06-03-22-00/
     RDKit          3D

 19 20  0  0  0  0  0  0  0  0999 V2000
    1.1787   -8.0297    3.5154 N   0  0  0  0  0  0  0  0  0  0  0  0
    0.8669   -7.0905    2.8589 C   0  0  0  0  0  0  0  0  0  0  0  0
    1.0447   -7.3244    1.4123 C   0  0  0  0  0  0  0  0  0  0  0  0
    1.3746   -8.4389    1.0864 C   0  0  0  0  0  0  0  0  0  0  0  0
    1.8493   -9.4093    1.8124 C   0  0  0  0  0  0  0  0  0  0  0  0
    1.7421   -9.2119    3.1541 C   0  0  0  0  0  0  0  0  0  0  0  0
    2.0608  -10.3132    4.0586 C   0  0  0  0  0  0  0  0  0  0  0  0
    1.3103  -11.3806    4.2606 N   0  0  0  0  0  0  0  0  0  0  0  0
    1.7373   -8.6751   -0.3939 C   0  0  0  0  0  0  0  0  0  0  0  0
    0.7829   -8.5722   -1.1774 O   0  0  0  0  0  0  0  0  0  0  0  0
    2.9393   -8.8109   -0.9785 O   0  0  0  0  0  0  0  0  0  0  0  0
    3.3034  -10.3997    4.7393 O   0  0  0  0  0  0  0  0  0  0  0  0
    0.0744  -11.4440    3.6110 C   0  0  0  0  0  0  0  0  0  0  0  0
   -0.1434  -12.4989    2.7072 C   0  0  0  0  0  0  0  0  0  0  0  0
   -1.2820  -12.5754    2.0239 C   0  0  0  0  0  0  0  0  0  0  0  0
   -2.2587  -11.6175    2.2794 C   0  0  0  0  0  0  0  0  0  0  0  0
   -2.0640  -10.5677    3.1671 C   0  0  0  0  0  0  0  0  0  0  0  0
   -0.8300  -10.5030    3.8816 C   0  0  0  0  0  0  0  0  0  0  0  0
    0.8660  -13.5219    2.4902 O   0  0  0  0  0  0  0  0  0  0  0  0
  6  7  1  0
  7  8  1  0
  4  9  1  0
  9 10  2  0
  9 11  1  0
  7 12  2  0
  8 13  1  0
 14 19  1  0
  1  2  2  0
  2  3  1  0
  3  4  2  0
  4  5  1  0
  5  6  2  0
  1  6  1  0
 13 14  2  0
 14 15  1  0
 15 16  2  0
 16 17  1  0
 17 18  2  0
 13 18  1  0
M  END

$$$$
No_3372-/export/home/yangzhenyu/potential_scad_32_flow//YTHDC2/2024-12-06-03-22-00/
     RDKit          3D

 17 18  0  0  1  0  0  0  0  0999 V2000
    1.1787   -8.0297    3.5154 C   0  0  0  0  0  0  0  0  0  0  0  0
    1.0491   -6.8434    2.9820 C   0  0  0  0  0  0  0  0  0  0  0  0
    0.0950   -8.8404    3.2292 C   0  0  0  0  0  0  0  0  0  0  0  0
   -0.9173   -8.4596    2.5152 C   0  0  0  0  0  0  0  0  0  0  0  0
   -1.0331   -7.2162    2.0653 C   0  0  0  0  0  0  0  0  0  0  0  0
   -0.0105   -6.3168    2.3081 C   0  0  0  0  0  0  0  0  0  0  0  0
    0.1935  -10.3737    3.7416 C   0  0  0  0  0  0  0  0  0  0  0  0
    0.3534  -11.4163    2.8027 C   0  0  0  0  0  0  0  0  0  0  0  0
   -0.2231  -11.5566    1.8523 C   0  0  0  0  0  0  0  0  0  0  0  0
    0.1837  -12.7293    1.0851 C   0  0  0  0  0  0  0  0  0  0  0  0
    1.2645  -13.4430    1.8967 C   0  0  1  0  0  0  0  0  0  0  0  0
    1.4180  -12.5493    3.1039 C   0  0  0  0  0  0  0  0  0  0  0  0
    0.0590   -4.7709    1.8114 C   0  0  0  0  0  0  0  0  0  0  0  0
    1.9865  -14.5277    1.8734 C   0  0  0  0  0  0  0  0  0  0  0  0
    2.4633  -15.1766    1.1360 O   0  0  0  0  0  0  0  0  0  0  0  0
    2.3777  -15.0220    3.2419 O   0  0  0  0  0  0  0  0  0  0  0  0
   -0.3916   -4.6137    0.6673 Br  0  0  0  0  0  0  0  0  0  0  0  0
  3  7  1  0
  7  8  1  0
  8  9  1  0
  9 10  2  0
 10 11  1  0
  8 12  1  0
 11 12  1  0
  6 13  1  0
 11 14  1  1
 14 15  2  0
 14 16  1  0
 13 17  1  0
  1  2  2  0
  2  6  1  0
  5  6  2  0
  4  5  1  0
  3  4  2  0
  1  3  1  0
M  END

$$$$
No_3373-/export/home/yangzhenyu/potential_scad_32_flow//YTHDC2/2024-12-06-03-22-00/
     RDKit          3D

 19 19  0  0  0  0  0  0  0  0999 V2000
    1.1787   -8.0297    3.5154 C   0  0  0  0  0  0  0  0  0  0  0  0
    1.1048   -9.2215    3.2892 C   0  0  0  0  0  0  0  0  0  0  0  0
    1.3627  -10.1721    4.3044 C   0  0  0  0  0  0  0  0  0  0  0  0
    2.3720  -10.8948    4.2468 C   0  0  0  0  0  0  0  0  0  0  0  0
    1.0579   -7.0441    2.4219 C   0  0  0  0  0  0  0  0  0  0  0  0
    0.8578   -7.4970    1.1686 C   0  0  0  0  0  0  0  0  0  0  0  0
    0.7382   -8.7683    0.8754 C   0  0  0  0  0  0  0  0  0  0  0  0
    0.8882   -9.7347    1.9238 C   0  0  0  0  0  0  0  0  0  0  0  0
    0.9437  -11.0299    1.7005 C   0  0  0  0  0  0  0  0  0  0  0  0
   -0.0869  -11.8512    1.8957 O   0  0  0  0  0  0  0  0  0  0  0  0
    2.0237  -11.5609    1.0147 O   0  0  0  0  0  0  0  0  0  0  0  0
    1.1991   -5.3734    2.7365 O   0  0  0  0  0  0  0  0  0  0  0  0
    3.5371  -10.3834    5.0515 O   0  0  0  0  0  0  0  0  0  0  0  0
    0.5710   -9.1986   -0.4101 C   0  0  0  0  0  0  0  0  0  0  0  0
   -0.7772   -9.6090   -0.7805 O   0  0  0  0  0  0  0  0  0  0  0  0
    1.4506   -9.2316   -1.2941 O   0  0  0  0  0  0  0  0  0  0  0  0
    2.6316  -11.9950    3.7858 O   0  0  0  0  0  0  0  0  0  0  0  0
    0.6274   -4.6796    1.9417 C   0  0  0  0  0  0  0  0  0  0  0  0
    0.4680   -3.3469    2.6817 C   0  0  0  0  0  0  0  0  0  0  0  0
  2  3  1  0
  3  4  1  0
  8  9  1  0
  9 10  2  0
  9 11  1  0
  5 12  1  0
  4 13  1  0
  7 14  1  0
 14 15  2  0
 14 16  1  0
  4 17  2  0
 12 18  1  0
 18 19  1  0
  1  2  2  0
  2  8  1  0
  7  8  2  0
  6  7  1  0
  5  6  2  0
  1  5  1  0
M  END

$$$$
No_3374-/export/home/yangzhenyu/potential_scad_32_flow//YTHDC2/2024-12-06-03-22-00/
     RDKit          3D

 20 22  0  0  0  0  0  0  0  0999 V2000
    1.1787   -8.0297    3.5154 C   0  0  0  0  0  0  0  0  0  0  0  0
    1.1048   -9.2215    3.2892 C   0  0  0  0  0  0  0  0  0  0  0  0
    1.2339   -9.7611    2.0189 C   0  0  0  0  0  0  0  0  0  0  0  0
    1.3583   -9.0036    0.9764 C   0  0  0  0  0  0  0  0  0  0  0  0
    1.5996   -7.6362    1.1311 C   0  0  0  0  0  0  0  0  0  0  0  0
    1.4830   -7.0928    2.3626 C   0  0  0  0  0  0  0  0  0  0  0  0
    1.1008  -11.2372    1.8542 C   0  0  0  0  0  0  0  0  0  0  0  0
    1.9749  -12.0938    2.2342 C   0  0  0  0  0  0  0  0  0  0  0  0
    1.7533  -13.4231    1.8956 C   0  0  0  0  0  0  0  0  0  0  0  0
    0.8624  -13.8318    1.1071 C   0  0  0  0  0  0  0  0  0  0  0  0
   -0.0624  -12.9093    0.5581 C   0  0  0  0  0  0  0  0  0  0  0  0
    0.1157  -11.5285    0.9404 C   0  0  0  0  0  0  0  0  0  0  0  0
    1.5561   -5.6354    2.6426 N   0  0  0  0  0  0  0  0  0  0  0  0
   -0.8278  -10.6307    0.4883 C   0  0  0  0  0  0  0  0  0  0  0  0
   -1.9133  -10.3101    1.3419 C   0  0  0  0  0  0  0  0  0  0  0  0
   -2.7144   -9.1979    1.0751 C   0  0  0  0  0  0  0  0  0  0  0  0
   -2.5992   -8.5534   -0.0796 C   0  0  0  0  0  0  0  0  0  0  0  0
   -1.6120   -8.8578   -1.0156 C   0  0  0  0  0  0  0  0  0  0  0  0
   -0.7106   -9.9465   -0.7289 C   0  0  0  0  0  0  0  0  0  0  0  0
   -1.4466   -8.1304   -2.2680 O   0  0  0  0  0  0  0  0  0  0  0  0
  3  7  1  0
  6 13  1  0
 12 14  1  0
 18 20  1  0
  1  2  2  0
  2  3  1  0
  3  4  2  0
  4  5  1  0
  5  6  2  0
  1  6  1  0
  7  8  2  0
  8  9  1  0
  9 10  2  0
 10 11  1  0
 11 12  2  0
  7 12  1  0
 14 15  2  0
 15 16  1  0
 16 17  2  0
 17 18  1  0
 18 19  2  0
 14 19  1  0
M  END

$$$$
No_3375-/export/home/yangzhenyu/potential_scad_32_flow//YTHDC2/2024-12-06-03-22-00/
     RDKit          3D

 16 17  0  0  1  0  0  0  0  0999 V2000
    1.1787   -8.0297    3.5154 C   0  0  0  0  0  0  0  0  0  0  0  0
    1.1048   -9.2215    3.2892 C   0  0  0  0  0  0  0  0  0  0  0  0
    1.2339   -9.7611    2.0189 C   0  0  0  0  0  0  0  0  0  0  0  0
    1.3583   -9.0036    0.9764 C   0  0  0  0  0  0  0  0  0  0  0  0
    1.5996   -7.6362    1.1311 C   0  0  0  0  0  0  0  0  0  0  0  0
    1.4830   -7.0928    2.3626 C   0  0  0  0  0  0  0  0  0  0  0  0
    1.1171  -11.3311    1.8661 C   0  0  1  0  0  0  0  0  0  0  0  0
    0.5022  -11.6388    0.6531 N   0  0  0  0  0  0  0  0  0  0  0  0
    1.7354  -12.0497    2.6433 C   0  0  0  0  0  0  0  0  0  0  0  0
    1.6435  -13.4593    2.3328 C   0  0  1  0  0  0  0  0  0  0  0  0
    1.0194  -13.8711    1.1604 C   0  0  0  0  0  0  0  0  0  0  0  0
    0.4793  -12.9640    0.3188 C   0  0  0  0  0  0  0  0  0  0  0  0
    1.5371   -5.6367    2.6365 N   0  0  0  0  0  0  0  0  0  0  0  0
   -0.0850  -13.3483   -0.8025 O   0  0  0  0  0  0  0  0  0  0  0  0
    2.3332  -14.4827    3.3097 Cl  0  0  0  0  0  0  0  0  0  0  0  0
    1.0319   -4.7024    1.8990 O   0  0  0  0  0  0  0  0  0  0  0  0
  7  3  1  6
  7  8  1  0
  7  9  1  0
 10 11  1  0
  8 12  1  0
 11 12  1  0
  6 13  1  0
 12 14  2  0
 10 15  1  6
 13 16  2  0
  9 10  1  0
  1  2  2  0
  2  3  1  0
  3  4  2  0
  4  5  1  0
  5  6  2  0
  1  6  1  0
M  END

$$$$
No_3376-/export/home/yangzhenyu/potential_scad_32_flow//YTHDC2/2024-12-06-03-22-00/
     RDKit          3D

 19 20  0  0  1  0  0  0  0  0999 V2000
    1.1787   -8.0297    3.5154 C   0  0  0  0  0  0  0  0  0  0  0  0
    1.1048   -9.2215    3.2892 C   0  0  0  0  0  0  0  0  0  0  0  0
    1.2339   -9.7611    2.0189 C   0  0  0  0  0  0  0  0  0  0  0  0
    1.3583   -9.0036    0.9764 C   0  0  0  0  0  0  0  0  0  0  0  0
    1.5996   -7.6362    1.1311 C   0  0  0  0  0  0  0  0  0  0  0  0
    1.4830   -7.0928    2.3626 C   0  0  0  0  0  0  0  0  0  0  0  0
    1.1171  -11.3311    1.8661 C   0  0  2  0  0  0  0  0  0  0  0  0
    1.9975  -12.1095    2.2478 C   0  0  0  0  0  0  0  0  0  0  0  0
    1.7697  -13.4418    1.9079 C   0  0  1  0  0  0  0  0  0  0  0  0
    0.8824  -13.8563    1.1154 C   0  0  0  0  0  0  0  0  0  0  0  0
   -0.0664  -12.9335    0.5986 C   0  0  1  0  0  0  0  0  0  0  0  0
    0.1158  -11.5559    0.9634 C   0  0  0  0  0  0  0  0  0  0  0  0
    1.5514   -5.6395    2.6394 Cl  0  0  0  0  0  0  0  0  0  0  0  0
   -0.8325  -10.6742    0.5154 O   0  0  0  0  0  0  0  0  0  0  0  0
    2.7771  -14.3958    2.4276 O   0  0  0  0  0  0  0  0  0  0  0  0
    1.5825   -9.4329   -0.3603 I   0  0  0  0  0  0  0  0  0  0  0  0
    0.8788  -10.1520    4.4477 O   0  0  0  0  0  0  0  0  0  0  0  0
   -1.0777  -13.4082   -0.2739 C   0  0  0  0  0  0  0  0  0  0  0  0
   -1.1871  -14.4574   -0.4948 C   0  0  0  0  0  0  0  0  0  0  0  0
  7  3  1  6
  7  8  1  0
  9 10  1  0
  7 12  1  0
 11 12  1  0
  6 13  1  0
 12 14  2  0
  9 15  1  6
  4 16  1  0
  2 17  1  0
 11 18  1  6
 18 19  2  0
  8  9  1  0
 10 11  1  0
  1  2  2  0
  2  3  1  0
  3  4  2  0
  4  5  1  0
  5  6  2  0
  1  6  1  0
M  END

$$$$
No_3377-/export/home/yangzhenyu/potential_scad_32_flow//YTHDC2/2024-12-06-03-22-00/
     RDKit          3D

 19 19  0  0  1  0  0  0  0  0999 V2000
    1.1787   -8.0297    3.5154 O   0  0  0  0  0  0  0  0  0  0  0  0
    0.9969   -8.9689    3.0048 C   0  0  2  0  0  0  0  0  0  0  0  0
    0.9976   -8.9567    1.6341 C   0  0  0  0  0  0  0  0  0  0  0  0
    0.7663   -7.7728    1.0082 S   0  0  0  0  0  0  0  0  0  0  0  0
    1.1403   -6.7909    2.5843 C   0  0  1  0  0  0  0  0  0  0  0  0
    0.3865   -9.9294    3.7264 C   0  0  0  0  0  0  0  0  0  0  0  0
    1.0581  -11.2168    3.8012 C   0  0  0  0  0  0  0  0  0  0  0  0
    0.4191  -12.3324    3.3339 O   0  0  0  0  0  0  0  0  0  0  0  0
    2.0392  -11.4365    4.7472 O   0  0  0  0  0  0  0  0  0  0  0  0
    1.1639  -10.0776    0.8343 C   0  0  0  0  0  0  0  0  0  0  0  0
    2.2036  -11.0216    0.9261 O   0  0  0  0  0  0  0  0  0  0  0  0
    0.1456  -10.4755   -0.0533 N   0  0  0  0  0  0  0  0  0  0  0  0
    1.2568   -5.5460    2.8793 C   0  0  0  0  0  0  0  0  0  0  0  0
    1.1307   -4.5487    1.9065 C   0  0  0  0  0  0  0  0  0  0  0  0
    0.6560   -3.6022    1.9388 C   0  0  0  0  0  0  0  0  0  0  0  0
   -0.5037   -7.3888    0.7853 O   0  0  0  0  0  0  0  0  0  0  0  0
    1.8038   -7.2605    0.2116 O   0  0  0  0  0  0  0  0  0  0  0  0
    0.9352   -2.3496    1.1674 C   0  0  0  0  0  0  0  0  0  0  0  0
    0.2883   -1.1957    1.1722 C   0  0  0  0  0  0  0  0  0  0  0  0
  1  2  1  0
  2  3  1  0
  3  4  1  0
  5  1  1  1
  4  5  1  0
  2  6  1  1
  6  7  1  0
  7  8  1  0
  7  9  2  0
  3 10  1  0
 10 11  2  0
 10 12  1  0
  5 13  1  0
 13 14  2  3
 14 15  1  0
  4 16  2  0
  4 17  2  0
 15 18  2  3
 18 19  1  0
M  END

$$$$
No_3378-/export/home/yangzhenyu/potential_scad_32_flow//YTHDC2/2024-12-06-03-22-00/
     RDKit          3D

 20 20  0  0  1  0  0  0  0  0999 V2000
    1.1787   -8.0297    3.5154 C   0  0  0  0  0  0  0  0  0  0  0  0
    1.0491   -6.8434    2.9820 C   0  0  0  0  0  0  0  0  0  0  0  0
    1.9985   -8.9840    2.8958 C   0  0  0  0  0  0  0  0  0  0  0  0
    1.9135  -10.3404    3.6266 C   0  0  2  0  0  0  0  0  0  0  0  0
    0.7479  -10.9191    3.7202 C   0  0  0  0  0  0  0  0  0  0  0  0
    1.3327   -6.5751    1.7543 C   0  0  0  0  0  0  0  0  0  0  0  0
    0.0662  -11.2678    2.6662 Cl  0  0  0  0  0  0  0  0  0  0  0  0
    1.8083   -7.6555    0.9528 C   0  0  0  0  0  0  0  0  0  0  0  0
    2.0971   -8.8292    1.4295 C   0  0  0  0  0  0  0  0  0  0  0  0
    0.9737   -5.3061    0.9908 O   0  0  0  0  0  0  0  0  0  0  0  0
    1.1359   -4.1935    1.7694 C   0  0  0  0  0  0  0  0  0  0  0  0
    2.7094   -9.7554    0.6554 C   0  0  0  0  0  0  0  0  0  0  0  0
    2.4708   -9.7193   -0.5774 O   0  0  0  0  0  0  0  0  0  0  0  0
    2.9868  -10.9955    1.1307 O   0  0  0  0  0  0  0  0  0  0  0  0
    2.7741  -10.0889    4.9391 C   0  0  0  0  0  0  0  0  0  0  0  0
    3.6711  -11.1506    5.1701 N   0  0  0  0  0  0  0  0  0  0  0  0
    0.3558  -11.2258    4.9756 O   0  0  0  0  0  0  0  0  0  0  0  0
    0.0432   -3.3994    2.0308 C   0  0  0  0  0  0  0  0  0  0  0  0
    0.0299   -2.5111    2.9577 C   0  0  0  0  0  0  0  0  0  0  0  0
    1.3315   -2.1566    3.5416 C   0  0  0  0  0  0  0  0  0  0  0  0
  3  4  1  0
  4  5  1  0
  5  7  1  0
  6 10  1  0
 10 11  1  0
  9 12  1  0
 12 13  1  0
 12 14  2  0
  4 15  1  1
 15 16  1  0
  5 17  2  0
 11 18  1  0
 18 19  2  3
 19 20  1  0
  1  2  2  0
  2  6  1  0
  6  8  2  0
  8  9  1  0
  3  9  2  0
  1  3  1  0
M  END

$$$$
No_3379-/export/home/yangzhenyu/potential_scad_32_flow//YTHDC2/2024-12-06-03-22-00/
     RDKit          3D

 18 19  0  0  1  0  0  0  0  0999 V2000
    1.1787   -8.0297    3.5154 C   0  0  0  0  0  0  0  0  0  0  0  0
    1.1048   -9.2215    3.2892 C   0  0  0  0  0  0  0  0  0  0  0  0
    1.2339   -9.7611    2.0189 C   0  0  1  0  0  0  0  0  0  0  0  0
    1.1954  -11.2312    1.8661 C   0  0  2  0  0  0  0  0  0  0  0  0
    1.5546  -12.1691    2.7931 C   0  0  0  0  0  0  0  0  0  0  0  0
    0.9527   -7.0669    2.3918 C   0  0  2  0  0  0  0  0  0  0  0  0
    1.0618   -7.6392    1.0692 C   0  0  0  0  0  0  0  0  0  0  0  0
    1.2060   -8.9530    0.8578 C   0  0  0  0  0  0  0  0  0  0  0  0
    1.5159  -13.5011    2.3738 N   0  0  0  0  0  0  0  0  0  0  0  0
    0.9800   -5.5081    2.4633 C   0  0  0  0  0  0  0  0  0  0  0  0
    1.2902  -13.7285    1.1211 C   0  0  1  0  0  0  0  0  0  0  0  0
    1.1344  -12.8875    0.1633 N   0  0  0  0  0  0  0  0  0  0  0  0
    1.0536  -11.6161    0.5205 C   0  0  0  0  0  0  0  0  0  0  0  0
    1.8759  -11.8643    4.0292 O   0  0  0  0  0  0  0  0  0  0  0  0
    0.3856   -4.8614    1.5933 O   0  0  0  0  0  0  0  0  0  0  0  0
    1.6025   -5.0283    3.4969 O   0  0  0  0  0  0  0  0  0  0  0  0
    1.9130   -9.1796   -0.2120 O   0  0  0  0  0  0  0  0  0  0  0  0
    1.4357  -15.1442    0.8272 C   0  0  0  0  0  0  0  0  0  0  0  0
  1  2  1  0
  3  4  1  0
  4  5  1  0
  6  7  1  0
  3  8  1  0
  7  8  1  0
  5  9  1  0
  6 10  1  6
 11 12  1  0
  4 13  1  6
 12 13  1  0
  5 14  2  0
 10 15  2  0
 10 16  1  0
  8 17  2  0
 11 18  1  6
  9 11  1  0
  3  2  1  1
  1  6  1  0
M  END

$$$$
No_3380-/export/home/yangzhenyu/potential_scad_32_flow//YTHDC2/2024-12-06-03-22-00/
     RDKit          3D

 18 19  0  0  1  0  0  0  0  0999 V2000
    1.1787   -8.0297    3.5154 C   0  0  0  0  0  0  0  0  0  0  0  0
    1.1048   -9.2215    3.2892 C   0  0  0  0  0  0  0  0  0  0  0  0
    1.2339   -9.7611    2.0189 C   0  0  0  0  0  0  0  0  0  0  0  0
    1.3583   -9.0036    0.9764 C   0  0  0  0  0  0  0  0  0  0  0  0
    1.5996   -7.6362    1.1311 C   0  0  0  0  0  0  0  0  0  0  0  0
    1.4830   -7.0928    2.3626 C   0  0  0  0  0  0  0  0  0  0  0  0
    1.5395   -5.7300    2.6182 C   0  0  0  0  0  0  0  0  0  0  0  0
    1.1775  -11.2233    1.8407 C   0  0  0  0  0  0  0  0  0  0  0  0
    1.9057  -12.1147    2.3397 C   0  0  0  0  0  0  0  0  0  0  0  0
    1.6867  -13.4551    2.0621 C   0  0  2  0  0  0  0  0  0  0  0  0
    0.7025  -13.8511    1.3021 C   0  0  0  0  0  0  0  0  0  0  0  0
   -0.0316  -12.4995    0.8276 C   0  0  0  0  0  0  0  0  0  0  0  0
    0.1725  -11.5173    0.9644 C   0  0  0  0  0  0  0  0  0  0  0  0
    1.2802   -4.8033    1.6972 C   0  0  0  0  0  0  0  0  0  0  0  0
    1.2262   -3.3706    1.9431 N   0  0  0  0  0  0  0  0  0  0  0  0
    2.5848  -14.6081    2.8538 Cl  0  0  0  0  0  0  0  0  0  0  0  0
   -0.6328  -10.5666    0.3717 O   0  0  0  0  0  0  0  0  0  0  0  0
    0.7411   -2.9610    2.8127 O   0  0  0  0  0  0  0  0  0  0  0  0
  6  7  1  0
  3  8  1  0
  8  9  1  0
 10 11  1  0
  8 13  1  0
 12 13  1  0
  7 14  2  3
 14 15  1  0
 10 16  1  1
 13 17  2  0
 15 18  2  0
  9 10  1  0
 11 12  1  0
  1  2  2  0
  2  3  1  0
  3  4  2  0
  4  5  1  0
  5  6  2  0
  1  6  1  0
M  END

$$$$
No_3381-/export/home/yangzhenyu/potential_scad_32_flow//YTHDC2/2024-12-06-03-22-00/
     RDKit          3D

 18 18  0  0  1  0  0  0  0  0999 V2000
    1.1787   -8.0297    3.5154 C   0  0  0  0  0  0  0  0  0  0  0  0
    1.0491   -6.8434    2.9820 C   0  0  0  0  0  0  0  0  0  0  0  0
    0.9905   -9.0774    2.6527 C   0  0  1  0  0  0  0  0  0  0  0  0
    1.1655  -10.4663    3.1286 C   0  0  2  0  0  0  0  0  0  0  0  0
    1.7409  -10.6480    4.4599 C   0  0  0  0  0  0  0  0  0  0  0  0
    0.4783   -6.4688    1.7590 N   0  0  0  0  0  0  0  0  0  0  0  0
    0.2499   -7.5714    1.0203 C   0  0  0  0  0  0  0  0  0  0  0  0
    0.4213   -8.8488    1.2897 C   0  0  0  0  0  0  0  0  0  0  0  0
    1.0420  -11.5045    2.3042 C   0  0  0  0  0  0  0  0  0  0  0  0
    1.8369  -11.6442    1.2895 C   0  0  0  0  0  0  0  0  0  0  0  0
   -0.2114   -7.3566   -0.2610 O   0  0  0  0  0  0  0  0  0  0  0  0
    2.6494  -10.7777    0.8610 O   0  0  0  0  0  0  0  0  0  0  0  0
    1.8977  -12.8497    0.6713 O   0  0  0  0  0  0  0  0  0  0  0  0
    2.8217  -11.4487    4.5977 N   0  0  0  0  0  0  0  0  0  0  0  0
    0.0677  -12.3474    2.5141 C   0  0  0  0  0  0  0  0  0  0  0  0
   -0.7308  -12.7191    2.0034 C   0  0  0  0  0  0  0  0  0  0  0  0
   -1.7814  -13.8070    1.9943 C   0  0  0  0  0  0  0  0  0  0  0  0
   -2.9740  -13.5610    2.2948 C   0  0  0  0  0  0  0  0  0  0  0  0
  1  2  1  0
  3  4  1  0
  4  5  1  6
  6  7  1  0
  3  8  1  1
  7  8  1  0
  4  9  1  0
  9 10  1  0
  7 11  2  0
 10 12  2  0
 10 13  1  0
  5 14  1  0
  9 15  1  0
 15 16  2  3
 16 17  1  0
 17 18  2  0
  2  6  1  0
  1  3  1  0
M  END

$$$$
No_3382-/export/home/yangzhenyu/potential_scad_32_flow//YTHDC2/2024-12-06-03-22-00/
     RDKit          3D

 19 19  0  0  1  0  0  0  0  0999 V2000
    1.1787   -8.0297    3.5154 C   0  0  0  0  0  0  0  0  0  0  0  0
    1.1048   -9.2215    3.2892 C   0  0  0  0  0  0  0  0  0  0  0  0
    1.2339   -9.7611    2.0189 C   0  0  0  0  0  0  0  0  0  0  0  0
    1.3583   -9.0036    0.9764 C   0  0  0  0  0  0  0  0  0  0  0  0
    1.7077   -9.6100   -0.3011 C   0  0  0  0  0  0  0  0  0  0  0  0
    1.3637   -7.1087    2.3226 C   0  0  0  0  0  0  0  0  0  0  0  0
    1.4257   -7.6645    1.0231 C   0  0  0  0  0  0  0  0  0  0  0  0
    1.9364   -8.8976   -1.3212 O   0  0  0  0  0  0  0  0  0  0  0  0
    1.2982  -10.7764   -0.4341 O   0  0  0  0  0  0  0  0  0  0  0  0
    1.1272  -10.3140    4.5770 Cl  0  0  0  0  0  0  0  0  0  0  0  0
    1.3226   -5.3788    2.6189 Cl  0  0  0  0  0  0  0  0  0  0  0  0
    1.2667  -11.1479    1.9066 O   0  0  0  0  0  0  0  0  0  0  0  0
    2.3136  -11.8124    2.0061 C   0  0  0  0  0  0  0  0  0  0  0  0
    2.0486  -13.3087    2.1577 C   0  0  2  0  0  0  0  0  0  0  0  0
    2.0956  -14.1008    1.0577 C   0  0  0  0  0  0  0  0  0  0  0  0
    1.8421  -13.7643    0.1010 C   0  0  0  0  0  0  0  0  0  0  0  0
    0.5913  -13.3319    2.6890 C   0  0  0  0  0  0  0  0  0  0  0  0
   -0.0046  -14.7225    2.3723 C   0  0  0  0  0  0  0  0  0  0  0  0
    0.4679  -15.8148    3.0005 C   0  0  0  0  0  0  0  0  0  0  0  0
  4  5  1  0
  5  8  1  0
  5  9  2  0
  2 10  1  0
  6 11  1  0
  3 12  1  0
 12 13  1  0
 14 13  1  6
 14 15  1  0
 15 16  1  0
 14 17  1  0
 17 18  1  0
 18 19  1  0
  1  2  2  0
  2  3  1  0
  3  4  2  0
  4  7  1  0
  6  7  2  0
  1  6  1  0
M  END

$$$$
No_3383-/export/home/yangzhenyu/potential_scad_32_flow//YTHDC2/2024-12-06-03-22-00/
     RDKit          3D

 18 18  0  0  0  0  0  0  0  0999 V2000
    1.1787   -8.0297    3.5154 C   0  0  0  0  0  0  0  0  0  0  0  0
    1.0491   -6.8434    2.9820 C   0  0  0  0  0  0  0  0  0  0  0  0
    0.9905   -9.0774    2.6527 C   0  0  0  0  0  0  0  0  0  0  0  0
    0.7897   -8.9519    1.3691 C   0  0  0  0  0  0  0  0  0  0  0  0
    0.7018   -7.7198    0.7892 C   0  0  0  0  0  0  0  0  0  0  0  0
    0.8918   -6.5957    1.6117 C   0  0  0  0  0  0  0  0  0  0  0  0
    1.0998  -10.4710    3.2437 C   0  0  0  0  0  0  0  0  0  0  0  0
    1.3102  -11.5554    2.5214 C   0  0  0  0  0  0  0  0  0  0  0  0
    1.4257  -12.8124    3.1919 C   0  0  0  0  0  0  0  0  0  0  0  0
    0.9222  -13.9339    2.5039 C   0  0  0  0  0  0  0  0  0  0  0  0
    1.2953  -15.2608    3.1588 O   0  0  0  0  0  0  0  0  0  0  0  0
    0.8725   -5.2630    1.2043 C   0  0  0  0  0  0  0  0  0  0  0  0
    1.5435   -4.3466    1.8906 N   0  0  0  0  0  0  0  0  0  0  0  0
    0.8542  -16.3744    2.9185 C   0  0  0  0  0  0  0  0  0  0  0  0
    0.4822   -5.0174    0.0536 O   0  0  0  0  0  0  0  0  0  0  0  0
    1.5727   -2.9928    1.4800 C   0  0  0  0  0  0  0  0  0  0  0  0
    0.2338  -14.1754    1.5136 C   0  0  0  0  0  0  0  0  0  0  0  0
   -0.3126  -15.3795    1.0504 C   0  0  0  0  0  0  0  0  0  0  0  0
  3  7  1  0
  7  8  2  3
  8  9  1  0
  9 10  1  0
 10 11  1  0
  6 12  1  0
 12 13  1  0
 11 14  1  0
 12 15  2  0
 13 16  1  0
 10 17  1  0
 17 18  2  0
  1  2  2  0
  2  6  1  0
  5  6  2  0
  4  5  1  0
  3  4  2  0
  1  3  1  0
M  END

$$$$
No_3384-/export/home/yangzhenyu/potential_scad_32_flow//YTHDC2/2024-12-06-03-22-00/
     RDKit          3D

 13 13  0  0  0  0  0  0  0  0999 V2000
    1.1787   -8.0297    3.5154 C   0  0  0  0  0  0  0  0  0  0  0  0
    1.1048   -9.2215    3.2892 C   0  0  0  0  0  0  0  0  0  0  0  0
    1.2339   -9.7611    2.0189 C   0  0  0  0  0  0  0  0  0  0  0  0
    1.3583   -9.0036    0.9764 C   0  0  0  0  0  0  0  0  0  0  0  0
    1.5996   -7.6362    1.1311 C   0  0  0  0  0  0  0  0  0  0  0  0
    1.4830   -7.0928    2.3626 C   0  0  0  0  0  0  0  0  0  0  0  0
    1.4898   -5.7274    2.6199 C   0  0  0  0  0  0  0  0  0  0  0  0
    1.1882  -11.3736    1.8424 C   0  0  0  0  0  0  0  0  0  0  0  0
    1.0670  -11.6643    0.5390 O   0  0  0  0  0  0  0  0  0  0  0  0
    1.8139  -12.0486    2.6751 N   0  0  0  0  0  0  0  0  0  0  0  0
    1.7763  -13.4334    2.5805 C   0  0  0  0  0  0  0  0  0  0  0  0
    2.4658  -14.0988    1.6592 C   0  0  0  0  0  0  0  0  0  0  0  0
    1.2447   -4.8638    1.6168 O   0  0  0  0  0  0  0  0  0  0  0  0
  6  7  1  0
  3  8  1  0
  8  9  2  0
  8 10  1  0
 10 11  1  0
 11 12  1  0
  7 13  1  0
  1  2  2  0
  2  3  1  0
  3  4  2  0
  4  5  1  0
  5  6  2  0
  1  6  1  0
M  END

$$$$
No_3385-/export/home/yangzhenyu/potential_scad_32_flow//YTHDC2/2024-12-06-03-22-00/
     RDKit          3D

 19 20  0  0  1  0  0  0  0  0999 V2000
    1.1787   -8.0297    3.5154 C   0  0  0  0  0  0  0  0  0  0  0  0
    1.0491   -6.8434    2.9820 C   0  0  1  0  0  0  0  0  0  0  0  0
    0.9905   -9.0774    2.6527 C   0  0  1  0  0  0  0  0  0  0  0  0
    0.7897   -8.9519    1.3691 C   0  0  0  0  0  0  0  0  0  0  0  0
    0.7018   -7.7198    0.7892 C   0  0  0  0  0  0  0  0  0  0  0  0
    1.4312   -5.5794    3.7443 C   0  0  0  0  0  0  0  0  0  0  0  0
    0.9426   -6.6664    1.5322 C   0  0  0  0  0  0  0  0  0  0  0  0
    0.9111   -5.4001    1.0251 O   0  0  0  0  0  0  0  0  0  0  0  0
    1.1429  -10.7536    3.3072 C   0  0  0  0  0  0  0  0  0  0  0  0
   -0.0421  -11.2146    3.5442 C   0  0  0  0  0  0  0  0  0  0  0  0
   -1.1277  -10.4431    3.9413 C   0  0  0  0  0  0  0  0  0  0  0  0
   -2.3238  -10.9034    4.1871 C   0  0  0  0  0  0  0  0  0  0  0  0
   -2.5324  -12.1868    3.7210 C   0  0  0  0  0  0  0  0  0  0  0  0
   -1.6628  -12.9260    3.0857 C   0  0  0  0  0  0  0  0  0  0  0  0
   -0.3287  -12.4345    2.9265 C   0  0  0  0  0  0  0  0  0  0  0  0
    0.7218  -13.1588    2.4115 C   0  0  2  0  0  0  0  0  0  0  0  0
    0.9553  -13.1910    1.1270 C   0  0  0  0  0  0  0  0  0  0  0  0
    1.4995  -14.1058    3.2322 C   0  0  0  0  0  0  0  0  0  0  0  0
    2.3425  -15.0013    2.5338 C   0  0  0  0  0  0  0  0  0  0  0  0
  1  2  1  0
  3  4  1  0
  2  6  1  6
  2  7  1  0
  5  7  1  0
  7  8  2  0
  3  9  1  6
  9 10  1  0
 15 16  1  0
 16 17  1  6
 16 18  1  0
 18 19  1  0
  1  3  1  0
  4  5  1  0
 10 11  2  0
 11 12  1  0
 12 13  2  0
 13 14  1  0
 14 15  2  0
 10 15  1  0
M  END

$$$$
No_3386-/export/home/yangzhenyu/potential_scad_32_flow//YTHDC2/2024-12-06-03-22-00/
     RDKit          3D

 19 21  0  0  0  0  0  0  0  0999 V2000
    1.1787   -8.0297    3.5154 C   0  0  0  0  0  0  0  0  0  0  0  0
    1.1048   -9.2215    3.2892 C   0  0  0  0  0  0  0  0  0  0  0  0
    1.3627  -10.1721    4.3044 C   0  0  0  0  0  0  0  0  0  0  0  0
    1.0682  -11.5187    4.0618 C   0  0  0  0  0  0  0  0  0  0  0  0
    0.6332  -11.9655    2.9682 C   0  0  0  0  0  0  0  0  0  0  0  0
    0.4776  -11.1308    1.9203 C   0  0  0  0  0  0  0  0  0  0  0  0
    0.7470   -9.8274    2.0368 C   0  0  0  0  0  0  0  0  0  0  0  0
    1.0387   -7.0301    2.5175 N   0  0  0  0  0  0  0  0  0  0  0  0
    0.9298   -7.5514    1.2672 C   0  0  0  0  0  0  0  0  0  0  0  0
    0.7824   -8.7713    0.9713 C   0  0  0  0  0  0  0  0  0  0  0  0
    0.3857  -13.5895    2.6857 C   0  0  0  0  0  0  0  0  0  0  0  0
    0.8247  -14.0476    1.6018 C   0  0  0  0  0  0  0  0  0  0  0  0
    1.4160  -15.2845    1.7484 C   0  0  0  0  0  0  0  0  0  0  0  0
    0.9811  -16.1664    2.7785 C   0  0  0  0  0  0  0  0  0  0  0  0
    0.5193  -15.5004    3.9716 C   0  0  0  0  0  0  0  0  0  0  0  0
    0.2486  -14.2027    3.9309 C   0  0  0  0  0  0  0  0  0  0  0  0
    0.5309   -9.2174   -0.3522 C   0  0  0  0  0  0  0  0  0  0  0  0
   -0.2480   -8.5883   -1.0492 O   0  0  0  0  0  0  0  0  0  0  0  0
    0.8711  -10.2937   -0.8723 Cl  0  0  0  0  0  0  0  0  0  0  0  0
  5 11  1  0
 10 17  1  0
 17 18  2  0
 17 19  1  0
 11 12  2  0
 12 13  1  0
 13 14  2  0
 14 15  1  0
 15 16  2  0
 11 16  1  0
  2  3  1  0
  3  4  2  0
  4  5  1  0
  5  6  2  0
  6  7  1  0
  1  2  2  0
  2  7  1  0
  7 10  2  0
  9 10  1  0
  8  9  2  0
  1  8  1  0
M  END

$$$$
No_3387-/export/home/yangzhenyu/potential_scad_32_flow//YTHDC2/2024-12-06-03-22-00/
     RDKit          3D

 18 19  0  0  0  0  0  0  0  0999 V2000
    1.1787   -8.0297    3.5154 C   0  0  0  0  0  0  0  0  0  0  0  0
    1.1048   -9.2215    3.2892 C   0  0  0  0  0  0  0  0  0  0  0  0
    1.3627  -10.1721    4.3044 C   0  0  0  0  0  0  0  0  0  0  0  0
    1.0682  -11.5187    4.0618 C   0  0  0  0  0  0  0  0  0  0  0  0
    0.6332  -11.9655    2.9682 C   0  0  0  0  0  0  0  0  0  0  0  0
    0.4776  -11.1308    1.9203 C   0  0  0  0  0  0  0  0  0  0  0  0
    0.7470   -9.8274    2.0368 C   0  0  0  0  0  0  0  0  0  0  0  0
    0.5535   -7.1314    2.6861 C   0  0  0  0  0  0  0  0  0  0  0  0
    0.7497   -5.5830    2.7890 C   0  0  0  0  0  0  0  0  0  0  0  0
    0.2246   -4.7827    1.8039 C   0  0  0  0  0  0  0  0  0  0  0  0
    0.6741   -3.5934    1.6305 C   0  0  0  0  0  0  0  0  0  0  0  0
    1.8940   -3.1877    2.3058 C   0  0  0  0  0  0  0  0  0  0  0  0
    2.4638   -3.9729    3.2798 C   0  0  0  0  0  0  0  0  0  0  0  0
    1.9275   -5.2407    3.4778 C   0  0  0  0  0  0  0  0  0  0  0  0
    0.3475  -13.3336    2.7051 C   0  0  0  0  0  0  0  0  0  0  0  0
    1.2949  -14.3234    3.1880 C   0  0  0  0  0  0  0  0  0  0  0  0
    1.4440  -15.5506    2.5422 C   0  0  0  0  0  0  0  0  0  0  0  0
    2.3770  -15.6764    1.7247 C   0  0  0  0  0  0  0  0  0  0  0  0
  1  2  1  0
  1  8  2  3
  8  9  1  0
  5 15  1  0
 15 16  1  0
 16 17  1  0
 17 18  1  0
  2  3  2  0
  3  4  1  0
  4  5  2  0
  5  6  1  0
  6  7  2  0
  2  7  1  0
  9 10  2  0
 10 11  1  0
 11 12  2  0
 12 13  1  0
 13 14  2  0
  9 14  1  0
M  END

$$$$
No_3388-/export/home/yangzhenyu/potential_scad_32_flow//YTHDC2/2024-12-06-03-22-00/
     RDKit          3D

 19 20  0  0  1  0  0  0  0  0999 V2000
    1.1787   -8.0297    3.5154 C   0  0  0  0  0  0  0  0  0  0  0  0
    1.0491   -6.8434    2.9820 C   0  0  0  0  0  0  0  0  0  0  0  0
    0.9905   -9.0774    2.6527 C   0  0  0  0  0  0  0  0  0  0  0  0
    0.7897   -8.9519    1.3691 C   0  0  0  0  0  0  0  0  0  0  0  0
    0.7018   -7.7198    0.7892 C   0  0  0  0  0  0  0  0  0  0  0  0
    0.8918   -6.5957    1.6117 C   0  0  0  0  0  0  0  0  0  0  0  0
    1.0998  -10.4710    3.2437 C   0  0  0  0  0  0  0  0  0  0  0  0
    2.1917  -10.8879    3.7399 C   0  0  0  0  0  0  0  0  0  0  0  0
    0.8983   -5.2566    1.2088 O   0  0  0  0  0  0  0  0  0  0  0  0
   -0.0200  -11.2248    3.3627 C   0  0  0  0  0  0  0  0  0  0  0  0
   -0.0780  -12.5021    3.1735 C   0  0  0  0  0  0  0  0  0  0  0  0
    1.2166  -13.1278    2.9672 C   0  0  0  0  0  0  0  0  0  0  0  0
    2.4119  -12.2526    3.3954 C   0  0  0  0  0  0  0  0  0  0  0  0
    1.5029  -14.3177    2.5682 C   0  0  1  0  0  0  0  0  0  0  0  0
    2.7032  -14.8888    2.3809 C   0  0  0  0  0  0  0  0  0  0  0  0
    0.4128  -15.2468    2.5684 C   0  0  0  0  0  0  0  0  0  0  0  0
    2.7685  -16.3142    2.1375 N   0  0  0  0  0  0  0  0  0  0  0  0
    0.5656  -16.6251    2.5107 C   0  0  0  0  0  0  0  0  0  0  0  0
    1.9200  -16.8614    2.1109 H   0  0  0  0  0  0  0  0  0  0  0  0
  1  2  1  0
  3  4  1  0
  2  6  1  0
  5  6  1  0
  3  7  1  0
  6  9  2  0
 12 14  1  0
 14 15  1  0
 14 16  1  1
 15 17  2  0
 16 18  2  0
  1  3  1  0
  4  5  1  0
  7  8  2  0
  8 13  1  0
 12 13  2  0
 11 12  1  0
 10 11  2  0
  7 10  1  0
 17 19  1  0
M  END

$$$$
No_3389-/export/home/yangzhenyu/potential_scad_32_flow//YTHDC2/2024-12-06-03-22-00/
     RDKit          3D

 19 20  0  0  0  0  0  0  0  0999 V2000
    1.1787   -8.0297    3.5154 C   0  0  0  0  0  0  0  0  0  0  0  0
    1.1048   -9.2215    3.2892 C   0  0  0  0  0  0  0  0  0  0  0  0
    1.3627  -10.1721    4.3044 C   0  0  0  0  0  0  0  0  0  0  0  0
    1.0682  -11.5187    4.0618 C   0  0  0  0  0  0  0  0  0  0  0  0
    0.6332  -11.9655    2.9682 C   0  0  0  0  0  0  0  0  0  0  0  0
    0.4776  -11.1308    1.9203 C   0  0  0  0  0  0  0  0  0  0  0  0
    0.7470   -9.8274    2.0368 C   0  0  0  0  0  0  0  0  0  0  0  0
    1.0387   -7.0301    2.5175 C   0  0  0  0  0  0  0  0  0  0  0  0
    0.9130   -7.5288    1.2013 C   0  0  0  0  0  0  0  0  0  0  0  0
    0.7893   -8.7979    0.9542 C   0  0  0  0  0  0  0  0  0  0  0  0
    0.5241   -9.2578   -0.2817 C   0  0  0  0  0  0  0  0  0  0  0  0
   -0.7560   -9.7391   -0.6285 O   0  0  0  0  0  0  0  0  0  0  0  0
    1.1160   -8.6749   -1.3392 N   0  0  0  0  0  0  0  0  0  0  0  0
    0.4880  -13.6269    2.6708 C   0  0  0  0  0  0  0  0  0  0  0  0
   -0.5859  -14.0201    2.5769 O   0  0  0  0  0  0  0  0  0  0  0  0
    1.6509  -14.2697    2.7310 O   0  0  0  0  0  0  0  0  0  0  0  0
    1.3053   -5.5999    2.6914 C   0  0  0  0  0  0  0  0  0  0  0  0
    1.4469   -5.1601    3.9135 O   0  0  0  0  0  0  0  0  0  0  0  0
    1.1622   -4.8047    1.7351 O   0  0  0  0  0  0  0  0  0  0  0  0
 10 11  1  0
 11 12  2  0
 11 13  1  0
  5 14  1  0
 14 15  2  0
 14 16  1  0
  8 17  1  0
 17 18  1  0
 17 19  2  0
  2  3  1  0
  3  4  2  0
  4  5  1  0
  5  6  2  0
  6  7  1  0
  1  2  2  0
  2  7  1  0
  7 10  2  0
  9 10  1  0
  8  9  2  0
  1  8  1  0
M  END

$$$$
No_3390-/export/home/yangzhenyu/potential_scad_32_flow//YTHDC2/2024-12-06-03-22-00/
     RDKit          3D

 17 18  0  0  0  0  0  0  0  0999 V2000
    1.1787   -8.0297    3.5154 C   0  0  0  0  0  0  0  0  0  0  0  0
    1.0491   -6.8434    2.9820 C   0  0  0  0  0  0  0  0  0  0  0  0
    0.0950   -8.8404    3.2292 C   0  0  0  0  0  0  0  0  0  0  0  0
   -0.9173   -8.4596    2.5152 C   0  0  0  0  0  0  0  0  0  0  0  0
   -1.0331   -7.2162    2.0653 C   0  0  0  0  0  0  0  0  0  0  0  0
   -0.0105   -6.3168    2.3081 C   0  0  0  0  0  0  0  0  0  0  0  0
    0.1465  -10.2446    3.6981 C   0  0  0  0  0  0  0  0  0  0  0  0
    1.2433  -10.8239    4.0166 C   0  0  0  0  0  0  0  0  0  0  0  0
    1.0790  -12.2885    4.3779 C   0  0  0  0  0  0  0  0  0  0  0  0
    2.1319  -12.9766    3.6042 C   0  0  0  0  0  0  0  0  0  0  0  0
    1.5239  -13.7275    2.3996 C   0  0  0  0  0  0  0  0  0  0  0  0
    0.9184  -13.0993    1.5666 C   0  0  0  0  0  0  0  0  0  0  0  0
   -0.2741  -13.5643    1.1137 C   0  0  0  0  0  0  0  0  0  0  0  0
   -0.5337  -14.8986    1.2408 C   0  0  0  0  0  0  0  0  0  0  0  0
    0.2362  -15.6448    2.0836 C   0  0  0  0  0  0  0  0  0  0  0  0
    1.3439  -15.1010    2.6769 C   0  0  0  0  0  0  0  0  0  0  0  0
   -0.0874   -5.0246    1.8858 Cl  0  0  0  0  0  0  0  0  0  0  0  0
  3  7  1  0
  7  8  2  3
  8  9  1  0
  9 10  1  0
 10 11  1  0
  6 17  1  0
 11 12  2  0
 12 13  1  0
 13 14  2  0
 14 15  1  0
 15 16  2  0
 11 16  1  0
  1  2  2  0
  2  6  1  0
  5  6  2  0
  4  5  1  0
  3  4  2  0
  1  3  1  0
M  END

$$$$
No_3391-/export/home/yangzhenyu/potential_scad_32_flow//YTHDC2/2024-12-06-03-22-00/
     RDKit          3D

 16 17  0  0  0  0  0  0  0  0999 V2000
    1.1787   -8.0297    3.5154 C   0  0  0  0  0  0  0  0  0  0  0  0
    1.0491   -6.8434    2.9820 C   0  0  0  0  0  0  0  0  0  0  0  0
    0.9905   -9.0774    2.6527 C   0  0  0  0  0  0  0  0  0  0  0  0
    1.1655  -10.4663    3.1286 C   0  0  0  0  0  0  0  0  0  0  0  0
    1.2197  -11.4898    2.5831 C   0  0  0  0  0  0  0  0  0  0  0  0
    1.0589  -11.4458    1.1293 C   0  0  0  0  0  0  0  0  0  0  0  0
    0.9638  -10.3069    0.4651 C   0  0  0  0  0  0  0  0  0  0  0  0
    0.9191   -9.0789    1.1942 C   0  0  0  0  0  0  0  0  0  0  0  0
    0.9198   -7.8339    0.6158 C   0  0  0  0  0  0  0  0  0  0  0  0
    1.0184   -6.6904    1.4953 C   0  0  0  0  0  0  0  0  0  0  0  0
    1.3445  -12.8198    3.0746 C   0  0  0  0  0  0  0  0  0  0  0  0
    0.2302  -13.7310    2.9230 C   0  0  0  0  0  0  0  0  0  0  0  0
    0.6685  -15.1306    3.2293 C   0  0  0  0  0  0  0  0  0  0  0  0
    1.9693  -15.5459    2.8322 O   0  0  0  0  0  0  0  0  0  0  0  0
   -0.1293  -16.1067    3.3123 I   0  0  0  0  0  0  0  0  0  0  0  0
    1.3835   -5.5890    3.6190 O   0  0  0  0  0  0  0  0  0  0  0  0
  1  2  1  0
  8  9  1  0
  2 10  1  0
  5 11  1  0
 11 12  1  0
 12 13  1  0
 13 14  2  0
 13 15  1  0
  2 16  2  0
  1  3  1  0
  9 10  1  0
  3  4  2  0
  4  5  1  0
  5  6  2  0
  6  7  1  0
  7  8  2  0
  3  8  1  0
M  END

$$$$
No_3392-/export/home/yangzhenyu/potential_scad_32_flow//YTHDC2/2024-12-06-03-22-00/
     RDKit          3D

 20 21  0  0  1  0  0  0  0  0999 V2000
    1.1787   -8.0297    3.5154 C   0  0  0  0  0  0  0  0  0  0  0  0
    1.1048   -9.2215    3.2892 C   0  0  0  0  0  0  0  0  0  0  0  0
    1.2339   -9.7611    2.0189 C   0  0  0  0  0  0  0  0  0  0  0  0
    1.1954  -11.2312    1.8661 C   0  0  2  0  0  0  0  0  0  0  0  0
    1.5546  -12.1691    2.7931 C   0  0  0  0  0  0  0  0  0  0  0  0
    0.9527   -7.0669    2.3918 C   0  0  0  0  0  0  0  0  0  0  0  0
    1.0618   -7.6392    1.0692 C   0  0  0  0  0  0  0  0  0  0  0  0
    1.2060   -8.9530    0.8578 C   0  0  0  0  0  0  0  0  0  0  0  0
    1.5159  -13.5011    2.3738 N   0  0  0  0  0  0  0  0  0  0  0  0
    0.9853   -5.6038    2.4629 C   0  0  0  0  0  0  0  0  0  0  0  0
    1.2960  -13.7315    1.1206 C   0  0  0  0  0  0  0  0  0  0  0  0
    1.1311  -12.8896    0.1851 C   0  0  0  0  0  0  0  0  0  0  0  0
    1.0452  -11.6168    0.5244 C   0  0  0  0  0  0  0  0  0  0  0  0
    1.8763  -11.8874    4.0183 O   0  0  0  0  0  0  0  0  0  0  0  0
    0.3228   -4.8824    1.6230 C   0  0  0  0  0  0  0  0  0  0  0  0
    0.4724   -3.4796    1.7745 C   0  0  0  0  0  0  0  0  0  0  0  0
    0.0998   -2.6669    0.7716 C   0  0  0  0  0  0  0  0  0  0  0  0
   -0.5791   -3.2668   -0.3495 C   0  0  0  0  0  0  0  0  0  0  0  0
   -1.0410   -2.4482   -1.3230 C   0  0  0  0  0  0  0  0  0  0  0  0
   -1.5101   -2.9174   -2.4475 C   0  0  0  0  0  0  0  0  0  0  0  0
  4  3  1  6
  4  5  1  0
  5  9  1  0
  6 10  1  0
  9 11  1  0
  4 13  1  0
 12 13  1  0
  5 14  2  0
 10 15  2  3
 15 16  1  0
 16 17  2  3
 17 18  1  0
 18 19  1  0
 19 20  2  0
 11 12  1  0
  1  2  2  0
  2  3  1  0
  3  8  2  0
  7  8  1  0
  6  7  2  0
  1  6  1  0
M  END

$$$$
No_3393-/export/home/yangzhenyu/potential_scad_32_flow//YTHDC2/2024-12-06-03-22-00/
     RDKit          3D

 18 18  0  0  0  0  0  0  0  0999 V2000
    1.1787   -8.0297    3.5154 C   0  0  0  0  0  0  0  0  0  0  0  0
    1.0491   -6.8434    2.9820 C   0  0  0  0  0  0  0  0  0  0  0  0
    0.0950   -8.8404    3.2292 C   0  0  0  0  0  0  0  0  0  0  0  0
   -0.9173   -8.4596    2.5152 C   0  0  0  0  0  0  0  0  0  0  0  0
   -1.0331   -7.2162    2.0653 C   0  0  0  0  0  0  0  0  0  0  0  0
   -0.0105   -6.3168    2.3081 C   0  0  0  0  0  0  0  0  0  0  0  0
    0.1465  -10.2446    3.6981 C   0  0  0  0  0  0  0  0  0  0  0  0
    1.2433  -10.8239    4.0166 C   0  0  0  0  0  0  0  0  0  0  0  0
    2.4912  -10.5210    3.8610 C   0  0  0  0  0  0  0  0  0  0  0  0
   -0.0801   -5.0324    1.8109 Cl  0  0  0  0  0  0  0  0  0  0  0  0
    2.8349  -10.2443    2.6011 C   0  0  0  0  0  0  0  0  0  0  0  0
    2.3949  -11.0069    1.5534 C   0  0  0  0  0  0  0  0  0  0  0  0
    1.9449  -10.5679    0.3840 O   0  0  0  0  0  0  0  0  0  0  0  0
    2.0651  -12.2684    1.7703 N   0  0  0  0  0  0  0  0  0  0  0  0
    1.4555  -13.1325    0.8859 C   0  0  0  0  0  0  0  0  0  0  0  0
    0.5158  -13.9423    1.8022 C   0  0  0  0  0  0  0  0  0  0  0  0
    0.1964  -15.0469    1.5257 C   0  0  0  0  0  0  0  0  0  0  0  0
    0.1241  -15.8384    2.2121 C   0  0  0  0  0  0  0  0  0  0  0  0
  3  7  1  0
  7  8  2  3
  8  9  1  0
  6 10  1  0
  9 11  1  0
 11 12  1  0
 12 13  2  0
 12 14  1  0
 14 15  1  0
 15 16  1  0
 16 17  1  0
 17 18  2  0
  1  2  2  0
  2  6  1  0
  5  6  2  0
  4  5  1  0
  3  4  2  0
  1  3  1  0
M  END

$$$$
No_3394-/export/home/yangzhenyu/potential_scad_32_flow//YTHDC2/2024-12-06-03-22-00/
     RDKit          3D

 19 20  0  0  1  0  0  0  0  0999 V2000
    1.1787   -8.0297    3.5154 C   0  0  0  0  0  0  0  0  0  0  0  0
    1.1048   -9.2215    3.2892 C   0  0  0  0  0  0  0  0  0  0  0  0
    1.2339   -9.7611    2.0189 C   0  0  0  0  0  0  0  0  0  0  0  0
    1.3583   -9.0036    0.9764 C   0  0  0  0  0  0  0  0  0  0  0  0
    1.5996   -7.6362    1.1311 C   0  0  0  0  0  0  0  0  0  0  0  0
    1.4830   -7.0928    2.3626 C   0  0  0  0  0  0  0  0  0  0  0  0
    1.1171  -11.3311    1.8661 C   0  0  1  0  0  0  0  0  0  0  0  0
    0.5022  -11.6388    0.6531 C   0  0  0  0  0  0  0  0  0  0  0  0
    0.5683  -13.0838    0.5424 C   0  0  2  0  0  0  0  0  0  0  0  0
    1.2665  -13.8887    1.3003 C   0  0  0  0  0  0  0  0  0  0  0  0
    1.9989  -13.3977    2.4029 C   0  0  1  0  0  0  0  0  0  0  0  0
    1.8520  -12.0917    2.7212 C   0  0  0  0  0  0  0  0  0  0  0  0
    2.5585  -11.5789    3.7298 O   0  0  0  0  0  0  0  0  0  0  0  0
    1.5535   -5.6526    2.6371 Cl  0  0  0  0  0  0  0  0  0  0  0  0
    1.5579   -9.4282   -0.3593 O   0  0  0  0  0  0  0  0  0  0  0  0
    2.5724  -14.3106    3.2648 Cl  0  0  0  0  0  0  0  0  0  0  0  0
    1.2536  -15.2126    1.0386 Cl  0  0  0  0  0  0  0  0  0  0  0  0
   -0.1737  -13.5935   -0.5928 Cl  0  0  0  0  0  0  0  0  0  0  0  0
    0.8343  -10.0486    4.4172 O   0  0  0  0  0  0  0  0  0  0  0  0
  7  3  1  6
  7  8  1  0
  9 10  1  0
  7 12  1  0
 11 12  1  0
 12 13  2  0
  6 14  1  0
  4 15  1  0
 11 16  1  1
 10 17  1  0
  9 18  1  6
  2 19  1  0
  8  9  1  0
 10 11  1  0
  1  2  2  0
  2  3  1  0
  3  4  2  0
  4  5  1  0
  5  6  2  0
  1  6  1  0
M  END

$$$$
No_3395-/export/home/yangzhenyu/potential_scad_32_flow//YTHDC2/2024-12-06-03-22-00/
     RDKit          3D

 18 18  0  0  1  0  0  0  0  0999 V2000
    1.1787   -8.0297    3.5154 C   0  0  0  0  0  0  0  0  0  0  0  0
    1.0491   -6.8434    2.9820 C   0  0  0  0  0  0  0  0  0  0  0  0
    0.0950   -8.8404    3.2292 C   0  0  0  0  0  0  0  0  0  0  0  0
    0.0602  -10.1764    3.8231 C   0  0  0  0  0  0  0  0  0  0  0  0
    0.2248   -6.3830    2.0648 C   0  0  0  0  0  0  0  0  0  0  0  0
   -0.6745   -7.2322    1.6857 C   0  0  0  0  0  0  0  0  0  0  0  0
   -0.7374   -8.4992    2.1291 C   0  0  0  0  0  0  0  0  0  0  0  0
   -0.1792  -11.3045    3.0702 C   0  0  0  0  0  0  0  0  0  0  0  0
    0.7825  -12.3781    3.1611 C   0  0  2  0  0  0  0  0  0  0  0  0
    1.9699  -12.1253    3.5164 C   0  0  0  0  0  0  0  0  0  0  0  0
    0.4352   -5.1058    1.4255 C   0  0  0  0  0  0  0  0  0  0  0  0
    0.4835  -13.6423    2.7494 C   0  0  0  0  0  0  0  0  0  0  0  0
    1.4817  -14.6476    3.0098 C   0  0  0  0  0  0  0  0  0  0  0  0
    2.3400  -14.9299    2.1056 C   0  0  0  0  0  0  0  0  0  0  0  0
    2.6232  -14.1081    1.1689 C   0  0  0  0  0  0  0  0  0  0  0  0
   -0.2709   -4.0134    1.7814 C   0  0  0  0  0  0  0  0  0  0  0  0
    3.0763  -16.1293    2.0695 O   0  0  0  0  0  0  0  0  0  0  0  0
    0.1055   -2.9621    2.4124 C   0  0  0  0  0  0  0  0  0  0  0  0
  3  4  1  0
  4  8  1  0
  8  9  1  0
  9 10  1  6
  5 11  1  0
  9 12  1  0
 12 13  1  0
 13 14  1  0
 14 15  1  0
 11 16  1  0
 14 17  2  0
 16 18  1  0
  1  2  2  0
  2  5  1  0
  5  6  2  0
  6  7  1  0
  3  7  2  0
  1  3  1  0
M  END

$$$$
No_3396-/export/home/yangzhenyu/potential_scad_32_flow//YTHDC2/2024-12-06-03-22-00/
     RDKit          3D

 18 20  0  0  0  0  0  0  0  0999 V2000
    1.1787   -8.0297    3.5154 C   0  0  0  0  0  0  0  0  0  0  0  0
    1.0491   -6.8434    2.9820 C   0  0  0  0  0  0  0  0  0  0  0  0
    0.0950   -8.8404    3.2292 C   0  0  0  0  0  0  0  0  0  0  0  0
   -0.9173   -8.4596    2.5152 C   0  0  0  0  0  0  0  0  0  0  0  0
   -1.0331   -7.2162    2.0653 C   0  0  0  0  0  0  0  0  0  0  0  0
   -0.0105   -6.3168    2.3081 C   0  0  0  0  0  0  0  0  0  0  0  0
    0.1150   -4.9910    1.8495 C   0  0  0  0  0  0  0  0  0  0  0  0
   -0.1376   -4.7952    0.5550 C   0  0  0  0  0  0  0  0  0  0  0  0
   -0.2146   -3.3857    0.2341 C   0  0  0  0  0  0  0  0  0  0  0  0
    0.4473   -2.4574    0.8723 C   0  0  0  0  0  0  0  0  0  0  0  0
    0.7907   -2.6741    2.1866 C   0  0  0  0  0  0  0  0  0  0  0  0
    0.6797   -3.9846    2.6856 C   0  0  0  0  0  0  0  0  0  0  0  0
    0.1655  -10.2559    3.7266 C   0  0  0  0  0  0  0  0  0  0  0  0
   -1.0204  -10.8895    4.0035 C   0  0  0  0  0  0  0  0  0  0  0  0
    1.3595  -10.7491    4.4747 C   0  0  0  0  0  0  0  0  0  0  0  0
    1.4765  -12.0968    4.5914 C   0  0  0  0  0  0  0  0  0  0  0  0
   -0.9531  -12.2763    4.1706 C   0  0  0  0  0  0  0  0  0  0  0  0
    0.3693  -12.8511    4.4354 C   0  0  0  0  0  0  0  0  0  0  0  0
  6  7  1  0
  3 13  1  0
  1  2  2  0
  2  6  1  0
  5  6  2  0
  4  5  1  0
  3  4  2  0
  1  3  1  0
  7  8  2  0
  8  9  1  0
  9 10  2  0
 10 11  1  0
 11 12  2  0
  7 12  1  0
 13 14  2  0
 14 17  1  0
 17 18  2  0
 16 18  1  0
 15 16  2  0
 13 15  1  0
M  END

$$$$
No_3397-/export/home/yangzhenyu/potential_scad_32_flow//YTHDC2/2024-12-06-03-22-00/
     RDKit          3D

 18 20  0  0  0  0  0  0  0  0999 V2000
    1.1787   -8.0297    3.5154 C   0  0  0  0  0  0  0  0  0  0  0  0
    1.1048   -9.2215    3.2892 C   0  0  0  0  0  0  0  0  0  0  0  0
    1.2339   -9.7611    2.0189 C   0  0  0  0  0  0  0  0  0  0  0  0
    1.3583   -9.0036    0.9764 C   0  0  0  0  0  0  0  0  0  0  0  0
    1.5996   -7.6362    1.1311 C   0  0  0  0  0  0  0  0  0  0  0  0
    1.4830   -7.0928    2.3626 C   0  0  0  0  0  0  0  0  0  0  0  0
    1.5395   -5.7300    2.6182 C   0  0  0  0  0  0  0  0  0  0  0  0
    1.1775  -11.2233    1.8407 C   0  0  0  0  0  0  0  0  0  0  0  0
    1.9057  -12.1147    2.3397 C   0  0  0  0  0  0  0  0  0  0  0  0
    1.6867  -13.4551    2.0621 C   0  0  0  0  0  0  0  0  0  0  0  0
    0.7025  -13.8511    1.3021 C   0  0  0  0  0  0  0  0  0  0  0  0
    0.3694  -15.1217    0.8861 C   0  0  0  0  0  0  0  0  0  0  0  0
   -0.0570  -12.7659    0.7428 C   0  0  0  0  0  0  0  0  0  0  0  0
    0.1572  -11.5402    0.9040 C   0  0  0  0  0  0  0  0  0  0  0  0
   -0.3639  -15.5495   -0.0347 C   0  0  0  0  0  0  0  0  0  0  0  0
   -1.0692  -14.5274   -0.7323 C   0  0  0  0  0  0  0  0  0  0  0  0
   -0.9132  -13.2051   -0.3696 C   0  0  0  0  0  0  0  0  0  0  0  0
    1.6668   -5.1791    3.8863 O   0  0  0  0  0  0  0  0  0  0  0  0
  6  7  1  0
  3  8  1  0
  7 18  1  0
 11 12  1  0
 12 15  2  0
 15 16  1  0
 16 17  2  0
 13 17  1  0
  1  2  2  0
  2  3  1  0
  3  4  2  0
  4  5  1  0
  5  6  2  0
  1  6  1  0
  8  9  2  0
  9 10  1  0
 10 11  2  0
 11 13  1  0
 13 14  2  0
  8 14  1  0
M  END

$$$$
No_3398-/export/home/yangzhenyu/potential_scad_32_flow//YTHDC2/2024-12-06-03-22-00/
     RDKit          3D

 18 18  0  0  0  0  0  0  0  0999 V2000
    1.1787   -8.0297    3.5154 C   0  0  0  0  0  0  0  0  0  0  0  0
    1.0491   -6.8434    2.9820 C   0  0  0  0  0  0  0  0  0  0  0  0
    1.9985   -8.9840    2.8958 C   0  0  0  0  0  0  0  0  0  0  0  0
    1.9135  -10.3404    3.6266 C   0  0  0  0  0  0  0  0  0  0  0  0
    0.7479  -10.9191    3.7202 C   0  0  0  0  0  0  0  0  0  0  0  0
    0.2782   -6.7158    1.8352 O   0  0  0  0  0  0  0  0  0  0  0  0
    0.6700  -12.2876    3.5382 C   0  0  0  0  0  0  0  0  0  0  0  0
   -0.2523  -12.7621    2.6746 C   0  0  0  0  0  0  0  0  0  0  0  0
   -1.2993  -11.9664    2.3757 C   0  0  0  0  0  0  0  0  0  0  0  0
   -1.2779  -10.5832    2.6359 C   0  0  0  0  0  0  0  0  0  0  0  0
   -0.2702  -10.0639    3.3715 C   0  0  0  0  0  0  0  0  0  0  0  0
    1.4075   -5.6571    3.4434 O   0  0  0  0  0  0  0  0  0  0  0  0
   -0.2498  -14.0722    2.2963 C   0  0  0  0  0  0  0  0  0  0  0  0
    0.9053  -14.8874    2.6488 C   0  0  0  0  0  0  0  0  0  0  0  0
    1.0771  -16.2661    2.3224 C   0  0  0  0  0  0  0  0  0  0  0  0
    2.1964  -16.9568    2.5906 C   0  0  0  0  0  0  0  0  0  0  0  0
    2.4864  -18.2609    2.4528 O   0  0  0  0  0  0  0  0  0  0  0  0
    3.3927  -16.2070    2.1893 O   0  0  0  0  0  0  0  0  0  0  0  0
  1  2  1  0
  1  3  1  0
  3  4  1  0
  4  5  1  0
  2  6  2  0
  2 12  1  0
  8 13  1  0
 13 14  2  3
 14 15  1  0
 15 16  1  0
 16 17  2  0
 16 18  1  0
  5  7  2  0
  7  8  1  0
  8  9  2  0
  9 10  1  0
 10 11  2  0
  5 11  1  0
M  END

$$$$
No_3399-/export/home/yangzhenyu/potential_scad_32_flow//YTHDC2/2024-12-06-03-22-00/
     RDKit          3D

 11 11  0  0  1  0  0  0  0  0999 V2000
    1.1787   -8.0297    3.5154 O   0  0  0  0  0  0  0  0  0  0  0  0
    0.9969   -8.9689    3.0048 C   0  0  1  0  0  0  0  0  0  0  0  0
    0.9976   -8.9567    1.6341 C   0  0  2  0  0  0  0  0  0  0  0  0
    1.6062   -9.9071    0.9292 C   0  0  0  0  0  0  0  0  0  0  0  0
    2.1191  -10.9757    1.6503 C   0  0  0  0  0  0  0  0  0  0  0  0
    2.1177  -10.9891    3.0403 C   0  0  0  0  0  0  0  0  0  0  0  0
    1.5441   -9.8905    3.6897 C   0  0  0  0  0  0  0  0  0  0  0  0
    0.5010   -7.8164    1.0436 C   0  0  2  0  0  0  0  0  0  0  0  0
   -0.3627   -7.9721    0.1048 F   0  0  0  0  0  0  0  0  0  0  0  0
    1.5843   -7.0338    0.2003 C   0  0  0  0  0  0  0  0  0  0  0  0
    1.6240  -10.1443    5.0315 O   0  0  0  0  0  0  0  0  0  0  0  0
  2  1  1  1
  2  3  1  0
  4  5  1  0
  2  7  1  0
  6  7  1  0
  3  8  1  0
  8  9  1  0
  8 10  1  6
  7 11  2  0
  3  4  1  1
  5  6  1  0
M  END

$$$$
No_3400-/export/home/yangzhenyu/potential_scad_32_flow//YTHDC2/2024-12-06-03-22-00/
     RDKit          3D

 18 18  0  0  0  0  0  0  0  0999 V2000
    1.1787   -8.0297    3.5154 C   0  0  0  0  0  0  0  0  0  0  0  0
    1.1048   -9.2215    3.2892 C   0  0  0  0  0  0  0  0  0  0  0  0
    1.3627  -10.1721    4.3044 C   0  0  0  0  0  0  0  0  0  0  0  0
    1.7354  -11.4730    3.9023 C   0  0  0  0  0  0  0  0  0  0  0  0
    1.8080  -11.8127    2.7216 C   0  0  0  0  0  0  0  0  0  0  0  0
    1.5854  -11.0021    1.7249 C   0  0  0  0  0  0  0  0  0  0  0  0
    1.3573   -9.7389    1.9287 C   0  0  0  0  0  0  0  0  0  0  0  0
    1.1102   -8.8712    0.9017 C   0  0  0  0  0  0  0  0  0  0  0  0
    0.5299   -7.6926    1.0325 Cl  0  0  0  0  0  0  0  0  0  0  0  0
    1.4119   -9.3745   -0.3895 O   0  0  0  0  0  0  0  0  0  0  0  0
    2.1479  -13.4266    2.2909 O   0  0  0  0  0  0  0  0  0  0  0  0
    1.2143  -14.2711    2.1501 C   0  0  0  0  0  0  0  0  0  0  0  0
    1.5994  -15.4117    2.4783 C   0  0  0  0  0  0  0  0  0  0  0  0
    0.6362  -16.3461    2.9924 O   0  0  0  0  0  0  0  0  0  0  0  0
    2.7808  -15.9336    2.3545 O   0  0  0  0  0  0  0  0  0  0  0  0
    2.5150   -7.3208    3.6292 C   0  0  0  0  0  0  0  0  0  0  0  0
    2.0458   -5.8904    3.8016 N   0  0  0  0  0  0  0  0  0  0  0  0
    0.7465   -5.6931    3.7105 C   0  0  0  0  0  0  0  0  0  0  0  0
  1  2  1  0
  7  8  1  0
  8  9  1  0
  8 10  2  0
  5 11  1  0
 11 12  1  0
 12 13  1  0
 13 14  1  0
 13 15  2  0
  1 16  1  0
 16 17  2  3
 17 18  1  0
  2  3  2  0
  3  4  1  0
  4  5  2  0
  5  6  1  0
  6  7  2  0
  2  7  1  0
M  END

$$$$
No_3401-/export/home/yangzhenyu/potential_scad_32_flow//YTHDC2/2024-12-06-03-22-00/
     RDKit          3D

 16 16  0  0  0  0  0  0  0  0999 V2000
    1.1787   -8.0297    3.5154 Cl  0  0  0  0  0  0  0  0  0  0  0  0
    0.6122   -7.9650    2.5747 C   0  0  0  0  0  0  0  0  0  0  0  0
    0.4809   -9.1882    1.8138 C   0  0  0  0  0  0  0  0  0  0  0  0
    0.0192   -9.0891    0.5546 C   0  0  0  0  0  0  0  0  0  0  0  0
   -0.4655   -7.9863   -0.1524 C   0  0  0  0  0  0  0  0  0  0  0  0
   -0.3636   -6.8187    0.6504 C   0  0  0  0  0  0  0  0  0  0  0  0
    0.1144   -6.8137    1.9877 C   0  0  0  0  0  0  0  0  0  0  0  0
    0.2341   -5.5482    2.5704 C   0  0  0  0  0  0  0  0  0  0  0  0
    0.6011   -4.4226    1.8022 N   0  0  0  0  0  0  0  0  0  0  0  0
    0.1786   -3.2675    1.6220 C   0  0  0  0  0  0  0  0  0  0  0  0
   -1.0615   -3.1451    2.0152 C   0  0  0  0  0  0  0  0  0  0  0  0
    0.8251   -2.2647    0.9710 C   0  0  0  0  0  0  0  0  0  0  0  0
    0.9579  -10.4496    2.2661 C   0  0  0  0  0  0  0  0  0  0  0  0
    2.0080  -11.0863    1.9898 C   0  0  0  0  0  0  0  0  0  0  0  0
    2.2036  -12.3887    2.3566 C   0  0  0  0  0  0  0  0  0  0  0  0
    1.2296  -13.0283    3.0589 C   0  0  0  0  0  0  0  0  0  0  0  0
  1  2  1  0
  7  8  1  0
  8  9  1  0
  9 10  1  0
 10 11  1  0
 10 12  1  0
  3 13  1  0
 13 14  1  0
 14 15  2  3
 15 16  1  0
  2  3  2  0
  3  4  1  0
  4  5  2  0
  5  6  1  0
  6  7  2  0
  2  7  1  0
M  END

$$$$
No_3402-/export/home/yangzhenyu/potential_scad_32_flow//YTHDC2/2024-12-06-03-22-00/
     RDKit          3D

 18 20  0  0  0  0  0  0  0  0999 V2000
    1.1787   -8.0297    3.5154 C   0  0  0  0  0  0  0  0  0  0  0  0
    1.1048   -9.2215    3.2892 C   0  0  0  0  0  0  0  0  0  0  0  0
    1.2339   -9.7611    2.0189 C   0  0  0  0  0  0  0  0  0  0  0  0
    1.3583   -9.0036    0.9764 C   0  0  0  0  0  0  0  0  0  0  0  0
    1.5996   -7.6362    1.1311 C   0  0  0  0  0  0  0  0  0  0  0  0
    1.4830   -7.0928    2.3626 C   0  0  0  0  0  0  0  0  0  0  0  0
    1.4898   -5.7274    2.6199 C   0  0  0  0  0  0  0  0  0  0  0  0
    1.1681  -11.2222    1.8390 C   0  0  0  0  0  0  0  0  0  0  0  0
    1.9047  -12.1147    2.3357 C   0  0  0  0  0  0  0  0  0  0  0  0
    1.6844  -13.4555    2.0602 C   0  0  0  0  0  0  0  0  0  0  0  0
    0.6977  -13.8514    1.3046 C   0  0  0  0  0  0  0  0  0  0  0  0
    0.3647  -15.1223    0.8874 C   0  0  0  0  0  0  0  0  0  0  0  0
   -0.0885  -12.8316    0.7792 C   0  0  0  0  0  0  0  0  0  0  0  0
   -1.0559  -13.3666   -0.2318 C   0  0  0  0  0  0  0  0  0  0  0  0
   -1.1025  -14.6291   -0.6078 C   0  0  0  0  0  0  0  0  0  0  0  0
   -0.3459  -15.5582   -0.0137 C   0  0  0  0  0  0  0  0  0  0  0  0
    0.0884  -11.6906    1.0161 N   0  0  0  0  0  0  0  0  0  0  0  0
    1.6891   -5.1728    3.8641 N   0  0  0  0  0  0  0  0  0  0  0  0
  6  7  1  0
  3  8  1  0
  7 18  1  0
  1  2  2  0
  2  3  1  0
  3  4  2  0
  4  5  1  0
  5  6  2  0
  1  6  1  0
  8  9  2  0
  9 10  1  0
 10 11  2  0
 13 17  2  0
  8 17  1  0
 11 12  1  0
 12 16  2  0
 15 16  1  0
 14 15  2  0
 13 14  1  0
 11 13  1  0
M  END

$$$$
No_3403-/export/home/yangzhenyu/potential_scad_32_flow//YTHDC2/2024-12-06-03-22-00/
     RDKit          3D

 19 19  0  0  0  0  0  0  0  0999 V2000
    1.1787   -8.0297    3.5154 O   0  0  0  0  0  0  0  0  0  0  0  0
    0.9969   -8.9689    3.0048 C   0  0  0  0  0  0  0  0  0  0  0  0
    1.3055  -10.1056    3.6616 C   0  0  0  0  0  0  0  0  0  0  0  0
    1.1249  -11.3503    3.0941 C   0  0  0  0  0  0  0  0  0  0  0  0
    0.6932  -11.4484    1.8586 C   0  0  0  0  0  0  0  0  0  0  0  0
    0.5498  -10.3736    1.0579 C   0  0  0  0  0  0  0  0  0  0  0  0
    0.7643   -9.1185    1.6383 C   0  0  0  0  0  0  0  0  0  0  0  0
    0.4151   -7.8542    1.0784 C   0  0  0  0  0  0  0  0  0  0  0  0
   -0.7614   -7.7061    0.5352 O   0  0  0  0  0  0  0  0  0  0  0  0
    1.0503   -6.7305    1.1895 O   0  0  0  0  0  0  0  0  0  0  0  0
    1.2475  -12.6522    3.7992 C   0  0  0  0  0  0  0  0  0  0  0  0
    1.4726  -13.7389    2.9644 O   0  0  0  0  0  0  0  0  0  0  0  0
    1.1556  -12.6945    4.9861 O   0  0  0  0  0  0  0  0  0  0  0  0
    0.5602  -12.6730    1.0206 C   0  0  0  0  0  0  0  0  0  0  0  0
   -0.6553  -12.9901    0.6161 O   0  0  0  0  0  0  0  0  0  0  0  0
    1.6223  -13.3402    0.5769 O   0  0  0  0  0  0  0  0  0  0  0  0
    0.6903   -5.5048    1.4724 C   0  0  0  0  0  0  0  0  0  0  0  0
    1.4003   -4.8152    2.5549 C   0  0  0  0  0  0  0  0  0  0  0  0
   -0.4088   -4.8889    1.0311 C   0  0  0  0  0  0  0  0  0  0  0  0
  1  2  1  0
  7  8  1  0
  8  9  2  0
  8 10  1  0
  4 11  1  0
 11 12  2  0
 11 13  1  0
  5 14  1  0
 14 15  2  0
 14 16  1  0
 10 17  1  0
 17 18  1  0
 17 19  1  0
  2  3  2  0
  3  4  1  0
  4  5  2  0
  5  6  1  0
  6  7  2  0
  2  7  1  0
M  END

$$$$
No_3404-/export/home/yangzhenyu/potential_scad_32_flow//YTHDC2/2024-12-06-03-22-00/
     RDKit          3D

 19 21  0  0  0  0  0  0  0  0999 V2000
    1.1787   -8.0297    3.5154 C   0  0  0  0  0  0  0  0  0  0  0  0
    1.1048   -9.2215    3.2892 C   0  0  0  0  0  0  0  0  0  0  0  0
    1.3627  -10.1721    4.3044 C   0  0  0  0  0  0  0  0  0  0  0  0
    1.0682  -11.5187    4.0618 C   0  0  0  0  0  0  0  0  0  0  0  0
    0.6332  -11.9655    2.9682 C   0  0  0  0  0  0  0  0  0  0  0  0
    0.4776  -11.1308    1.9203 C   0  0  0  0  0  0  0  0  0  0  0  0
    0.7470   -9.8274    2.0368 C   0  0  0  0  0  0  0  0  0  0  0  0
    1.0387   -7.0301    2.5175 C   0  0  0  0  0  0  0  0  0  0  0  0
    0.9130   -7.5288    1.2013 C   0  0  0  0  0  0  0  0  0  0  0  0
    0.7893   -8.7980    0.9542 C   0  0  0  0  0  0  0  0  0  0  0  0
    0.5241   -9.2578   -0.2817 C   0  0  0  0  0  0  0  0  0  0  0  0
   -0.7560   -9.7391   -0.6285 O   0  0  0  0  0  0  0  0  0  0  0  0
    1.3962   -9.1917   -1.2144 O   0  0  0  0  0  0  0  0  0  0  0  0
    0.5074  -13.3746    2.6907 C   0  0  0  0  0  0  0  0  0  0  0  0
    0.9148  -14.0605    1.7625 C   0  0  0  0  0  0  0  0  0  0  0  0
    1.5118  -15.2317    1.8614 C   0  0  0  0  0  0  0  0  0  0  0  0
    1.0209  -16.1379    2.8390 C   0  0  0  0  0  0  0  0  0  0  0  0
    0.4365  -15.4836    4.0077 C   0  0  0  0  0  0  0  0  0  0  0  0
    0.1986  -14.1786    3.9297 C   0  0  0  0  0  0  0  0  0  0  0  0
 10 11  1  0
 11 12  2  0
 11 13  1  0
  5 14  1  0
  2  3  1  0
  3  4  2  0
  4  5  1  0
  5  6  2  0
  6  7  1  0
  1  2  2  0
  2  7  1  0
  7 10  2  0
  9 10  1  0
  8  9  2  0
  1  8  1  0
 14 15  2  0
 15 16  1  0
 16 17  2  0
 17 18  1  0
 18 19  2  0
 14 19  1  0
M  END

$$$$
No_3405-/export/home/yangzhenyu/potential_scad_32_flow//YTHDC2/2024-12-06-03-22-00/
     RDKit          3D

 13 14  0  0  0  0  0  0  0  0999 V2000
    1.1787   -8.0297    3.5154 C   0  0  0  0  0  0  0  0  0  0  0  0
    1.0491   -6.8434    2.9820 C   0  0  0  0  0  0  0  0  0  0  0  0
    0.0950   -8.8404    3.2292 C   0  0  0  0  0  0  0  0  0  0  0  0
   -0.9173   -8.4596    2.5152 C   0  0  0  0  0  0  0  0  0  0  0  0
   -1.0331   -7.2162    2.0653 C   0  0  0  0  0  0  0  0  0  0  0  0
   -0.0105   -6.3168    2.3081 C   0  0  0  0  0  0  0  0  0  0  0  0
    0.1935  -10.3737    3.7416 C   0  0  0  0  0  0  0  0  0  0  0  0
    1.2407  -10.8901    4.0986 C   0  0  0  0  0  0  0  0  0  0  0  0
    1.1186  -12.3145    4.4006 C   0  0  0  0  0  0  0  0  0  0  0  0
    0.1013  -12.9075    3.8532 C   0  0  0  0  0  0  0  0  0  0  0  0
   -0.9044  -12.4076    3.3546 C   0  0  0  0  0  0  0  0  0  0  0  0
   -0.9318  -11.0156    3.2558 C   0  0  0  0  0  0  0  0  0  0  0  0
   -0.1471   -5.0370    1.8051 Cl  0  0  0  0  0  0  0  0  0  0  0  0
  3  7  1  0
  6 13  1  0
  1  2  2  0
  2  6  1  0
  5  6  2  0
  4  5  1  0
  3  4  2  0
  1  3  1  0
  7  8  2  0
  8  9  1  0
  9 10  2  0
 10 11  1  0
 11 12  2  0
  7 12  1  0
M  END

$$$$
No_3406-/export/home/yangzhenyu/potential_scad_32_flow//YTHDC2/2024-12-06-03-22-00/
     RDKit          3D

 17 18  0  0  0  0  0  0  0  0999 V2000
    1.1787   -8.0297    3.5154 C   0  0  0  0  0  0  0  0  0  0  0  0
    1.0491   -6.8434    2.9820 C   0  0  0  0  0  0  0  0  0  0  0  0
    0.0950   -8.8404    3.2292 C   0  0  0  0  0  0  0  0  0  0  0  0
   -0.9173   -8.4596    2.5152 C   0  0  0  0  0  0  0  0  0  0  0  0
   -1.0331   -7.2162    2.0653 C   0  0  0  0  0  0  0  0  0  0  0  0
   -0.0105   -6.3168    2.3081 C   0  0  0  0  0  0  0  0  0  0  0  0
    0.1150   -4.9910    1.8495 C   0  0  0  0  0  0  0  0  0  0  0  0
    0.9121   -4.1017    2.4010 N   0  0  0  0  0  0  0  0  0  0  0  0
   -0.2037   -4.6437    0.5734 C   0  0  0  0  0  0  0  0  0  0  0  0
   -0.1394   -3.2848    0.3644 C   0  0  0  0  0  0  0  0  0  0  0  0
    0.6212   -2.4031    0.9802 C   0  0  0  0  0  0  0  0  0  0  0  0
    1.1518   -2.9092    2.1561 C   0  0  0  0  0  0  0  0  0  0  0  0
    0.1923  -10.2083    3.8006 C   0  0  0  0  0  0  0  0  0  0  0  0
   -1.0220  -10.8626    4.0739 C   0  0  0  0  0  0  0  0  0  0  0  0
    1.4284  -10.7765    4.3028 C   0  0  0  0  0  0  0  0  0  0  0  0
    1.8767  -11.8135    3.8247 C   0  0  0  0  0  0  0  0  0  0  0  0
    0.7186  -12.7667    3.6614 C   0  0  0  0  0  0  0  0  0  0  0  0
  6  7  1  0
  3 13  1  0
 13 14  2  0
 13 15  1  0
 15 16  2  3
 16 17  1  0
  1  2  2  0
  2  6  1  0
  5  6  2  0
  4  5  1  0
  3  4  2  0
  1  3  1  0
  7  8  2  0
  8 12  1  0
 11 12  2  0
 10 11  1  0
  9 10  2  0
  7  9  1  0
M  END

$$$$
No_3407-/export/home/yangzhenyu/potential_scad_32_flow//YTHDC2/2024-12-06-03-22-00/
     RDKit          3D

 19 20  0  0  0  0  0  0  0  0999 V2000
    1.1787   -8.0297    3.5154 C   0  0  0  0  0  0  0  0  0  0  0  0
    1.1048   -9.2215    3.2892 C   0  0  0  0  0  0  0  0  0  0  0  0
    1.3627  -10.1721    4.3044 C   0  0  0  0  0  0  0  0  0  0  0  0
    1.7354  -11.4730    3.9023 C   0  0  0  0  0  0  0  0  0  0  0  0
    1.8080  -11.8127    2.7216 C   0  0  0  0  0  0  0  0  0  0  0  0
    1.5854  -11.0021    1.7249 C   0  0  0  0  0  0  0  0  0  0  0  0
    1.3573   -9.7389    1.9287 C   0  0  0  0  0  0  0  0  0  0  0  0
    1.1102   -8.8712    0.9017 C   0  0  0  0  0  0  0  0  0  0  0  0
    0.5299   -7.6926    1.0325 C   0  0  0  0  0  0  0  0  0  0  0  0
    0.7526   -7.0802    2.3301 C   0  0  0  0  0  0  0  0  0  0  0  0
    2.0515  -13.2522    2.4284 O   0  0  0  0  0  0  0  0  0  0  0  0
    0.4866   -5.6528    2.5258 P   0  0  0  0  0  0  0  0  0  0  0  0
    1.4193   -5.1128    3.5363 O   0  0  0  0  0  0  0  0  0  0  0  0
   -0.8735   -5.3424    3.1069 O   0  0  0  0  0  0  0  0  0  0  0  0
    0.6391   -4.8569    1.3188 O   0  0  0  0  0  0  0  0  0  0  0  0
    1.3262  -14.0604    1.7430 C   0  0  0  0  0  0  0  0  0  0  0  0
    0.5068  -14.7084    2.6928 C   0  0  0  0  0  0  0  0  0  0  0  0
    1.2772  -15.7968    3.3808 O   0  0  0  0  0  0  0  0  0  0  0  0
    1.0473  -17.0184    2.9453 C   0  0  0  0  0  0  0  0  0  0  0  0
  5 11  1  0
 10 12  1  0
 12 13  1  0
 12 14  1  0
 12 15  2  0
 11 16  1  0
 16 17  1  0
 17 18  1  0
 18 19  1  0
  1  2  2  0
  7  8  2  0
  8  9  1  0
  9 10  2  0
  1 10  1  0
  2  3  1  0
  3  4  2  0
  4  5  1  0
  5  6  2  0
  6  7  1  0
  2  7  1  0
M  END

$$$$
No_3408-/export/home/yangzhenyu/potential_scad_32_flow//YTHDC2/2024-12-06-03-22-00/
     RDKit          3D

 18 19  0  0  0  0  0  0  0  0999 V2000
    1.1787   -8.0297    3.5154 C   0  0  0  0  0  0  0  0  0  0  0  0
    1.1048   -9.2215    3.2892 C   0  0  0  0  0  0  0  0  0  0  0  0
    1.2339   -9.7611    2.0189 C   0  0  0  0  0  0  0  0  0  0  0  0
    1.3583   -9.0036    0.9764 C   0  0  0  0  0  0  0  0  0  0  0  0
    1.5996   -7.6362    1.1311 C   0  0  0  0  0  0  0  0  0  0  0  0
    1.4830   -7.0928    2.3626 C   0  0  0  0  0  0  0  0  0  0  0  0
    1.1008  -11.2372    1.8542 C   0  0  0  0  0  0  0  0  0  0  0  0
    1.9749  -12.0938    2.2342 C   0  0  0  0  0  0  0  0  0  0  0  0
    1.5180  -13.3509    2.5910 C   0  0  0  0  0  0  0  0  0  0  0  0
    0.4120  -13.9272    2.2191 C   0  0  0  0  0  0  0  0  0  0  0  0
   -0.5860  -13.0563    1.8308 C   0  0  0  0  0  0  0  0  0  0  0  0
   -0.2264  -11.7453    1.4928 C   0  0  0  0  0  0  0  0  0  0  0  0
    1.6028   -5.4505    2.6854 C   0  0  0  0  0  0  0  0  0  0  0  0
    0.0855  -15.3787    2.5844 C   0  0  0  0  0  0  0  0  0  0  0  0
   -1.1179  -15.7719    2.5715 C   0  0  0  0  0  0  0  0  0  0  0  0
   -1.2887  -17.1346    3.0736 C   0  0  0  0  0  0  0  0  0  0  0  0
   -0.2743  -17.9793    3.4947 C   0  0  0  0  0  0  0  0  0  0  0  0
    1.0181  -17.4690    3.4086 C   0  0  0  0  0  0  0  0  0  0  0  0
  3  7  1  0
  6 13  1  0
 10 14  1  0
 14 15  2  3
 15 16  1  0
 16 17  2  3
 17 18  1  0
  1  2  2  0
  2  3  1  0
  3  4  2  0
  4  5  1  0
  5  6  2  0
  1  6  1  0
  7  8  2  0
  8  9  1  0
  9 10  2  0
 10 11  1  0
 11 12  2  0
  7 12  1  0
M  END

$$$$
No_3409-/export/home/yangzhenyu/potential_scad_32_flow//YTHDC2/2024-12-06-03-22-00/
     RDKit          3D

 19 19  0  0  1  0  0  0  0  0999 V2000
    1.1787   -8.0297    3.5154 C   0  0  0  0  0  0  0  0  0  0  0  0
    1.1048   -9.2215    3.2892 C   0  0  0  0  0  0  0  0  0  0  0  0
    1.2339   -9.7611    2.0189 C   0  0  0  0  0  0  0  0  0  0  0  0
    1.3583   -9.0036    0.9764 C   0  0  0  0  0  0  0  0  0  0  0  0
    1.5996   -7.6362    1.1311 C   0  0  0  0  0  0  0  0  0  0  0  0
    1.4830   -7.0928    2.3626 C   0  0  0  0  0  0  0  0  0  0  0  0
    1.4898   -5.7274    2.6199 C   0  0  0  0  0  0  0  0  0  0  0  0
    1.1681  -11.2222    1.8390 C   0  0  2  0  0  0  0  0  0  0  0  0
    1.9047  -12.1147    2.3357 F   0  0  0  0  0  0  0  0  0  0  0  0
    1.3351  -11.5692    0.3659 C   0  0  0  0  0  0  0  0  0  0  0  0
   -0.1092  -11.6329    2.1738 O   0  0  0  0  0  0  0  0  0  0  0  0
    1.2333   -4.8646    1.6247 O   0  0  0  0  0  0  0  0  0  0  0  0
    1.4831   -5.1587    3.8792 O   0  0  0  0  0  0  0  0  0  0  0  0
   -0.1834  -12.7650    2.8200 C   0  0  0  0  0  0  0  0  0  0  0  0
   -1.2594  -13.5260    2.2016 C   0  0  0  0  0  0  0  0  0  0  0  0
   -1.0845  -14.9458    2.4670 C   0  0  0  0  0  0  0  0  0  0  0  0
   -2.0307  -15.8087    2.2994 C   0  0  0  0  0  0  0  0  0  0  0  0
   -3.1523  -15.4335    1.6869 C   0  0  0  0  0  0  0  0  0  0  0  0
   -3.2996  -14.1130    1.2845 C   0  0  0  0  0  0  0  0  0  0  0  0
  6  7  1  0
  3  8  1  0
  8  9  1  0
  8 10  1  6
  8 11  1  0
  7 12  2  0
  7 13  1  0
 11 14  1  0
 14 15  1  0
 15 16  1  0
 16 17  2  3
 17 18  1  0
 18 19  2  0
  1  2  2  0
  2  3  1  0
  3  4  2  0
  4  5  1  0
  5  6  2  0
  1  6  1  0
M  END

$$$$
No_3410-/export/home/yangzhenyu/potential_scad_32_flow//YTHDC2/2024-12-06-03-22-00/
     RDKit          3D

 19 20  0  0  0  0  0  0  0  0999 V2000
    1.1787   -8.0297    3.5154 C   0  0  0  0  0  0  0  0  0  0  0  0
    1.1048   -9.2215    3.2892 C   0  0  0  0  0  0  0  0  0  0  0  0
    1.3627  -10.1721    4.3044 C   0  0  0  0  0  0  0  0  0  0  0  0
    1.0682  -11.5187    4.0618 C   0  0  0  0  0  0  0  0  0  0  0  0
    0.6332  -11.9655    2.9682 C   0  0  0  0  0  0  0  0  0  0  0  0
    0.4776  -11.1308    1.9203 C   0  0  0  0  0  0  0  0  0  0  0  0
    0.7470   -9.8274    2.0368 C   0  0  0  0  0  0  0  0  0  0  0  0
    1.8806   -7.1616    3.5538 N   0  0  0  0  0  0  0  0  0  0  0  0
    0.3734  -13.4254    2.7840 C   0  0  0  0  0  0  0  0  0  0  0  0
    0.8803  -14.0510    1.7106 C   0  0  0  0  0  0  0  0  0  0  0  0
    1.5363  -15.2409    1.8599 C   0  0  0  0  0  0  0  0  0  0  0  0
    1.2969  -16.0819    2.9970 C   0  0  0  0  0  0  0  0  0  0  0  0
    0.6522  -15.4174    4.0867 C   0  0  0  0  0  0  0  0  0  0  0  0
    0.2287  -14.1712    3.9676 C   0  0  0  0  0  0  0  0  0  0  0  0
   -0.2473   -7.5265    3.6522 N   0  0  0  0  0  0  0  0  0  0  0  0
    0.8462   -8.9312    0.9405 C   0  0  0  0  0  0  0  0  0  0  0  0
   -0.1922   -8.3756    0.3740 C   0  0  0  0  0  0  0  0  0  0  0  0
   -1.4470   -8.6429    1.0249 F   0  0  0  0  0  0  0  0  0  0  0  0
    2.8725   -7.3084    3.4325 H   0  0  0  0  0  0  0  0  0  0  0  0
  1  2  1  0
  1  8  2  0
  5  9  1  0
  1 15  1  0
  7 16  1  0
 16 17  2  3
 17 18  1  0
  2  3  2  0
  3  4  1  0
  4  5  2  0
  5  6  1  0
  6  7  2  0
  2  7  1  0
  9 10  2  0
 10 11  1  0
 11 12  2  0
 12 13  1  0
 13 14  2  0
  9 14  1  0
  8 19  1  0
M  END

$$$$
No_3411-/export/home/yangzhenyu/potential_scad_32_flow//YTHDC2/2024-12-06-03-22-00/
     RDKit          3D

 19 20  0  0  0  0  0  0  0  0999 V2000
    1.1787   -8.0297    3.5154 C   0  0  0  0  0  0  0  0  0  0  0  0
    1.0491   -6.8434    2.9820 C   0  0  0  0  0  0  0  0  0  0  0  0
    0.0950   -8.8404    3.2292 C   0  0  0  0  0  0  0  0  0  0  0  0
   -0.9173   -8.4596    2.5152 C   0  0  0  0  0  0  0  0  0  0  0  0
   -1.0331   -7.2162    2.0653 C   0  0  0  0  0  0  0  0  0  0  0  0
   -0.0105   -6.3168    2.3081 C   0  0  0  0  0  0  0  0  0  0  0  0
    0.1465  -10.2446    3.6981 C   0  0  0  0  0  0  0  0  0  0  0  0
    1.2433  -10.8239    4.0166 C   0  0  0  0  0  0  0  0  0  0  0  0
    1.0790  -12.2885    4.3779 C   0  0  0  0  0  0  0  0  0  0  0  0
    2.1319  -12.9766    3.6042 C   0  0  0  0  0  0  0  0  0  0  0  0
    1.5346  -14.2917    3.0032 C   0  0  0  0  0  0  0  0  0  0  0  0
    0.2461  -14.4784    3.2046 C   0  0  0  0  0  0  0  0  0  0  0  0
    2.3136  -15.1215    2.3106 C   0  0  0  0  0  0  0  0  0  0  0  0
   -0.0626   -5.0271    1.8540 Cl  0  0  0  0  0  0  0  0  0  0  0  0
    1.8570  -16.3875    2.1031 C   0  0  0  0  0  0  0  0  0  0  0  0
    0.6721  -16.7269    2.2911 C   0  0  0  0  0  0  0  0  0  0  0  0
   -0.1279  -15.8446    2.9232 C   0  0  0  0  0  0  0  0  0  0  0  0
    0.2088  -18.0266    2.0513 C   0  0  0  0  0  0  0  0  0  0  0  0
   -0.6063  -18.2574    1.1793 C   0  0  0  0  0  0  0  0  0  0  0  0
  3  7  1  0
  7  8  2  3
  8  9  1  0
  9 10  1  0
 10 11  1  0
  6 14  1  0
 16 18  1  0
 18 19  2  0
  1  2  2  0
  2  6  1  0
  5  6  2  0
  4  5  1  0
  3  4  2  0
  1  3  1  0
 11 12  2  0
 12 17  1  0
 16 17  2  0
 15 16  1  0
 13 15  2  0
 11 13  1  0
M  END

$$$$
No_3412-/export/home/yangzhenyu/potential_scad_32_flow//YTHDC2/2024-12-06-03-22-00/
     RDKit          3D

 19 20  0  0  1  0  0  0  0  0999 V2000
    1.1787   -8.0297    3.5154 C   0  0  0  0  0  0  0  0  0  0  0  0
    1.0491   -6.8434    2.9820 C   0  0  0  0  0  0  0  0  0  0  0  0
    0.9905   -9.0774    2.6527 C   0  0  0  0  0  0  0  0  0  0  0  0
    0.7897   -8.9519    1.3691 C   0  0  0  0  0  0  0  0  0  0  0  0
    0.7018   -7.7198    0.7892 C   0  0  0  0  0  0  0  0  0  0  0  0
    0.8918   -6.5957    1.6117 C   0  0  0  0  0  0  0  0  0  0  0  0
    1.0998  -10.4710    3.2437 C   0  0  1  0  0  0  0  0  0  0  0  0
    2.1917  -10.8879    3.7399 C   0  0  0  0  0  0  0  0  0  0  0  0
    0.8983   -5.2566    1.2088 O   0  0  0  0  0  0  0  0  0  0  0  0
   -0.0200  -11.2248    3.3627 C   0  0  0  0  0  0  0  0  0  0  0  0
   -0.7200  -11.5139    2.5344 C   0  0  0  0  0  0  0  0  0  0  0  0
   -0.1839  -12.4534    1.5798 C   0  0  0  0  0  0  0  0  0  0  0  0
   -0.5170  -12.3042    0.2430 C   0  0  0  0  0  0  0  0  0  0  0  0
   -1.0410  -13.3171   -0.3950 C   0  0  0  0  0  0  0  0  0  0  0  0
   -0.6661  -14.5964   -0.0991 C   0  0  0  0  0  0  0  0  0  0  0  0
   -0.0599  -14.7799    1.1371 C   0  0  0  0  0  0  0  0  0  0  0  0
    0.0828  -13.7371    2.0284 C   0  0  0  0  0  0  0  0  0  0  0  0
    2.5250  -11.4120    4.8734 F   0  0  0  0  0  0  0  0  0  0  0  0
    2.7007  -12.1013    3.0318 F   0  0  0  0  0  0  0  0  0  0  0  0
  1  2  1  0
  3  4  1  0
  2  6  1  0
  5  6  1  0
  3  7  1  0
  7  8  1  0
  6  9  2  0
  7 10  1  1
 10 11  1  0
 11 12  1  0
  8 18  1  0
  8 19  1  0
  1  3  1  0
  4  5  1  0
 12 13  2  0
 13 14  1  0
 14 15  2  0
 15 16  1  0
 16 17  2  0
 12 17  1  0
M  END

$$$$
No_3413-/export/home/yangzhenyu/potential_scad_32_flow//YTHDC2/2024-12-06-03-22-00/
     RDKit          3D

 19 21  0  0  0  0  0  0  0  0999 V2000
    1.1787   -8.0297    3.5154 C   0  0  0  0  0  0  0  0  0  0  0  0
    1.0491   -6.8434    2.9820 C   0  0  0  0  0  0  0  0  0  0  0  0
    0.0950   -8.8404    3.2292 C   0  0  0  0  0  0  0  0  0  0  0  0
   -0.9173   -8.4596    2.5152 C   0  0  0  0  0  0  0  0  0  0  0  0
   -1.0331   -7.2162    2.0653 C   0  0  0  0  0  0  0  0  0  0  0  0
   -0.0105   -6.3168    2.3081 C   0  0  0  0  0  0  0  0  0  0  0  0
    0.1465  -10.2446    3.6981 C   0  0  0  0  0  0  0  0  0  0  0  0
   -1.0336  -10.8619    3.9439 C   0  0  0  0  0  0  0  0  0  0  0  0
   -0.8576  -12.3101    4.1964 C   0  0  0  0  0  0  0  0  0  0  0  0
    0.3452  -12.8753    3.9453 C   0  0  0  0  0  0  0  0  0  0  0  0
    1.4894  -12.1495    3.5975 C   0  0  0  0  0  0  0  0  0  0  0  0
    1.3815  -10.8365    3.4146 C   0  0  0  0  0  0  0  0  0  0  0  0
   -0.0400   -4.9984    1.8071 C   0  0  0  0  0  0  0  0  0  0  0  0
    0.6893   -3.9951    2.4209 C   0  0  0  0  0  0  0  0  0  0  0  0
    0.8380   -2.6274    2.0687 C   0  0  0  0  0  0  0  0  0  0  0  0
    0.4404  -14.2394    4.1332 O   0  0  0  0  0  0  0  0  0  0  0  0
   -0.6652   -4.4513    0.6741 C   0  0  0  0  0  0  0  0  0  0  0  0
   -0.6886   -3.2267    0.2876 C   0  0  0  0  0  0  0  0  0  0  0  0
    0.1316   -2.3098    0.9000 C   0  0  0  0  0  0  0  0  0  0  0  0
  3  7  1  0
  6 13  1  0
 10 16  1  0
  1  2  2  0
  2  6  1  0
  5  6  2  0
  4  5  1  0
  3  4  2  0
  1  3  1  0
 13 14  2  0
 14 15  1  0
 15 19  2  0
 18 19  1  0
 17 18  2  0
 13 17  1  0
  7  8  2  0
  8  9  1  0
  9 10  2  0
 10 11  1  0
 11 12  2  0
  7 12  1  0
M  END

$$$$
No_3414-/export/home/yangzhenyu/potential_scad_32_flow//YTHDC2/2024-12-06-03-22-00/
     RDKit          3D

 18 18  0  0  0  0  0  0  0  0999 V2000
    1.1787   -8.0297    3.5154 C   0  0  0  0  0  0  0  0  0  0  0  0
    1.1048   -9.2215    3.2892 C   0  0  0  0  0  0  0  0  0  0  0  0
    1.3627  -10.1721    4.3044 C   0  0  0  0  0  0  0  0  0  0  0  0
    2.3720  -10.8948    4.2468 C   0  0  0  0  0  0  0  0  0  0  0  0
    0.8234   -7.0464    2.5717 C   0  0  0  0  0  0  0  0  0  0  0  0
    0.4328   -7.4736    1.3042 C   0  0  0  0  0  0  0  0  0  0  0  0
    0.3532   -8.7488    0.9919 C   0  0  0  0  0  0  0  0  0  0  0  0
    0.7039   -9.7094    1.9672 C   0  0  0  0  0  0  0  0  0  0  0  0
    0.6986  -10.9809    1.7122 C   0  0  0  0  0  0  0  0  0  0  0  0
    1.7333  -11.5997    0.9727 C   0  0  0  0  0  0  0  0  0  0  0  0
    1.6420  -12.9883    0.7818 O   0  0  0  0  0  0  0  0  0  0  0  0
    3.6022  -10.4661    4.9302 C   0  0  0  0  0  0  0  0  0  0  0  0
    3.3743  -10.1188    6.2366 O   0  0  0  0  0  0  0  0  0  0  0  0
    2.4439  -10.9666    0.2519 O   0  0  0  0  0  0  0  0  0  0  0  0
    4.7432  -10.9978    4.5943 O   0  0  0  0  0  0  0  0  0  0  0  0
    0.9603   -5.3846    2.8737 Cl  0  0  0  0  0  0  0  0  0  0  0  0
   -0.0026   -9.1642   -0.2791 N   0  0  0  0  0  0  0  0  0  0  0  0
   -1.2403   -9.3928   -0.7959 C   0  0  0  0  0  0  0  0  0  0  0  0
  2  3  1  0
  3  4  1  0
  8  9  1  0
  9 10  1  0
 10 11  1  0
  4 12  1  0
 12 13  1  0
 10 14  2  0
 12 15  2  0
  5 16  1  0
  7 17  1  0
 17 18  1  0
  1  2  2  0
  2  8  1  0
  7  8  2  0
  6  7  1  0
  5  6  2  0
  1  5  1  0
M  END

$$$$
No_3415-/export/home/yangzhenyu/potential_scad_32_flow//YTHDC2/2024-12-06-03-22-00/
     RDKit          3D

 18 18  0  0  0  0  0  0  0  0999 V2000
    1.1787   -8.0297    3.5154 C   0  0  0  0  0  0  0  0  0  0  0  0
    1.0491   -6.8434    2.9820 C   0  0  0  0  0  0  0  0  0  0  0  0
    0.0950   -8.8404    3.2292 C   0  0  0  0  0  0  0  0  0  0  0  0
   -0.9173   -8.4596    2.5152 C   0  0  0  0  0  0  0  0  0  0  0  0
   -1.0331   -7.2162    2.0653 C   0  0  0  0  0  0  0  0  0  0  0  0
   -0.0105   -6.3168    2.3081 C   0  0  0  0  0  0  0  0  0  0  0  0
    0.0485   -4.9783    1.8782 C   0  0  0  0  0  0  0  0  0  0  0  0
   -0.6974   -4.6139    0.8644 O   0  0  0  0  0  0  0  0  0  0  0  0
    1.1359   -4.1341    2.1672 O   0  0  0  0  0  0  0  0  0  0  0  0
    0.1546  -10.2873    3.6345 C   0  0  0  0  0  0  0  0  0  0  0  0
    1.2131  -10.9363    4.1000 C   0  0  0  0  0  0  0  0  0  0  0  0
    1.7180  -11.8536    3.2508 C   0  0  0  0  0  0  0  0  0  0  0  0
    1.4867  -11.6601    1.9558 C   0  0  0  0  0  0  0  0  0  0  0  0
    1.2876  -12.9224    1.2614 C   0  0  0  0  0  0  0  0  0  0  0  0
    0.8609  -12.7223   -0.1286 C   0  0  0  0  0  0  0  0  0  0  0  0
    0.1584  -13.7833   -0.4527 C   0  0  0  0  0  0  0  0  0  0  0  0
    0.0889  -15.0113    0.2392 C   0  0  0  0  0  0  0  0  0  0  0  0
    0.6841  -15.1430    1.4035 C   0  0  0  0  0  0  0  0  0  0  0  0
  6  7  1  0
  7  8  2  0
  7  9  1  0
  3 10  1  0
 10 11  1  0
 11 12  1  0
 12 13  1  0
 13 14  2  3
 14 15  1  0
 15 16  2  3
 16 17  1  0
 17 18  2  0
  1  2  2  0
  2  6  1  0
  5  6  2  0
  4  5  1  0
  3  4  2  0
  1  3  1  0
M  END

$$$$
No_3416-/export/home/yangzhenyu/potential_scad_32_flow//YTHDC2/2024-12-06-03-22-00/
     RDKit          3D

 19 19  0  0  0  0  0  0  0  0999 V2000
    1.1787   -8.0297    3.5154 C   0  0  0  0  0  0  0  0  0  0  0  0
    1.0491   -6.8434    2.9820 C   0  0  0  0  0  0  0  0  0  0  0  0
    1.9985   -8.9840    2.8958 C   0  0  0  0  0  0  0  0  0  0  0  0
    1.9135  -10.3404    3.6266 N   0  0  0  0  0  0  0  0  0  0  0  0
    0.6179   -6.7382    1.6818 C   0  0  0  0  0  0  0  0  0  0  0  0
    0.1732   -5.5316    1.2884 C   0  0  0  0  0  0  0  0  0  0  0  0
    1.7426  -11.4486    3.0759 C   0  0  0  0  0  0  0  0  0  0  0  0
    1.9294  -12.5398    3.7248 N   0  0  0  0  0  0  0  0  0  0  0  0
    0.5520   -4.3093    2.0013 C   0  0  0  0  0  0  0  0  0  0  0  0
    1.0947   -4.4746    3.2593 C   0  0  0  0  0  0  0  0  0  0  0  0
    1.4585   -5.7058    3.7081 C   0  0  0  0  0  0  0  0  0  0  0  0
    1.5389  -11.5162    1.7526 O   0  0  0  0  0  0  0  0  0  0  0  0
    1.8036  -13.8050    3.1645 C   0  0  0  0  0  0  0  0  0  0  0  0
    1.0326  -14.0319    2.1827 C   0  0  0  0  0  0  0  0  0  0  0  0
    0.5784  -15.4140    2.1232 C   0  0  0  0  0  0  0  0  0  0  0  0
   -0.2358  -15.6901    0.9697 C   0  0  0  0  0  0  0  0  0  0  0  0
   -0.6456  -16.9493    0.8816 N   0  0  0  0  0  0  0  0  0  0  0  0
   -0.4553  -14.7219    0.1005 C   0  0  0  0  0  0  0  0  0  0  0  0
   -0.0724  -13.3601    0.2564 C   0  0  0  0  0  0  0  0  0  0  0  0
  1  2  1  0
  1  3  1  0
  3  4  1  0
  4  7  1  0
  7  8  1  0
  7 12  2  0
  8 13  1  0
 13 14  1  0
 14 15  2  3
 15 16  1  0
 16 17  1  0
 16 18  1  0
 18 19  1  0
  2  5  2  0
  5  6  1  0
  6  9  2  0
  9 10  1  0
 10 11  2  0
  2 11  1  0
M  END

$$$$
No_3417-/export/home/yangzhenyu/potential_scad_32_flow//YTHDC2/2024-12-06-03-22-00/
     RDKit          3D

 19 20  0  0  1  0  0  0  0  0999 V2000
    1.1787   -8.0297    3.5154 C   0  0  0  0  0  0  0  0  0  0  0  0
    1.1048   -9.2215    3.2892 C   0  0  0  0  0  0  0  0  0  0  0  0
    1.2339   -9.7611    2.0189 C   0  0  0  0  0  0  0  0  0  0  0  0
    1.1954  -11.2312    1.8661 C   0  0  2  0  0  0  0  0  0  0  0  0
    1.5546  -12.1691    2.7931 C   0  0  0  0  0  0  0  0  0  0  0  0
    0.9527   -7.0669    2.3918 C   0  0  0  0  0  0  0  0  0  0  0  0
    1.0618   -7.6392    1.0692 C   0  0  0  0  0  0  0  0  0  0  0  0
    1.2060   -8.9530    0.8578 C   0  0  0  0  0  0  0  0  0  0  0  0
    1.5110  -13.5006    2.3856 C   0  0  0  0  0  0  0  0  0  0  0  0
    1.1461  -13.9087    1.2014 C   0  0  0  0  0  0  0  0  0  0  0  0
    0.9324  -13.0660    0.2177 C   0  0  0  0  0  0  0  0  0  0  0  0
    0.9275  -11.6786    0.5224 C   0  0  0  0  0  0  0  0  0  0  0  0
    1.0094   -5.6129    2.4729 C   0  0  0  0  0  0  0  0  0  0  0  0
    1.7702   -5.1447    3.4223 C   0  0  0  0  0  0  0  0  0  0  0  0
    1.5123   -3.6833    3.5001 O   0  0  0  0  0  0  0  0  0  0  0  0
    1.9053  -14.4111    3.4353 O   0  0  0  0  0  0  0  0  0  0  0  0
    0.3794   -4.8401    1.6030 O   0  0  0  0  0  0  0  0  0  0  0  0
    2.5501   -5.4790    4.1578 O   0  0  0  0  0  0  0  0  0  0  0  0
    0.4780  -10.8020   -0.3657 O   0  0  0  0  0  0  0  0  0  0  0  0
  4  3  1  6
  4  5  1  0
  9 10  1  0
  4 12  1  0
 11 12  1  0
  6 13  1  0
 13 14  1  0
 14 15  1  0
  9 16  1  0
 13 17  2  0
 14 18  2  0
 12 19  2  0
  5  9  1  0
 10 11  1  0
  1  2  2  0
  2  3  1  0
  3  8  2  0
  7  8  1  0
  6  7  2  0
  1  6  1  0
M  END

$$$$
No_3418-/export/home/yangzhenyu/potential_scad_32_flow//YTHDC2/2024-12-06-03-22-00/
     RDKit          3D

 18 19  0  0  0  0  0  0  0  0999 V2000
    1.1787   -8.0297    3.5154 N   0  0  0  0  0  0  0  0  0  0  0  0
    1.0818   -9.0751    3.2053 C   0  0  0  0  0  0  0  0  0  0  0  0
    0.7576   -9.3725    1.9159 C   0  0  0  0  0  0  0  0  0  0  0  0
    0.8823   -8.4917    1.0547 C   0  0  0  0  0  0  0  0  0  0  0  0
    1.4631   -7.3107    1.2451 C   0  0  0  0  0  0  0  0  0  0  0  0
    1.6470   -6.9326    2.5669 C   0  0  0  0  0  0  0  0  0  0  0  0
    0.8161  -10.1250    4.2446 C   0  0  0  0  0  0  0  0  0  0  0  0
   -0.4877  -10.6098    4.4191 C   0  0  0  0  0  0  0  0  0  0  0  0
    1.9151  -10.7236    4.7966 C   0  0  0  0  0  0  0  0  0  0  0  0
    3.1818  -10.1786    4.9281 O   0  0  0  0  0  0  0  0  0  0  0  0
   -1.5344   -9.8392    4.0548 C   0  0  0  0  0  0  0  0  0  0  0  0
   -2.7074   -9.9977    4.6030 C   0  0  0  0  0  0  0  0  0  0  0  0
   -3.1885  -11.1458    5.2489 N   0  0  0  0  0  0  0  0  0  0  0  0
   -3.8243   -9.0797    4.3024 C   0  0  0  0  0  0  0  0  0  0  0  0
   -4.9870   -9.0691    4.9560 C   0  0  0  0  0  0  0  0  0  0  0  0
   -4.8418  -10.3351    5.7501 C   0  0  0  0  0  0  0  0  0  0  0  0
    0.7627   -8.9179   -0.6049 C   0  0  0  0  0  0  0  0  0  0  0  0
    1.6341   -8.8260   -1.2872 O   0  0  0  0  0  0  0  0  0  0  0  0
  2  7  1  0
  7  8  2  3
  7  9  1  0
  9 10  2  0
  8 11  1  0
 11 12  2  3
 12 13  1  0
 12 14  1  0
 14 15  2  0
 13 16  1  0
 15 16  1  0
  4 17  1  0
 17 18  2  0
  1  2  2  0
  2  3  1  0
  3  4  2  0
  4  5  1  0
  5  6  2  0
  1  6  1  0
M  END

$$$$
No_3419-/export/home/yangzhenyu/potential_scad_32_flow//YTHDC2/2024-12-06-03-22-00/
     RDKit          3D

 13 13  0  0  0  0  0  0  0  0999 V2000
    1.1787   -8.0297    3.5154 C   0  0  0  0  0  0  0  0  0  0  0  0
    1.0491   -6.8434    2.9820 C   0  0  0  0  0  0  0  0  0  0  0  0
    1.9985   -8.9840    2.8958 C   0  0  0  0  0  0  0  0  0  0  0  0
    1.1814  -10.1889    2.5497 C   0  0  0  0  0  0  0  0  0  0  0  0
    0.9817  -11.1388    2.8134 C   0  0  0  0  0  0  0  0  0  0  0  0
    0.1125  -12.0891    2.4837 C   0  0  0  0  0  0  0  0  0  0  0  0
   -0.6446  -11.8250    1.4596 C   0  0  0  0  0  0  0  0  0  0  0  0
   -0.2941  -10.7598    0.6431 C   0  0  0  0  0  0  0  0  0  0  0  0
    0.5711   -9.8346    1.1239 C   0  0  0  0  0  0  0  0  0  0  0  0
    0.3257   -6.8342    1.7752 O   0  0  0  0  0  0  0  0  0  0  0  0
    1.5729   -5.6931    3.2380 O   0  0  0  0  0  0  0  0  0  0  0  0
    1.1051   -8.8374    0.2865 C   0  0  0  0  0  0  0  0  0  0  0  0
    1.7191   -9.0774   -0.8270 O   0  0  0  0  0  0  0  0  0  0  0  0
  1  2  1  0
  1  3  1  0
  3  4  1  0
  2 10  2  0
  2 11  1  0
  9 12  1  0
 12 13  2  0
  4  5  2  0
  5  6  1  0
  6  7  2  0
  7  8  1  0
  8  9  2  0
  4  9  1  0
M  END

$$$$
No_3420-/export/home/yangzhenyu/potential_scad_32_flow//YTHDC2/2024-12-06-03-22-00/
     RDKit          3D

 19 20  0  0  0  0  0  0  0  0999 V2000
    1.1787   -8.0297    3.5154 C   0  0  0  0  0  0  0  0  0  0  0  0
    1.1048   -9.2215    3.2892 C   0  0  0  0  0  0  0  0  0  0  0  0
    1.3627  -10.1721    4.3044 C   0  0  0  0  0  0  0  0  0  0  0  0
    1.0682  -11.5187    4.0618 C   0  0  0  0  0  0  0  0  0  0  0  0
    0.6332  -11.9655    2.9682 C   0  0  0  0  0  0  0  0  0  0  0  0
    0.4776  -11.1308    1.9203 C   0  0  0  0  0  0  0  0  0  0  0  0
    0.7470   -9.8274    2.0368 C   0  0  0  0  0  0  0  0  0  0  0  0
    1.0387   -7.0301    2.5175 N   0  0  0  0  0  0  0  0  0  0  0  0
    0.9298   -7.5514    1.2672 C   0  0  0  0  0  0  0  0  0  0  0  0
    0.7824   -8.7713    0.9713 C   0  0  0  0  0  0  0  0  0  0  0  0
    0.6486   -9.2285   -0.2792 C   0  0  0  0  0  0  0  0  0  0  0  0
   -0.7454   -9.4326   -0.6987 O   0  0  0  0  0  0  0  0  0  0  0  0
    1.4749   -9.1423   -1.1635 O   0  0  0  0  0  0  0  0  0  0  0  0
    0.5204  -13.3868    2.6864 C   0  0  0  0  0  0  0  0  0  0  0  0
   -0.0861  -14.0244    2.0525 O   0  0  0  0  0  0  0  0  0  0  0  0
    1.6340  -14.2057    3.2414 O   0  0  0  0  0  0  0  0  0  0  0  0
    1.0751   -6.6362    0.3533 O   0  0  0  0  0  0  0  0  0  0  0  0
    1.6189  -15.5602    3.0089 C   0  0  0  0  0  0  0  0  0  0  0  0
    2.5947  -16.0299    2.1265 C   0  0  0  0  0  0  0  0  0  0  0  0
  1  2  1  0
  8  9  1  0
  7 10  1  0
  9 10  1  0
 10 11  1  0
 11 12  2  0
 11 13  1  0
  5 14  1  0
 14 15  2  0
 14 16  1  0
  9 17  2  0
 16 18  1  0
 18 19  1  0
  1  8  1  0
  2  3  2  0
  3  4  1  0
  4  5  2  0
  5  6  1  0
  6  7  2  0
  2  7  1  0
M  END

$$$$
No_3421-/export/home/yangzhenyu/potential_scad_32_flow//YTHDC2/2024-12-06-03-22-00/
     RDKit          3D

 19 19  0  0  0  0  0  0  0  0999 V2000
    1.1787   -8.0297    3.5154 C   0  0  0  0  0  0  0  0  0  0  0  0
    1.0491   -6.8434    2.9820 Cl  0  0  0  0  0  0  0  0  0  0  0  0
    2.1643   -8.9961    3.0118 C   0  0  0  0  0  0  0  0  0  0  0  0
    2.0542  -10.3454    3.7325 C   0  0  0  0  0  0  0  0  0  0  0  0
    1.0539  -10.6340    4.5979 C   0  0  0  0  0  0  0  0  0  0  0  0
   -0.1289  -10.2282    4.2193 C   0  0  0  0  0  0  0  0  0  0  0  0
   -0.1116   -8.7532    3.7940 C   0  0  0  0  0  0  0  0  0  0  0  0
   -1.1695   -7.9161    4.1823 N   0  0  0  0  0  0  0  0  0  0  0  0
   -2.3336   -8.4413    4.2145 C   0  0  0  0  0  0  0  0  0  0  0  0
   -3.3060   -7.7008    4.3907 C   0  0  0  0  0  0  0  0  0  0  0  0
   -3.4306   -6.4716    4.1250 C   0  0  0  0  0  0  0  0  0  0  0  0
   -2.5736   -5.7619    3.3274 C   0  0  0  0  0  0  0  0  0  0  0  0
   -2.6368   -4.3280    3.4763 C   0  0  0  0  0  0  0  0  0  0  0  0
   -1.8355   -3.5479    2.7378 F   0  0  0  0  0  0  0  0  0  0  0  0
   -2.2740   -4.0826    4.9023 F   0  0  0  0  0  0  0  0  0  0  0  0
    3.5305  -11.1642    3.7486 O   0  0  0  0  0  0  0  0  0  0  0  0
   -4.5415   -8.3247    5.0213 O   0  0  0  0  0  0  0  0  0  0  0  0
   -4.8100   -9.4929    4.5840 C   0  0  0  0  0  0  0  0  0  0  0  0
   -4.2377  -10.5164    5.3351 C   0  0  0  0  0  0  0  0  0  0  0  0
  1  2  1  0
  8  9  1  0
  9 10  1  0
 10 11  2  3
 11 12  1  0
 12 13  1  0
 13 14  1  0
 13 15  1  0
  4 16  1  0
 10 17  1  0
 17 18  1  0
 18 19  1  0
  7  8  1  0
  1  3  2  0
  3  4  1  0
  4  5  2  0
  5  6  1  0
  6  7  2  0
  1  7  1  0
M  END

$$$$
No_3422-/export/home/yangzhenyu/potential_scad_32_flow//YTHDC2/2024-12-06-03-22-00/
     RDKit          3D

 18 18  0  0  1  0  0  0  0  0999 V2000
    1.1787   -8.0297    3.5154 Cl  0  0  0  0  0  0  0  0  0  0  0  0
    0.6122   -7.9650    2.5747 C   0  0  2  0  0  0  0  0  0  0  0  0
    0.3325   -6.8044    1.9102 C   0  0  0  0  0  0  0  0  0  0  0  0
    1.3506   -5.8218    1.8899 O   0  0  0  0  0  0  0  0  0  0  0  0
   -0.1573   -9.0868    2.1741 C   0  0  0  0  0  0  0  0  0  0  0  0
   -0.9506   -9.6069    2.8341 C   0  0  0  0  0  0  0  0  0  0  0  0
   -1.6111  -10.8884    2.5472 C   0  0  0  0  0  0  0  0  0  0  0  0
   -0.9133  -11.9894    2.2439 C   0  0  0  0  0  0  0  0  0  0  0  0
   -1.5696  -13.2012    2.1978 C   0  0  0  0  0  0  0  0  0  0  0  0
   -2.8753  -13.2292    2.5771 C   0  0  0  0  0  0  0  0  0  0  0  0
   -3.5428  -12.1528    3.1332 C   0  0  0  0  0  0  0  0  0  0  0  0
   -2.8861  -10.9445    3.2562 C   0  0  0  0  0  0  0  0  0  0  0  0
   -0.8902   -6.1679    1.9918 O   0  0  0  0  0  0  0  0  0  0  0  0
   -3.5228  -14.5338    2.6384 C   0  0  0  0  0  0  0  0  0  0  0  0
   -4.8669  -14.5706    2.5625 C   0  0  0  0  0  0  0  0  0  0  0  0
   -5.5216  -15.8199    2.7586 C   0  0  0  0  0  0  0  0  0  0  0  0
   -6.8076  -15.8242    2.9737 C   0  0  0  0  0  0  0  0  0  0  0  0
   -7.5457  -14.6640    3.0095 C   0  0  0  0  0  0  0  0  0  0  0  0
  2  1  1  1
  2  3  1  0
  3  4  1  0
  2  5  1  0
  5  6  2  3
  6  7  1  0
  3 13  2  0
 10 14  1  0
 14 15  2  3
 15 16  1  0
 16 17  2  3
 17 18  1  0
  7  8  2  0
  8  9  1  0
  9 10  2  0
 10 11  1  0
 11 12  2  0
  7 12  1  0
M  END

$$$$
No_3423-/export/home/yangzhenyu/potential_scad_32_flow//YTHDC2/2024-12-06-03-22-00/
     RDKit          3D

 17 18  0  0  0  0  0  0  0  0999 V2000
    1.1787   -8.0297    3.5154 C   0  0  0  0  0  0  0  0  0  0  0  0
    1.0491   -6.8434    2.9820 O   0  0  0  0  0  0  0  0  0  0  0  0
    0.9046   -9.0606    2.6037 C   0  0  0  0  0  0  0  0  0  0  0  0
    1.1437  -10.3181    3.1506 C   0  0  0  0  0  0  0  0  0  0  0  0
    1.1328  -11.4259    2.3867 C   0  0  0  0  0  0  0  0  0  0  0  0
    0.9334  -11.3264    1.1173 C   0  0  0  0  0  0  0  0  0  0  0  0
    0.7913  -10.0894    0.5001 C   0  0  0  0  0  0  0  0  0  0  0  0
    0.8065   -8.9482    1.2829 C   0  0  0  0  0  0  0  0  0  0  0  0
    0.6895   -7.7637    0.7322 C   0  0  0  0  0  0  0  0  0  0  0  0
    1.0107   -6.5526    1.6499 C   0  0  0  0  0  0  0  0  0  0  0  0
    0.8236   -5.3050    1.2538 O   0  0  0  0  0  0  0  0  0  0  0  0
    1.3900  -12.7821    2.9627 C   0  0  0  0  0  0  0  0  0  0  0  0
    0.2536  -13.7111    2.8545 O   0  0  0  0  0  0  0  0  0  0  0  0
    0.8074  -15.0647    3.1818 C   0  0  0  0  0  0  0  0  0  0  0  0
    1.9623  -15.3996    2.3646 C   0  0  0  0  0  0  0  0  0  0  0  0
    2.6063  -14.4372    1.6532 C   0  0  0  0  0  0  0  0  0  0  0  0
    2.4095  -16.6937    2.5201 C   0  0  0  0  0  0  0  0  0  0  0  0
  1  2  1  0
  1  3  1  0
  8  9  1  0
  2 10  1  0
  9 10  1  0
 10 11  2  0
  5 12  1  0
 12 13  1  0
 13 14  1  0
 14 15  1  0
 15 16  1  0
 15 17  1  0
  3  4  2  0
  4  5  1  0
  5  6  2  0
  6  7  1  0
  7  8  2  0
  3  8  1  0
M  END

$$$$
No_3424-/export/home/yangzhenyu/potential_scad_32_flow//YTHDC2/2024-12-06-03-22-00/
     RDKit          3D

 20 22  0  0  1  0  0  0  0  0999 V2000
    1.1787   -8.0297    3.5154 C   0  0  0  0  0  0  0  0  0  0  0  0
    1.1048   -9.2215    3.2892 C   0  0  0  0  0  0  0  0  0  0  0  0
    1.0239   -9.7790    2.0239 C   0  0  0  0  0  0  0  0  0  0  0  0
    1.1393   -9.0211    0.9686 C   0  0  0  0  0  0  0  0  0  0  0  0
    1.4051   -7.6500    1.1251 P   0  0  2  0  0  0  0  0  0  0  0  0
    1.5080   -7.1186    2.4464 C   0  0  0  0  0  0  0  0  0  0  0  0
    0.4761   -6.7681    0.3959 O   0  0  0  0  0  0  0  0  0  0  0  0
    0.8068  -11.2425    2.0527 C   0  0  0  0  0  0  0  0  0  0  0  0
    1.8418  -12.0221    2.1610 C   0  0  0  0  0  0  0  0  0  0  0  0
    1.6249  -13.3810    2.3052 C   0  0  0  0  0  0  0  0  0  0  0  0
    0.4126  -13.9111    2.1418 C   0  0  0  0  0  0  0  0  0  0  0  0
   -0.6963  -13.1143    2.1317 C   0  0  0  0  0  0  0  0  0  0  0  0
   -0.4770  -11.7639    2.1328 C   0  0  0  0  0  0  0  0  0  0  0  0
    0.1954  -15.3109    2.2917 C   0  0  0  0  0  0  0  0  0  0  0  0
    0.7785  -16.0751    3.2351 C   0  0  0  0  0  0  0  0  0  0  0  0
    0.7035  -17.4333    3.3704 C   0  0  0  0  0  0  0  0  0  0  0  0
    0.1119  -18.1406    2.4380 C   0  0  0  0  0  0  0  0  0  0  0  0
   -0.5766  -17.5287    1.4985 C   0  0  0  0  0  0  0  0  0  0  0  0
   -0.4906  -16.1552    1.3582 C   0  0  0  0  0  0  0  0  0  0  0  0
   -1.0909  -15.5565    0.2137 C   0  0  0  0  0  0  0  0  0  0  0  0
  1  2  2  0
  2  3  1  0
  3  4  2  0
  4  5  1  0
  1  6  1  0
  5  6  1  1
  5  7  2  0
  3  8  1  0
 11 14  1  0
 19 20  1  0
 14 15  2  0
 15 16  1  0
 16 17  2  0
 17 18  1  0
 18 19  2  0
 14 19  1  0
  8  9  2  0
  9 10  1  0
 10 11  2  0
 11 12  1  0
 12 13  2  0
  8 13  1  0
M  END

$$$$
No_3425-/export/home/yangzhenyu/potential_scad_32_flow//YTHDC2/2024-12-06-03-22-00/
     RDKit          3D

 18 19  0  0  0  0  0  0  0  0999 V2000
    1.1787   -8.0297    3.5154 C   0  0  0  0  0  0  0  0  0  0  0  0
    1.0491   -6.8434    2.9820 C   0  0  0  0  0  0  0  0  0  0  0  0
    0.9905   -9.0774    2.6527 C   0  0  0  0  0  0  0  0  0  0  0  0
    0.9687   -8.6883    1.3634 C   0  0  0  0  0  0  0  0  0  0  0  0
    1.0948   -6.3768    1.7686 C   0  0  0  0  0  0  0  0  0  0  0  0
    0.9504   -7.3975    0.8471 C   0  0  0  0  0  0  0  0  0  0  0  0
    1.0175  -10.5389    3.0735 C   0  0  0  0  0  0  0  0  0  0  0  0
   -0.1673  -11.1029    3.1187 C   0  0  0  0  0  0  0  0  0  0  0  0
   -0.6620  -11.6305    2.2609 C   0  0  0  0  0  0  0  0  0  0  0  0
    0.2017  -12.3006    1.3029 C   0  0  0  0  0  0  0  0  0  0  0  0
    1.5773  -11.8824    1.3525 C   0  0  0  0  0  0  0  0  0  0  0  0
    2.0095  -11.0393    2.2126 C   0  0  0  0  0  0  0  0  0  0  0  0
    1.1422   -4.7857    1.3070 Cl  0  0  0  0  0  0  0  0  0  0  0  0
   -0.2312  -13.3155    0.4441 C   0  0  0  0  0  0  0  0  0  0  0  0
   -1.1970  -13.7863    0.5066 C   0  0  0  0  0  0  0  0  0  0  0  0
   -1.5782  -14.9494   -0.3726 C   0  0  0  0  0  0  0  0  0  0  0  0
   -2.5274  -15.7363   -0.1929 C   0  0  0  0  0  0  0  0  0  0  0  0
   -3.5331  -15.4560    0.7329 C   0  0  0  0  0  0  0  0  0  0  0  0
  3  7  1  0
  5 13  1  0
 10 14  1  0
 14 15  2  3
 15 16  1  0
 16 17  2  3
 17 18  1  0
  1  2  2  0
  2  5  1  0
  5  6  2  0
  4  6  1  0
  3  4  2  0
  1  3  1  0
  7  8  2  0
  8  9  1  0
  9 10  2  0
 10 11  1  0
 11 12  2  0
  7 12  1  0
M  END

$$$$
No_3426-/export/home/yangzhenyu/potential_scad_32_flow//YTHDC2/2024-12-06-03-22-00/
     RDKit          3D

 17 18  0  0  1  0  0  0  0  0999 V2000
    1.1787   -8.0297    3.5154 C   0  0  0  0  0  0  0  0  0  0  0  0
    1.0491   -6.8434    2.9820 C   0  0  0  0  0  0  0  0  0  0  0  0
    0.0950   -8.8404    3.2292 C   0  0  0  0  0  0  0  0  0  0  0  0
   -0.9173   -8.4596    2.5152 C   0  0  0  0  0  0  0  0  0  0  0  0
   -1.0331   -7.2162    2.0653 C   0  0  0  0  0  0  0  0  0  0  0  0
   -0.0105   -6.3168    2.3081 C   0  0  0  0  0  0  0  0  0  0  0  0
    0.1935  -10.3737    3.7416 C   0  0  2  0  0  0  0  0  0  0  0  0
    1.2406  -10.8901    4.0986 C   0  0  0  0  0  0  0  0  0  0  0  0
    1.1973  -12.3085    3.9531 C   0  0  0  0  0  0  0  0  0  0  0  0
    0.0747  -12.9277    3.6246 N   0  0  0  0  0  0  0  0  0  0  0  0
   -0.6778  -11.4433    3.3443 C   0  0  0  0  0  0  0  0  0  0  0  0
   -0.0085   -4.9588    1.8506 O   0  0  0  0  0  0  0  0  0  0  0  0
    0.8794   -4.0510    2.3419 C   0  0  0  0  0  0  0  0  0  0  0  0
   -2.1931   -6.7480    1.4329 C   0  0  0  0  0  0  0  0  0  0  0  0
   -2.7956   -7.2233    0.7700 C   0  0  0  0  0  0  0  0  0  0  0  0
   -4.1946   -6.8764    0.3551 C   0  0  0  0  0  0  0  0  0  0  0  0
   -4.7773   -7.3808   -0.5384 C   0  0  0  0  0  0  0  0  0  0  0  0
  7  3  1  6
  7  8  1  0
  8  9  2  0
  9 10  1  0
  7 11  1  0
 10 11  2  0
  6 12  1  0
 12 13  1  0
  5 14  1  0
 14 15  2  3
 15 16  1  0
 16 17  2  0
  1  2  2  0
  2  6  1  0
  5  6  2  0
  4  5  1  0
  3  4  2  0
  1  3  1  0
M  END

$$$$
No_3427-/export/home/yangzhenyu/potential_scad_32_flow//YTHDC2/2024-12-06-03-22-00/
     RDKit          3D

 20 21  0  0  0  0  0  0  0  0999 V2000
    1.1787   -8.0297    3.5154 C   0  0  0  0  0  0  0  0  0  0  0  0
    1.1048   -9.2215    3.2892 C   0  0  0  0  0  0  0  0  0  0  0  0
    1.3627  -10.1721    4.3044 C   0  0  0  0  0  0  0  0  0  0  0  0
    1.7354  -11.4730    3.9024 C   0  0  0  0  0  0  0  0  0  0  0  0
    1.8080  -11.8127    2.7216 C   0  0  0  0  0  0  0  0  0  0  0  0
    1.5854  -11.0021    1.7249 C   0  0  0  0  0  0  0  0  0  0  0  0
    1.3573   -9.7389    1.9287 C   0  0  0  0  0  0  0  0  0  0  0  0
    1.1102   -8.8712    0.9017 C   0  0  0  0  0  0  0  0  0  0  0  0
    1.5724   -9.1697   -0.3048 C   0  0  0  0  0  0  0  0  0  0  0  0
    1.8193   -8.5838   -1.1785 O   0  0  0  0  0  0  0  0  0  0  0  0
    2.0720  -13.2185    2.3548 C   0  0  0  0  0  0  0  0  0  0  0  0
    2.4640  -13.5900    1.1007 O   0  0  0  0  0  0  0  0  0  0  0  0
    1.6774  -14.2405    3.1036 O   0  0  0  0  0  0  0  0  0  0  0  0
    0.8513   -7.0838    3.0215 N   0  0  0  0  0  0  0  0  0  0  0  0
    0.9261   -7.4148    1.3915 C   0  0  0  0  0  0  0  0  0  0  0  0
    1.1754  -15.4247    2.6895 C   0  0  0  0  0  0  0  0  0  0  0  0
   -0.1126  -15.5556    2.4548 C   0  0  0  0  0  0  0  0  0  0  0  0
   -0.5107  -16.4589    1.8557 C   0  0  0  0  0  0  0  0  0  0  0  0
    0.2287  -17.5093    1.3962 C   0  0  0  0  0  0  0  0  0  0  0  0
    1.6266  -17.5022    1.7879 C   0  0  0  0  0  0  0  0  0  0  0  0
  9 10  1  0
  5 11  1  0
 11 12  2  0
 11 13  1  0
 13 16  1  0
 16 17  1  0
 17 18  2  3
 18 19  1  0
 19 20  2  0
  8  9  1  0
  1  2  2  0
  7  8  2  0
  8 15  1  0
 14 15  2  0
  1 14  1  0
  2  3  1  0
  3  4  2  0
  4  5  1  0
  5  6  2  0
  6  7  1  0
  2  7  1  0
M  END

$$$$
No_3428-/export/home/yangzhenyu/potential_scad_32_flow//YTHDC2/2024-12-06-03-22-00/
     RDKit          3D

 10 10  0  0  0  0  0  0  0  0999 V2000
    1.1787   -8.0297    3.5154 C   0  0  0  0  0  0  0  0  0  0  0  0
    1.1048   -9.2215    3.2892 C   0  0  0  0  0  0  0  0  0  0  0  0
    1.4683  -10.2314    4.1915 C   0  0  0  0  0  0  0  0  0  0  0  0
    0.8445   -6.9865    2.5175 C   0  0  0  0  0  0  0  0  0  0  0  0
    0.3587   -7.3973    1.3953 C   0  0  0  0  0  0  0  0  0  0  0  0
    0.1901   -8.6971    1.0711 C   0  0  0  0  0  0  0  0  0  0  0  0
    0.5759   -9.6648    1.9442 C   0  0  0  0  0  0  0  0  0  0  0  0
    0.6465  -11.4192    4.2286 O   0  0  0  0  0  0  0  0  0  0  0  0
    2.5639  -10.2692    4.9199 N   0  0  0  0  0  0  0  0  0  0  0  0
   -0.0356   -6.5094    0.3647 O   0  0  0  0  0  0  0  0  0  0  0  0
  2  3  1  0
  3  8  2  0
  3  9  1  0
  5 10  1  0
  1  2  2  0
  2  7  1  0
  6  7  2  0
  5  6  1  0
  4  5  2  0
  1  4  1  0
M  END

$$$$
No_3429-/export/home/yangzhenyu/potential_scad_32_flow//YTHDC2/2024-12-06-03-22-00/
     RDKit          3D

 19 19  0  0  0  0  0  0  0  0999 V2000
    1.1787   -8.0297    3.5154 C   0  0  0  0  0  0  0  0  0  0  0  0
    1.0491   -6.8434    2.9820 C   0  0  0  0  0  0  0  0  0  0  0  0
    0.0950   -8.8404    3.2292 C   0  0  0  0  0  0  0  0  0  0  0  0
   -0.9173   -8.4596    2.5152 C   0  0  0  0  0  0  0  0  0  0  0  0
   -1.9974   -9.4009    2.4255 C   0  0  0  0  0  0  0  0  0  0  0  0
   -0.0636   -6.2856    2.3823 C   0  0  0  0  0  0  0  0  0  0  0  0
   -1.0542   -7.1300    2.2275 C   0  0  0  0  0  0  0  0  0  0  0  0
   -3.2038   -9.1712    2.8920 C   0  0  0  0  0  0  0  0  0  0  0  0
   -3.3490   -8.7129    4.1371 C   0  0  0  0  0  0  0  0  0  0  0  0
   -2.8546   -9.3005    5.2703 C   0  0  0  0  0  0  0  0  0  0  0  0
    0.3202  -10.3040    3.7896 C   0  0  0  0  0  0  0  0  0  0  0  0
    1.4682  -10.9265    3.9512 C   0  0  0  0  0  0  0  0  0  0  0  0
    1.5878  -12.2722    4.2511 C   0  0  0  0  0  0  0  0  0  0  0  0
    0.5595  -13.1388    3.5668 N   0  0  0  0  0  0  0  0  0  0  0  0
    0.8417  -13.4876    2.4246 C   0  0  0  0  0  0  0  0  0  0  0  0
    1.9179  -13.0138    1.6690 C   0  0  0  0  0  0  0  0  0  0  0  0
   -0.1544  -14.1228    1.7356 C   0  0  0  0  0  0  0  0  0  0  0  0
   -0.1542   -4.8776    1.7627 C   0  0  0  0  0  0  0  0  0  0  0  0
   -1.0215   -4.5481    0.9373 O   0  0  0  0  0  0  0  0  0  0  0  0
  4  5  1  0
  5  8  1  0
  8  9  1  0
  9 10  1  0
  3 11  1  0
 11 12  2  3
 12 13  1  0
 13 14  1  0
 14 15  1  0
 15 16  1  0
 15 17  1  0
  6 18  1  0
 18 19  2  0
  1  2  2  0
  2  6  1  0
  6  7  2  0
  4  7  1  0
  3  4  2  0
  1  3  1  0
M  END

$$$$
No_3430-/export/home/yangzhenyu/potential_scad_32_flow//YTHDC2/2024-12-06-03-22-00/
     RDKit          3D

 19 21  0  0  0  0  0  0  0  0999 V2000
    1.1787   -8.0297    3.5154 C   0  0  0  0  0  0  0  0  0  0  0  0
    1.0491   -6.8434    2.9820 C   0  0  0  0  0  0  0  0  0  0  0  0
    0.9905   -9.0774    2.6527 C   0  0  0  0  0  0  0  0  0  0  0  0
    0.7897   -8.9519    1.3691 C   0  0  0  0  0  0  0  0  0  0  0  0
    0.7018   -7.7198    0.7892 C   0  0  0  0  0  0  0  0  0  0  0  0
    0.8918   -6.5957    1.6117 C   0  0  0  0  0  0  0  0  0  0  0  0
    1.0711  -10.4814    3.2282 C   0  0  0  0  0  0  0  0  0  0  0  0
    2.1432  -11.0138    3.5962 C   0  0  0  0  0  0  0  0  0  0  0  0
   -0.0553  -11.2345    3.2841 C   0  0  0  0  0  0  0  0  0  0  0  0
   -0.1131  -12.4857    3.1636 C   0  0  0  0  0  0  0  0  0  0  0  0
    1.1361  -13.1925    3.4825 C   0  0  0  0  0  0  0  0  0  0  0  0
    2.2643  -12.4364    3.7039 C   0  0  0  0  0  0  0  0  0  0  0  0
    0.8285   -5.2828    1.0964 C   0  0  0  0  0  0  0  0  0  0  0  0
   -0.3501   -4.7592    0.7215 C   0  0  0  0  0  0  0  0  0  0  0  0
   -0.6044   -3.5173    0.2340 C   0  0  0  0  0  0  0  0  0  0  0  0
   -1.4038   -2.8716    0.2677 C   0  0  0  0  0  0  0  0  0  0  0  0
   -2.6354   -3.3222    0.7626 C   0  0  0  0  0  0  0  0  0  0  0  0
   -2.6740   -4.5664    1.3996 C   0  0  0  0  0  0  0  0  0  0  0  0
   -1.5208   -5.3430    1.3898 C   0  0  0  0  0  0  0  0  0  0  0  0
  3  7  1  0
  6 13  1  0
 13 14  1  0
 14 15  2  0
 15 16  1  0
 16 17  2  0
 17 18  1  0
 18 19  2  0
 14 19  1  0
  1  2  2  0
  2  6  1  0
  5  6  2  0
  4  5  1  0
  3  4  2  0
  1  3  1  0
  7  8  2  0
  8 12  1  0
 11 12  2  0
 10 11  1  0
  9 10  2  0
  7  9  1  0
M  END

$$$$
No_3431-/export/home/yangzhenyu/potential_scad_32_flow//YTHDC2/2024-12-06-03-22-00/
     RDKit          3D

 20 21  0  0  0  0  0  0  0  0999 V2000
    1.1787   -8.0297    3.5154 C   0  0  0  0  0  0  0  0  0  0  0  0
    1.0491   -6.8434    2.9820 C   0  0  0  0  0  0  0  0  0  0  0  0
    0.0950   -8.8404    3.2292 C   0  0  0  0  0  0  0  0  0  0  0  0
   -0.9173   -8.4596    2.5152 C   0  0  0  0  0  0  0  0  0  0  0  0
   -1.0331   -7.2162    2.0653 C   0  0  0  0  0  0  0  0  0  0  0  0
   -0.0105   -6.3168    2.3081 C   0  0  0  0  0  0  0  0  0  0  0  0
    0.1150   -4.9910    1.8495 C   0  0  0  0  0  0  0  0  0  0  0  0
    0.9121   -4.1017    2.4010 N   0  0  0  0  0  0  0  0  0  0  0  0
   -0.4360   -4.5348    0.7258 O   0  0  0  0  0  0  0  0  0  0  0  0
    0.1686  -10.2776    3.6613 C   0  0  0  0  0  0  0  0  0  0  0  0
    0.2857  -11.3580    2.8270 C   0  0  0  0  0  0  0  0  0  0  0  0
    0.8273  -12.6103    3.3202 C   0  0  0  0  0  0  0  0  0  0  0  0
    0.9329  -13.6385    2.4632 C   0  0  0  0  0  0  0  0  0  0  0  0
    1.4653  -14.8252    2.9873 C   0  0  0  0  0  0  0  0  0  0  0  0
    2.2133  -15.7060    2.3002 C   0  0  0  0  0  0  0  0  0  0  0  0
    2.4499  -17.0371    2.7204 C   0  0  0  0  0  0  0  0  0  0  0  0
    1.8811  -17.5419    3.7619 C   0  0  0  0  0  0  0  0  0  0  0  0
    0.8805  -16.8091    4.3316 C   0  0  0  0  0  0  0  0  0  0  0  0
    0.6538  -15.4646    3.9980 C   0  0  0  0  0  0  0  0  0  0  0  0
    1.4317   -4.3373    3.2344 H   0  0  0  0  0  0  0  0  0  0  0  0
  6  7  1  0
  7  8  2  0
  7  9  1  0
  3 10  1  0
 10 11  1  0
 11 12  1  0
 12 13  2  3
 13 14  1  0
 14 15  2  0
 15 16  1  0
 16 17  2  0
 17 18  1  0
 18 19  2  0
 14 19  1  0
  1  2  2  0
  2  6  1  0
  5  6  2  0
  4  5  1  0
  3  4  2  0
  1  3  1  0
  8 20  1  0
M  END

$$$$
No_3432-/export/home/yangzhenyu/potential_scad_32_flow//YTHDC2/2024-12-06-03-22-00/
     RDKit          3D

 18 20  0  0  0  0  0  0  0  0999 V2000
    1.1787   -8.0297    3.5154 C   0  0  0  0  0  0  0  0  0  0  0  0
    1.0491   -6.8434    2.9820 C   0  0  0  0  0  0  0  0  0  0  0  0
    0.9905   -9.0774    2.6527 C   0  0  0  0  0  0  0  0  0  0  0  0
    1.1655  -10.4663    3.1286 C   0  0  0  0  0  0  0  0  0  0  0  0
    1.2197  -11.4898    2.5831 C   0  0  0  0  0  0  0  0  0  0  0  0
    1.0589  -11.4458    1.1293 C   0  0  0  0  0  0  0  0  0  0  0  0
    0.9638  -10.3069    0.4651 C   0  0  0  0  0  0  0  0  0  0  0  0
    0.9191   -9.0789    1.1942 C   0  0  0  0  0  0  0  0  0  0  0  0
    0.9198   -7.8339    0.6158 C   0  0  0  0  0  0  0  0  0  0  0  0
    1.0184   -6.6904    1.4953 C   0  0  0  0  0  0  0  0  0  0  0  0
    1.3450  -12.8153    3.0809 C   0  0  0  0  0  0  0  0  0  0  0  0
    0.2341  -13.7321    2.9217 N   0  0  0  0  0  0  0  0  0  0  0  0
    0.6250  -15.0683    3.2318 C   0  0  0  0  0  0  0  0  0  0  0  0
    1.9131  -15.5262    2.8983 C   0  0  0  0  0  0  0  0  0  0  0  0
    2.1295  -16.9038    2.9735 C   0  0  0  0  0  0  0  0  0  0  0  0
    1.2635  -17.7254    3.4604 C   0  0  0  0  0  0  0  0  0  0  0  0
    0.0907  -17.2989    3.8760 C   0  0  0  0  0  0  0  0  0  0  0  0
   -0.2505  -15.9489    3.7521 C   0  0  0  0  0  0  0  0  0  0  0  0
  5 11  1  0
 11 12  1  0
 12 13  1  0
 13 14  2  0
 14 15  1  0
 15 16  2  0
 16 17  1  0
 17 18  2  0
 13 18  1  0
  1  2  2  0
  2 10  1  0
  9 10  2  0
  8  9  1  0
  1  3  1  0
  3  4  2  0
  4  5  1  0
  5  6  2  0
  6  7  1  0
  7  8  2  0
  3  8  1  0
M  END

$$$$
No_3433-/export/home/yangzhenyu/potential_scad_32_flow//YTHDC2/2024-12-06-03-22-00/
     RDKit          3D

 18 18  0  0  0  0  0  0  0  0999 V2000
    1.1787   -8.0297    3.5154 C   0  0  0  0  0  0  0  0  0  0  0  0
    1.1048   -9.2215    3.2892 C   0  0  0  0  0  0  0  0  0  0  0  0
    1.2339   -9.7611    2.0189 C   0  0  0  0  0  0  0  0  0  0  0  0
    1.3583   -9.0036    0.9764 C   0  0  0  0  0  0  0  0  0  0  0  0
    1.7077   -9.6100   -0.3010 C   0  0  0  0  0  0  0  0  0  0  0  0
    1.3637   -7.1087    2.3226 C   0  0  0  0  0  0  0  0  0  0  0  0
    1.4257   -7.6645    1.0231 C   0  0  0  0  0  0  0  0  0  0  0  0
    1.6722  -10.7840   -0.4044 O   0  0  0  0  0  0  0  0  0  0  0  0
    1.4862   -8.9147   -1.4018 O   0  0  0  0  0  0  0  0  0  0  0  0
    1.1383  -10.1804    4.3877 C   0  0  0  0  0  0  0  0  0  0  0  0
    1.9382  -11.5205    4.1144 C   0  0  0  0  0  0  0  0  0  0  0  0
    1.1035  -12.4680    3.4297 C   0  0  0  0  0  0  0  0  0  0  0  0
   -0.2237  -12.3688    3.4834 O   0  0  0  0  0  0  0  0  0  0  0  0
    1.7379  -13.4068    2.7622 N   0  0  0  0  0  0  0  0  0  0  0  0
    1.2108  -14.4815    2.1202 C   0  0  0  0  0  0  0  0  0  0  0  0
    0.7728  -14.4086    0.9267 C   0  0  0  0  0  0  0  0  0  0  0  0
    0.4367  -15.4310    0.1841 C   0  0  0  0  0  0  0  0  0  0  0  0
    0.4820  -16.6037    0.6515 C   0  0  0  0  0  0  0  0  0  0  0  0
  4  5  1  0
  5  8  2  0
  5  9  1  0
  2 10  1  0
 10 11  1  0
 11 12  1  0
 12 13  2  0
 12 14  1  0
 14 15  1  0
 15 16  1  0
 16 17  2  3
 17 18  1  0
  1  2  2  0
  2  3  1  0
  3  4  2  0
  4  7  1  0
  6  7  2  0
  1  6  1  0
M  END

$$$$
No_3434-/export/home/yangzhenyu/potential_scad_32_flow//YTHDC2/2024-12-06-03-22-00/
     RDKit          3D

 21 22  0  0  1  0  0  0  0  0999 V2000
    1.1787   -8.0297    3.5154 C   0  0  0  0  0  0  0  0  0  0  0  0
    1.0491   -6.8434    2.9820 C   0  0  0  0  0  0  0  0  0  0  0  0
    0.0950   -8.8404    3.2292 C   0  0  0  0  0  0  0  0  0  0  0  0
   -0.7663   -8.2602    2.4375 C   0  0  0  0  0  0  0  0  0  0  0  0
   -0.7437   -6.9718    1.9778 C   0  0  0  0  0  0  0  0  0  0  0  0
    0.2554   -6.2202    2.2855 C   0  0  0  0  0  0  0  0  0  0  0  0
    0.4072   -4.8741    1.9191 C   0  0  0  0  0  0  0  0  0  0  0  0
    0.0230  -10.2260    3.5719 C   0  0  0  0  0  0  0  0  0  0  0  0
   -1.2316  -10.7955    3.7699 N   0  0  0  0  0  0  0  0  0  0  0  0
    1.0585  -10.7986    4.4578 N   0  0  0  0  0  0  0  0  0  0  0  0
    0.9755   -3.9372    2.6258 C   0  0  0  0  0  0  0  0  0  0  0  0
    1.7823  -11.7144    3.8201 C   0  0  0  0  0  0  0  0  0  0  0  0
    1.4888  -11.9447    2.5123 C   0  0  2  0  0  0  0  0  0  0  0  0
    1.2008  -13.1824    2.0840 C   0  0  0  0  0  0  0  0  0  0  0  0
    1.3397  -14.2691    2.9481 C   0  0  0  0  0  0  0  0  0  0  0  0
    0.8648  -15.5256    2.5571 C   0  0  0  0  0  0  0  0  0  0  0  0
    0.5768  -15.7299    1.3191 C   0  0  0  0  0  0  0  0  0  0  0  0
    0.5618  -14.8236    0.4377 C   0  0  0  0  0  0  0  0  0  0  0  0
    0.8415  -13.4983    0.7920 C   0  0  0  0  0  0  0  0  0  0  0  0
    1.7486  -10.9253    1.5970 C   0  0  0  0  0  0  0  0  0  0  0  0
   -2.0571  -10.3349    3.4143 H   0  0  0  0  0  0  0  0  0  0  0  0
  6  7  1  0
  3  8  1  0
  8  9  2  0
  8 10  1  0
  7 11  1  0
 10 12  1  0
 12 13  1  0
 13 14  1  0
 13 20  1  6
 14 15  2  0
 15 16  1  0
 16 17  2  0
 17 18  1  0
 18 19  2  0
 14 19  1  0
  1  2  2  0
  2  6  1  0
  5  6  2  0
  4  5  1  0
  3  4  2  0
  1  3  1  0
  9 21  1  0
M  END

$$$$
No_3435-/export/home/yangzhenyu/potential_scad_32_flow//YTHDC2/2024-12-06-03-22-00/
     RDKit          3D

 20 21  0  0  0  0  0  0  0  0999 V2000
    1.1787   -8.0297    3.5154 C   0  0  0  0  0  0  0  0  0  0  0  0
    1.0491   -6.8434    2.9820 C   0  0  0  0  0  0  0  0  0  0  0  0
    1.9985   -8.9840    2.8958 C   0  0  0  0  0  0  0  0  0  0  0  0
    1.7297   -9.2108    1.6335 C   0  0  0  0  0  0  0  0  0  0  0  0
    1.5234   -8.1478    0.8618 C   0  0  0  0  0  0  0  0  0  0  0  0
    1.0558   -6.9632    1.4912 C   0  0  0  0  0  0  0  0  0  0  0  0
    2.0857  -10.3821    3.6499 C   0  0  0  0  0  0  0  0  0  0  0  0
    1.7367  -11.3806    3.6994 C   0  0  0  0  0  0  0  0  0  0  0  0
    0.4354  -11.5503    3.0846 C   0  0  0  0  0  0  0  0  0  0  0  0
    0.2147  -12.7601    2.3493 C   0  0  0  0  0  0  0  0  0  0  0  0
   -1.0848  -12.8688    1.8893 C   0  0  0  0  0  0  0  0  0  0  0  0
   -1.9830  -11.8491    2.2604 C   0  0  0  0  0  0  0  0  0  0  0  0
   -1.7889  -10.8455    2.9597 C   0  0  0  0  0  0  0  0  0  0  0  0
   -0.4757  -10.6594    3.4954 C   0  0  0  0  0  0  0  0  0  0  0  0
    1.2499  -13.8429    2.0416 C   0  0  0  0  0  0  0  0  0  0  0  0
    2.1110  -13.6168    1.0334 C   0  0  0  0  0  0  0  0  0  0  0  0
    1.9642  -14.2246    3.3314 C   0  0  0  0  0  0  0  0  0  0  0  0
    1.5264   -8.1169   -0.4874 O   0  0  0  0  0  0  0  0  0  0  0  0
    0.4394  -14.9448    1.6148 C   0  0  0  0  0  0  0  0  0  0  0  0
   -2.7842   -9.8276    3.2036 C   0  0  0  0  0  0  0  0  0  0  0  0
  3  7  1  0
  7  8  2  3
  8  9  1  0
 10 15  1  0
 15 16  1  0
 15 17  1  0
  5 18  1  0
 15 19  1  0
 13 20  1  0
  1  2  2  0
  2  6  1  0
  5  6  2  0
  4  5  1  0
  3  4  2  0
  1  3  1  0
  9 10  2  0
 10 11  1  0
 11 12  2  0
 12 13  1  0
 13 14  2  0
  9 14  1  0
M  END

$$$$
No_3436-/export/home/yangzhenyu/potential_scad_32_flow//YTHDC2/2024-12-06-03-22-00/
     RDKit          3D

 18 20  0  0  1  0  0  0  0  0999 V2000
    1.1787   -8.0297    3.5154 C   0  0  0  0  0  0  0  0  0  0  0  0
    1.0491   -6.8434    2.9820 C   0  0  0  0  0  0  0  0  0  0  0  0
    0.9905   -9.0774    2.6527 C   0  0  0  0  0  0  0  0  0  0  0  0
    0.7897   -8.9519    1.3691 C   0  0  0  0  0  0  0  0  0  0  0  0
    0.7018   -7.7198    0.7892 C   0  0  0  0  0  0  0  0  0  0  0  0
    0.8918   -6.5957    1.6117 C   0  0  0  0  0  0  0  0  0  0  0  0
    1.0998  -10.4710    3.2437 C   0  0  1  0  0  0  0  0  0  0  0  0
    0.0472  -11.2546    3.3963 C   0  0  0  0  0  0  0  0  0  0  0  0
    0.1622  -12.5732    3.4140 N   0  0  0  0  0  0  0  0  0  0  0  0
    1.4724  -12.9272    3.0350 N   0  0  0  0  0  0  0  0  0  0  0  0
    2.0275  -11.5255    2.8906 C   0  0  0  0  0  0  0  0  0  0  0  0
    0.8522   -5.2832    1.1760 C   0  0  0  0  0  0  0  0  0  0  0  0
    2.1445  -14.0313    2.8314 C   0  0  0  0  0  0  0  0  0  0  0  0
   -0.2348   -4.7769    0.7216 C   0  0  0  0  0  0  0  0  0  0  0  0
   -0.8462   -4.0845    1.1410 C   0  0  0  0  0  0  0  0  0  0  0  0
   -0.2643   -3.0276    2.0445 C   0  0  0  0  0  0  0  0  0  0  0  0
    1.0149   -3.2332    2.5139 C   0  0  0  0  0  0  0  0  0  0  0  0
    1.5824   -4.4607    2.1579 C   0  0  0  0  0  0  0  0  0  0  0  0
  7  3  1  6
  7  8  1  0
  8  9  2  0
  9 10  1  0
  7 11  1  0
 10 11  1  0
  6 12  1  0
 10 13  1  0
 12 14  2  0
 14 15  1  0
 15 16  2  0
 16 17  1  0
 17 18  2  0
 12 18  1  0
  1  2  2  0
  2  6  1  0
  5  6  2  0
  4  5  1  0
  3  4  2  0
  1  3  1  0
M  END

$$$$
No_3437-/export/home/yangzhenyu/potential_scad_32_flow//YTHDC2/2024-12-06-03-22-00/
     RDKit          3D

 13 13  0  0  0  0  0  0  0  0999 V2000
    1.1787   -8.0297    3.5154 C   0  0  0  0  0  0  0  0  0  0  0  0
    1.1048   -9.2215    3.2892 C   0  0  0  0  0  0  0  0  0  0  0  0
    1.3627  -10.1721    4.3044 C   0  0  0  0  0  0  0  0  0  0  0  0
    2.3720  -10.8948    4.2468 C   0  0  0  0  0  0  0  0  0  0  0  0
    1.0579   -7.0441    2.4219 C   0  0  0  0  0  0  0  0  0  0  0  0
    0.8578   -7.4970    1.1686 C   0  0  0  0  0  0  0  0  0  0  0  0
    0.7382   -8.7683    0.8754 C   0  0  0  0  0  0  0  0  0  0  0  0
    0.8882   -9.7347    1.9238 C   0  0  0  0  0  0  0  0  0  0  0  0
    0.9437  -11.0299    1.7005 C   0  0  0  0  0  0  0  0  0  0  0  0
    0.4602  -11.5370    0.8140 C   0  0  0  0  0  0  0  0  0  0  0  0
    0.4077  -13.0043    0.5390 C   0  0  0  0  0  0  0  0  0  0  0  0
    1.5575  -13.7096    0.9972 C   0  0  0  0  0  0  0  0  0  0  0  0
    2.2622  -13.1056    2.0743 C   0  0  0  0  0  0  0  0  0  0  0  0
  2  3  1  0
  3  4  1  0
  8  9  1  0
  9 10  2  3
 10 11  1  0
 11 12  2  3
 12 13  1  0
  1  2  2  0
  2  8  1  0
  7  8  2  0
  6  7  1  0
  5  6  2  0
  1  5  1  0
M  END

$$$$
No_3438-/export/home/yangzhenyu/potential_scad_32_flow//YTHDC2/2024-12-06-03-22-00/
     RDKit          3D

 19 20  0  0  1  0  0  0  0  0999 V2000
    1.1787   -8.0297    3.5154 C   0  0  0  0  0  0  0  0  0  0  0  0
    1.1048   -9.2215    3.2892 C   0  0  0  0  0  0  0  0  0  0  0  0
    1.2339   -9.7611    2.0189 C   0  0  0  0  0  0  0  0  0  0  0  0
    1.3583   -9.0036    0.9764 C   0  0  0  0  0  0  0  0  0  0  0  0
    1.5996   -7.6362    1.1311 C   0  0  0  0  0  0  0  0  0  0  0  0
    1.4830   -7.0928    2.3626 C   0  0  0  0  0  0  0  0  0  0  0  0
    1.1008  -11.2372    1.8542 N   0  0  0  0  0  0  0  0  0  0  0  0
    1.9253  -12.1082    2.1966 C   0  0  0  0  0  0  0  0  0  0  0  0
    1.6496  -13.4126    1.7623 C   0  0  1  0  0  0  0  0  0  0  0  0
    2.0318  -14.4736    2.4916 C   0  0  0  0  0  0  0  0  0  0  0  0
    1.2633  -15.5984    2.5756 C   0  0  0  0  0  0  0  0  0  0  0  0
   -0.1008  -15.4818    2.7250 C   0  0  2  0  0  0  0  0  0  0  0  0
   -0.5619  -14.2051    2.5671 C   0  0  0  0  0  0  0  0  0  0  0  0
    0.1870  -13.3056    1.7731 C   0  0  0  0  0  0  0  0  0  0  0  0
   -0.7756  -16.4725    3.3214 C   0  0  0  0  0  0  0  0  0  0  0  0
   -2.0737  -16.4125    3.3836 O   0  0  0  0  0  0  0  0  0  0  0  0
   -0.2379  -17.7515    3.5332 O   0  0  0  0  0  0  0  0  0  0  0  0
    1.5449   -5.6674    2.7016 C   0  0  0  0  0  0  0  0  0  0  0  0
    0.5198   -4.8542    2.8139 N   0  0  0  0  0  0  0  0  0  0  0  0
  3  7  1  0
  7  8  1  0
  9  8  1  1
  9 10  1  0
 10 11  1  0
 11 12  1  0
 12 13  1  0
  9 14  1  0
 13 14  1  0
 12 15  1  1
 15 16  2  0
 15 17  1  0
  6 18  1  0
 18 19  1  0
  1  2  2  0
  2  3  1  0
  3  4  2  0
  4  5  1  0
  5  6  2  0
  1  6  1  0
M  END

$$$$
No_3439-/export/home/yangzhenyu/potential_scad_32_flow//YTHDC2/2024-12-06-03-22-00/
     RDKit          3D

 18 19  0  0  0  0  0  0  0  0999 V2000
    1.1787   -8.0297    3.5154 C   0  0  0  0  0  0  0  0  0  0  0  0
    1.0491   -6.8434    2.9820 C   0  0  0  0  0  0  0  0  0  0  0  0
    0.0950   -8.8404    3.2292 C   0  0  0  0  0  0  0  0  0  0  0  0
   -0.9173   -8.4596    2.5152 C   0  0  0  0  0  0  0  0  0  0  0  0
   -1.0331   -7.2162    2.0653 C   0  0  0  0  0  0  0  0  0  0  0  0
   -0.0105   -6.3168    2.3081 C   0  0  0  0  0  0  0  0  0  0  0  0
    0.0485   -4.9783    1.8782 C   0  0  0  0  0  0  0  0  0  0  0  0
   -0.6974   -4.6139    0.8644 N   0  0  0  0  0  0  0  0  0  0  0  0
    1.1787   -4.1233    2.1412 N   0  0  0  0  0  0  0  0  0  0  0  0
    0.2199  -10.4700    3.7367 C   0  0  0  0  0  0  0  0  0  0  0  0
    0.4851  -11.4541    2.8199 C   0  0  0  0  0  0  0  0  0  0  0  0
    1.1401  -12.5275    3.3473 C   0  0  0  0  0  0  0  0  0  0  0  0
    1.2372  -13.5856    2.4892 C   0  0  0  0  0  0  0  0  0  0  0  0
    0.8913  -13.6281    1.2973 N   0  0  0  0  0  0  0  0  0  0  0  0
    0.3001  -12.5515    0.7251 C   0  0  0  0  0  0  0  0  0  0  0  0
    0.0688  -11.3896    1.5188 C   0  0  0  0  0  0  0  0  0  0  0  0
    1.9025  -14.9154    2.8366 C   0  0  0  0  0  0  0  0  0  0  0  0
   -1.4141   -5.2344    0.5159 H   0  0  0  0  0  0  0  0  0  0  0  0
  6  7  1  0
  7  8  2  0
  7  9  1  0
  3 10  1  0
 10 11  1  0
 13 17  1  0
 11 12  2  0
 12 13  1  0
 13 14  2  0
 14 15  1  0
 15 16  2  0
 11 16  1  0
  1  2  2  0
  2  6  1  0
  5  6  2  0
  4  5  1  0
  3  4  2  0
  1  3  1  0
  8 18  1  0
M  END

$$$$
No_3440-/export/home/yangzhenyu/potential_scad_32_flow//YTHDC2/2024-12-06-03-22-00/
     RDKit          3D

 17 18  0  0  1  0  0  0  0  0999 V2000
    1.1787   -8.0297    3.5154 C   0  0  0  0  0  0  0  0  0  0  0  0
    1.1048   -9.2215    3.2892 C   0  0  0  0  0  0  0  0  0  0  0  0
    1.2339   -9.7611    2.0189 C   0  0  1  0  0  0  0  0  0  0  0  0
    1.1954  -11.2312    1.8661 C   0  0  0  0  0  0  0  0  0  0  0  0
    1.5546  -12.1691    2.7931 C   0  0  0  0  0  0  0  0  0  0  0  0
    0.5849   -7.0929    2.5729 C   0  0  2  0  0  0  0  0  0  0  0  0
    0.5567   -7.6699    1.1955 C   0  0  0  0  0  0  0  0  0  0  0  0
    0.7903   -8.9699    0.9209 C   0  0  1  0  0  0  0  0  0  0  0  0
    1.5521  -13.4960    2.3485 C   0  0  0  0  0  0  0  0  0  0  0  0
    1.2403  -13.8919    1.1557 C   0  0  0  0  0  0  0  0  0  0  0  0
    1.0311  -12.9707    0.1488 C   0  0  0  0  0  0  0  0  0  0  0  0
    0.9678  -11.6394    0.4949 C   0  0  0  0  0  0  0  0  0  0  0  0
    0.6075   -5.5221    2.6486 O   0  0  0  0  0  0  0  0  0  0  0  0
    0.3335   -6.7985    0.2087 O   0  0  0  0  0  0  0  0  0  0  0  0
    1.9533  -14.4250    3.3844 F   0  0  0  0  0  0  0  0  0  0  0  0
    1.7193   -4.8061    3.0110 C   0  0  0  0  0  0  0  0  0  0  0  0
    0.8342   -9.3191   -0.3233 C   0  0  0  0  0  0  0  0  0  0  0  0
  1  2  1  0
  3  4  1  1
  6  7  1  0
  3  8  1  0
  7  8  1  0
  6 13  1  6
  7 14  2  0
  9 15  1  0
 13 16  1  0
  8 17  1  6
  1  6  1  0
  2  3  1  0
  4  5  2  0
  5  9  1  0
  9 10  2  0
 10 11  1  0
 11 12  2  0
  4 12  1  0
M  END

$$$$
No_3441-/export/home/yangzhenyu/potential_scad_32_flow//YTHDC2/2024-12-06-03-22-00/
     RDKit          3D

 17 17  0  0  1  0  0  0  0  0999 V2000
    1.1787   -8.0297    3.5154 C   0  0  0  0  0  0  0  0  0  0  0  0
    1.1048   -9.2215    3.2892 C   0  0  0  0  0  0  0  0  0  0  0  0
    1.2339   -9.7611    2.0189 C   0  0  0  0  0  0  0  0  0  0  0  0
    1.3583   -9.0036    0.9764 C   0  0  0  0  0  0  0  0  0  0  0  0
    1.5996   -7.6362    1.1311 C   0  0  0  0  0  0  0  0  0  0  0  0
    1.4830   -7.0928    2.3626 C   0  0  0  0  0  0  0  0  0  0  0  0
    1.5395   -5.7300    2.6182 C   0  0  0  0  0  0  0  0  0  0  0  0
    1.1969  -11.3760    1.8433 C   0  0  0  0  0  0  0  0  0  0  0  0
    1.0771  -11.6644    0.5388 O   0  0  0  0  0  0  0  0  0  0  0  0
    1.3881  -12.0946    2.7683 N   0  0  0  0  0  0  0  0  0  0  0  0
    1.4226  -13.4857    2.6586 C   0  0  1  0  0  0  0  0  0  0  0  0
    2.5771  -14.2551    2.5291 C   0  0  0  0  0  0  0  0  0  0  0  0
    2.3602  -15.6544    2.3870 O   0  0  0  0  0  0  0  0  0  0  0  0
    1.6506   -5.1785    3.8763 O   0  0  0  0  0  0  0  0  0  0  0  0
    1.4072   -4.8439    1.6560 O   0  0  0  0  0  0  0  0  0  0  0  0
    3.6758  -14.1225    2.8833 O   0  0  0  0  0  0  0  0  0  0  0  0
    0.3043  -14.0017    3.4811 C   0  0  0  0  0  0  0  0  0  0  0  0
  6  7  1  0
  3  8  1  0
  8  9  2  0
  8 10  1  0
 10 11  1  0
 11 12  1  0
 12 13  2  0
  7 14  1  0
  7 15  2  0
 12 16  1  0
 11 17  1  1
  1  2  2  0
  2  3  1  0
  3  4  2  0
  4  5  1  0
  5  6  2  0
  1  6  1  0
M  END

$$$$
No_3442-/export/home/yangzhenyu/potential_scad_32_flow//YTHDC2/2024-12-06-03-22-00/
     RDKit          3D

 20 22  0  0  1  0  0  0  0  0999 V2000
    1.1787   -8.0297    3.5154 O   0  0  0  0  0  0  0  0  0  0  0  0
    0.6747   -7.4019    2.7838 C   0  0  0  0  0  0  0  0  0  0  0  0
    0.7594   -8.0032    1.4295 N   0  0  0  0  0  0  0  0  0  0  0  0
    1.3881   -9.1876    1.5551 C   0  0  2  0  0  0  0  0  0  0  0  0
    1.8162   -9.2076    2.9902 C   0  0  2  0  0  0  0  0  0  0  0  0
    2.3208  -10.3132    3.5710 C   0  0  0  0  0  0  0  0  0  0  0  0
    1.7210  -10.0908    0.6653 C   0  0  0  0  0  0  0  0  0  0  0  0
    1.9967   -9.6330   -0.5238 O   0  0  0  0  0  0  0  0  0  0  0  0
    1.5617  -11.3122    0.8439 N   0  0  0  0  0  0  0  0  0  0  0  0
    1.4411  -11.3070    3.9196 C   0  0  0  0  0  0  0  0  0  0  0  0
    0.8645  -11.8963    3.1221 C   0  0  0  0  0  0  0  0  0  0  0  0
    0.9539  -12.2418    1.7344 C   0  0  2  0  0  0  0  0  0  0  0  0
    0.7123  -13.4624    1.3178 C   0  0  0  0  0  0  0  0  0  0  0  0
    0.2049   -6.0929    2.8868 C   0  0  0  0  0  0  0  0  0  0  0  0
   -1.0935   -5.8084    2.6664 C   0  0  0  0  0  0  0  0  0  0  0  0
   -1.4459   -4.3845    2.6379 C   0  0  0  0  0  0  0  0  0  0  0  0
   -0.5129   -3.3849    2.6400 C   0  0  0  0  0  0  0  0  0  0  0  0
    0.8312   -3.7234    2.7194 C   0  0  0  0  0  0  0  0  0  0  0  0
    1.1949   -5.0654    2.8617 C   0  0  0  0  0  0  0  0  0  0  0  0
   -0.2790  -13.7547    0.4947 O   0  0  0  0  0  0  0  0  0  0  0  0
  1  2  1  0
  2  3  2  0
  4  3  1  6
  1  5  1  0
  4  5  1  0
  5  6  1  1
  4  7  1  0
  7  8  2  0
  7  9  1  0
  6 10  1  0
 10 11  2  3
  9 12  1  0
 11 12  1  0
 12 13  1  1
  2 14  1  0
 13 20  2  0
 14 15  2  0
 15 16  1  0
 16 17  2  0
 17 18  1  0
 18 19  2  0
 14 19  1  0
M  END

$$$$
No_3443-/export/home/yangzhenyu/potential_scad_32_flow//YTHDC2/2024-12-06-03-22-00/
     RDKit          3D

 18 18  0  0  0  0  0  0  0  0999 V2000
    1.1787   -8.0297    3.5154 O   0  0  0  0  0  0  0  0  0  0  0  0
    0.9969   -8.9689    3.0048 C   0  0  0  0  0  0  0  0  0  0  0  0
    1.3055  -10.1056    3.6616 C   0  0  0  0  0  0  0  0  0  0  0  0
    1.1249  -11.3503    3.0941 C   0  0  0  0  0  0  0  0  0  0  0  0
    0.6932  -11.4484    1.8586 C   0  0  0  0  0  0  0  0  0  0  0  0
    0.5498  -10.3736    1.0579 C   0  0  0  0  0  0  0  0  0  0  0  0
    0.7643   -9.1185    1.6383 C   0  0  0  0  0  0  0  0  0  0  0  0
    0.5937   -7.8467    1.0482 C   0  0  0  0  0  0  0  0  0  0  0  0
    1.5294   -7.0230    1.0749 C   0  0  0  0  0  0  0  0  0  0  0  0
    1.1940  -12.6467    3.8288 C   0  0  0  0  0  0  0  0  0  0  0  0
    1.4406  -13.7390    2.9740 Cl  0  0  0  0  0  0  0  0  0  0  0  0
    1.0546   -5.6094    1.3605 C   0  0  0  0  0  0  0  0  0  0  0  0
    1.5480   -4.8771    2.4797 N   0  0  0  0  0  0  0  0  0  0  0  0
    0.0060   -5.0366    0.8602 O   0  0  0  0  0  0  0  0  0  0  0  0
    1.1793   -3.7905    3.0035 C   0  0  0  0  0  0  0  0  0  0  0  0
    1.6804   -2.6530    2.4806 C   0  0  0  0  0  0  0  0  0  0  0  0
    0.9372   -2.0996    1.5531 C   0  0  0  0  0  0  0  0  0  0  0  0
    1.4629   -2.0213    0.1741 C   0  0  0  0  0  0  0  0  0  0  0  0
  1  2  1  0
  7  8  1  0
  8  9  1  0
  4 10  1  0
 10 11  1  0
  9 12  1  0
 12 13  1  0
 12 14  2  0
 13 15  1  0
 15 16  1  0
 16 17  1  0
 17 18  1  0
  2  3  2  0
  3  4  1  0
  4  5  2  0
  5  6  1  0
  6  7  2  0
  2  7  1  0
M  END

$$$$
No_3444-/export/home/yangzhenyu/potential_scad_32_flow//YTHDC2/2024-12-06-03-22-00/
     RDKit          3D

 19 19  0  0  1  0  0  0  0  0999 V2000
    1.1787   -8.0297    3.5154 C   0  0  0  0  0  0  0  0  0  0  0  0
    1.1048   -9.2215    3.2892 C   0  0  0  0  0  0  0  0  0  0  0  0
    1.2339   -9.7611    2.0189 C   0  0  0  0  0  0  0  0  0  0  0  0
    1.3583   -9.0036    0.9764 C   0  0  0  0  0  0  0  0  0  0  0  0
    1.5996   -7.6362    1.1311 C   0  0  0  0  0  0  0  0  0  0  0  0
    1.4830   -7.0928    2.3626 C   0  0  0  0  0  0  0  0  0  0  0  0
    1.1008  -11.2372    1.8542 C   0  0  0  0  0  0  0  0  0  0  0  0
    0.5178  -11.9759    2.3445 C   0  0  0  0  0  0  0  0  0  0  0  0
    0.4575  -13.3705    2.1281 C   0  0  0  0  0  0  0  0  0  0  0  0
    1.1632  -14.1013    2.0451 C   0  0  0  0  0  0  0  0  0  0  0  0
    2.4646  -13.5566    1.4445 C   0  0  0  0  0  0  0  0  0  0  0  0
    1.0647  -15.5680    1.9364 C   0  0  1  0  0  0  0  0  0  0  0  0
    2.0614  -16.3120    2.5663 C   0  0  0  0  0  0  0  0  0  0  0  0
    1.9460  -17.5436    2.9283 O   0  0  0  0  0  0  0  0  0  0  0  0
    1.5541   -5.6564    2.6298 C   0  0  0  0  0  0  0  0  0  0  0  0
    1.1868   -4.7834    1.6414 O   0  0  0  0  0  0  0  0  0  0  0  0
    1.8232   -5.0747    3.7374 O   0  0  0  0  0  0  0  0  0  0  0  0
    0.0097  -16.1775    1.7465 C   0  0  0  0  0  0  0  0  0  0  0  0
   -0.1018  -17.2447    1.4911 C   0  0  0  0  0  0  0  0  0  0  0  0
  3  7  1  0
  7  8  2  3
  8  9  1  0
  9 10  2  3
 10 11  1  0
 10 12  1  0
 12 13  1  1
 13 14  1  0
  6 15  1  0
 15 16  2  0
 15 17  1  0
 12 18  1  0
 18 19  2  0
  1  2  2  0
  2  3  1  0
  3  4  2  0
  4  5  1  0
  5  6  2  0
  1  6  1  0
M  END

$$$$
No_3445-/export/home/yangzhenyu/potential_scad_32_flow//YTHDC2/2024-12-06-03-22-00/
     RDKit          3D

 21 22  0  0  1  0  0  0  0  0999 V2000
    1.1787   -8.0297    3.5154 C   0  0  0  0  0  0  0  0  0  0  0  0
    1.0491   -6.8434    2.9820 C   0  0  0  0  0  0  0  0  0  0  0  0
    0.9905   -9.0774    2.6527 C   0  0  2  0  0  0  0  0  0  0  0  0
    1.1655  -10.4663    3.1286 C   0  0  2  0  0  0  0  0  0  0  0  0
    1.7409  -10.6480    4.4599 C   0  0  0  0  0  0  0  0  0  0  0  0
    1.0486   -6.3431    1.8833 C   0  0  1  0  0  0  0  0  0  0  0  0
    0.8094   -7.4673    0.8674 C   0  0  0  0  0  0  0  0  0  0  0  0
    0.8523   -8.7792    1.1982 C   0  0  0  0  0  0  0  0  0  0  0  0
    0.9300  -11.4784    2.3258 C   0  0  0  0  0  0  0  0  0  0  0  0
    0.9405  -12.7818    3.0623 C   0  0  0  0  0  0  0  0  0  0  0  0
    0.2160  -13.7911    2.5342 C   0  0  0  0  0  0  0  0  0  0  0  0
   -0.2791  -13.8035    1.4223 C   0  0  0  0  0  0  0  0  0  0  0  0
   -0.4165  -12.8459    0.8360 C   0  0  0  0  0  0  0  0  0  0  0  0
    0.1867  -11.5366    1.1544 C   0  0  0  0  0  0  0  0  0  0  0  0
    0.8808   -5.0978    1.2948 Cl  0  0  0  0  0  0  0  0  0  0  0  0
    1.2032  -11.1011    5.3796 O   0  0  0  0  0  0  0  0  0  0  0  0
    3.1494  -10.2233    4.6665 N   0  0  0  0  0  0  0  0  0  0  0  0
   -0.9159  -15.0073    0.8630 O   0  0  0  0  0  0  0  0  0  0  0  0
    3.7113  -10.7643    5.8076 O   0  0  0  0  0  0  0  0  0  0  0  0
    0.7141   -7.2820   -0.3842 O   0  0  0  0  0  0  0  0  0  0  0  0
   -0.1370  -16.0425    0.7608 C   0  0  0  0  0  0  0  0  0  0  0  0
  1  2  1  0
  3  4  1  0
  4  5  1  6
  6  7  1  0
  3  8  1  6
  7  8  1  0
  4  9  1  0
  6 15  1  1
  5 16  2  0
  5 17  1  0
 12 18  1  0
 17 19  2  0
  7 20  2  0
 18 21  1  0
  2  6  1  0
  1  3  1  0
  9 10  2  0
 10 11  1  0
 11 12  2  0
 12 13  1  0
 13 14  2  0
  9 14  1  0
M  END

$$$$
No_3446-/export/home/yangzhenyu/potential_scad_32_flow//YTHDC2/2024-12-06-03-22-00/
     RDKit          3D

 18 18  0  0  1  0  0  0  0  0999 V2000
    1.1787   -8.0297    3.5154 C   0  0  0  0  0  0  0  0  0  0  0  0
    1.1048   -9.2215    3.2892 Cl  0  0  0  0  0  0  0  0  0  0  0  0
    1.1053   -7.0623    2.3233 C   0  0  2  0  0  0  0  0  0  0  0  0
    1.4726   -7.8192    1.2373 Cl  0  0  0  0  0  0  0  0  0  0  0  0
    1.5336   -5.6868    2.5902 C   0  0  0  0  0  0  0  0  0  0  0  0
    0.5043   -4.7173    2.6565 O   0  0  0  0  0  0  0  0  0  0  0  0
    0.5855   -3.5647    2.1190 C   0  0  0  0  0  0  0  0  0  0  0  0
   -0.2725   -2.7883    2.2174 C   0  0  2  0  0  0  0  0  0  0  0  0
   -1.3996   -3.1485    2.4102 C   0  0  0  0  0  0  0  0  0  0  0  0
   -1.9819   -3.0396    3.6188 C   0  0  1  0  0  0  0  0  0  0  0  0
   -3.2314   -3.6362    3.9358 C   0  0  0  0  0  0  0  0  0  0  0  0
   -3.8637   -4.1620    2.9016 C   0  0  0  0  0  0  0  0  0  0  0  0
   -3.5176   -4.1644    1.7141 C   0  0  0  0  0  0  0  0  0  0  0  0
   -2.2000   -3.7208    1.3852 C   0  0  0  0  0  0  0  0  0  0  0  0
   -1.8477   -3.6658    0.1149 O   0  0  0  0  0  0  0  0  0  0  0  0
    1.7359   -3.3868    1.3709 O   0  0  0  0  0  0  0  0  0  0  0  0
   -1.1706   -2.5533    4.7517 O   0  0  0  0  0  0  0  0  0  0  0  0
   -0.1100   -1.4648    1.5384 C   0  0  0  0  0  0  0  0  0  0  0  0
  1  2  1  0
  1  3  1  0
  3  4  1  6
  3  5  1  0
  5  6  1  0
  6  7  1  0
  7  8  1  0
  8  9  1  0
  9 10  1  0
 11 12  1  0
  9 14  1  0
 13 14  1  0
 14 15  2  0
  7 16  2  0
 10 17  1  1
  8 18  1  6
 10 11  1  0
 12 13  1  0
M  END

$$$$
No_3447-/export/home/yangzhenyu/potential_scad_32_flow//YTHDC2/2024-12-06-03-22-00/
     RDKit          3D

 19 21  0  0  0  0  0  0  0  0999 V2000
    1.1787   -8.0297    3.5154 C   0  0  0  0  0  0  0  0  0  0  0  0
    1.1048   -9.2215    3.2892 C   0  0  0  0  0  0  0  0  0  0  0  0
    1.3627  -10.1721    4.3044 C   0  0  0  0  0  0  0  0  0  0  0  0
    1.0682  -11.5187    4.0618 C   0  0  0  0  0  0  0  0  0  0  0  0
    0.6332  -11.9655    2.9682 C   0  0  0  0  0  0  0  0  0  0  0  0
    0.4776  -11.1308    1.9203 C   0  0  0  0  0  0  0  0  0  0  0  0
    0.7470   -9.8274    2.0368 C   0  0  0  0  0  0  0  0  0  0  0  0
    1.0387   -7.0301    2.5175 N   0  0  0  0  0  0  0  0  0  0  0  0
    0.9298   -7.5514    1.2672 C   0  0  0  0  0  0  0  0  0  0  0  0
    0.7824   -8.7713    0.9713 C   0  0  0  0  0  0  0  0  0  0  0  0
    0.6486   -9.2285   -0.2792 C   0  0  0  0  0  0  0  0  0  0  0  0
    0.0394   -8.6365   -1.0803 N   0  0  0  0  0  0  0  0  0  0  0  0
    0.4978  -13.3728    2.6545 C   0  0  0  0  0  0  0  0  0  0  0  0
    1.4407  -14.2883    3.0930 C   0  0  0  0  0  0  0  0  0  0  0  0
    1.2144  -15.6611    2.9340 N   0  0  0  0  0  0  0  0  0  0  0  0
    0.0924  -16.0508    3.1697 C   0  0  0  0  0  0  0  0  0  0  0  0
   -0.9958  -15.2954    2.6828 C   0  0  0  0  0  0  0  0  0  0  0  0
   -0.7432  -13.9759    2.6305 C   0  0  0  0  0  0  0  0  0  0  0  0
   -0.3996   -7.7605   -0.8352 H   0  0  0  0  0  0  0  0  0  0  0  0
 10 11  1  0
 11 12  2  0
  5 13  1  0
  2  3  1  0
  3  4  2  0
  4  5  1  0
  5  6  2  0
  6  7  1  0
 13 14  2  0
 14 15  1  0
 15 16  2  0
 16 17  1  0
 17 18  2  0
 13 18  1  0
  1  2  2  0
  2  7  1  0
  7 10  2  0
  9 10  1  0
  8  9  2  0
  1  8  1  0
 12 19  1  0
M  END

$$$$
No_3448-/export/home/yangzhenyu/potential_scad_32_flow//YTHDC2/2024-12-06-03-22-00/
     RDKit          3D

 20 21  0  0  1  0  0  0  0  0999 V2000
    1.1787   -8.0297    3.5154 C   0  0  0  0  0  0  0  0  0  0  0  0
    1.0491   -6.8434    2.9820 C   0  0  0  0  0  0  0  0  0  0  0  0
    0.9905   -9.0774    2.6527 C   0  0  0  0  0  0  0  0  0  0  0  0
    0.7897   -8.9519    1.3691 C   0  0  0  0  0  0  0  0  0  0  0  0
    0.7018   -7.7198    0.7892 C   0  0  0  0  0  0  0  0  0  0  0  0
    0.8918   -6.5957    1.6117 C   0  0  0  0  0  0  0  0  0  0  0  0
    1.0998  -10.4710    3.2437 C   0  0  0  0  0  0  0  0  0  0  0  0
    0.0472  -11.2546    3.3963 C   0  0  0  0  0  0  0  0  0  0  0  0
    0.1622  -12.5732    3.4140 C   0  0  2  0  0  0  0  0  0  0  0  0
    1.4182  -13.1957    3.4048 C   0  0  0  0  0  0  0  0  0  0  0  0
    1.4947  -14.7093    3.1402 C   0  0  0  0  0  0  0  0  0  0  0  0
    0.2472  -15.3423    3.3057 C   0  0  0  0  0  0  0  0  0  0  0  0
   -0.9708  -14.6616    3.2805 C   0  0  0  0  0  0  0  0  0  0  0  0
   -0.9850  -13.3471    3.3082 C   0  0  0  0  0  0  0  0  0  0  0  0
    0.8446   -5.2809    1.2116 C   0  0  0  0  0  0  0  0  0  0  0  0
   -2.0227  -15.5191    3.1744 C   0  0  0  0  0  0  0  0  0  0  0  0
    1.5345   -4.3351    1.8980 C   0  0  0  0  0  0  0  0  0  0  0  0
    1.4225   -2.9412    1.4538 C   0  0  0  0  0  0  0  0  0  0  0  0
   -2.1828  -12.7435    3.3372 O   0  0  0  0  0  0  0  0  0  0  0  0
    0.6688  -10.0434    0.4231 C   0  0  0  0  0  0  0  0  0  0  0  0
  3  7  1  0
  7  8  1  0
  9 10  1  0
 10 11  1  0
 12 13  1  0
  9 14  1  0
 13 14  1  0
  6 15  1  0
 13 16  1  0
 15 17  2  3
 17 18  1  0
 14 19  2  0
  4 20  1  0
  9  8  1  6
 11 12  1  0
  1  2  2  0
  2  6  1  0
  5  6  2  0
  4  5  1  0
  3  4  2  0
  1  3  1  0
M  END

$$$$
No_3449-/export/home/yangzhenyu/potential_scad_32_flow//YTHDC2/2024-12-06-03-22-00/
     RDKit          3D

 19 20  0  0  1  0  0  0  0  0999 V2000
    1.1787   -8.0297    3.5154 C   0  0  0  0  0  0  0  0  0  0  0  0
    1.1048   -9.2215    3.2892 C   0  0  0  0  0  0  0  0  0  0  0  0
    1.2339   -9.7611    2.0189 C   0  0  0  0  0  0  0  0  0  0  0  0
    1.3583   -9.0036    0.9764 C   0  0  0  0  0  0  0  0  0  0  0  0
    1.5996   -7.6362    1.1311 C   0  0  0  0  0  0  0  0  0  0  0  0
    1.4830   -7.0928    2.3626 C   0  0  0  0  0  0  0  0  0  0  0  0
    1.1008  -11.2372    1.8542 C   0  0  2  0  0  0  0  0  0  0  0  0
    0.4812  -11.6084    0.6459 C   0  0  0  0  0  0  0  0  0  0  0  0
   -0.3691  -10.9312    0.0124 C   0  0  0  0  0  0  0  0  0  0  0  0
   -0.9284   -9.6856    0.5810 C   0  0  0  0  0  0  0  0  0  0  0  0
   -1.6505   -8.9364   -0.6012 C   0  0  0  0  0  0  0  0  0  0  0  0
   -1.3893   -9.2714   -1.9474 C   0  0  0  0  0  0  0  0  0  0  0  0
   -0.9118  -10.5190   -2.2444 C   0  0  0  0  0  0  0  0  0  0  0  0
   -0.4631  -11.3550   -1.3433 N   0  0  0  0  0  0  0  0  0  0  0  0
    1.4357   -5.6577    2.5978 C   0  0  0  0  0  0  0  0  0  0  0  0
   -2.0280   -8.4322   -2.9081 Cl  0  0  0  0  0  0  0  0  0  0  0  0
    1.1509  -11.9197    2.8693 C   0  0  0  0  0  0  0  0  0  0  0  0
    1.4476  -12.1032    3.8600 C   0  0  0  0  0  0  0  0  0  0  0  0
    1.2103  -13.5475    2.3306 C   0  0  0  0  0  0  0  0  0  0  0  0
  3  7  1  0
  7  8  1  1
  6 15  1  0
 12 16  1  0
  7 17  1  0
 17 18  2  0
 17 19  1  0
  8  9  1  0
  1  2  2  0
  2  3  1  0
  3  4  2  0
  4  5  1  0
  5  6  2  0
  1  6  1  0
  9 10  2  0
 10 11  1  0
 11 12  2  0
 12 13  1  0
 13 14  2  0
  9 14  1  0
M  END

$$$$
No_3450-/export/home/yangzhenyu/potential_scad_32_flow//YTHDC2/2024-12-06-03-22-00/
     RDKit          3D

 20 21  0  0  0  0  0  0  0  0999 V2000
    1.1787   -8.0297    3.5154 C   0  0  0  0  0  0  0  0  0  0  0  0
    1.1048   -9.2215    3.2892 C   0  0  0  0  0  0  0  0  0  0  0  0
    1.3627  -10.1721    4.3044 C   0  0  0  0  0  0  0  0  0  0  0  0
    1.0682  -11.5187    4.0618 C   0  0  0  0  0  0  0  0  0  0  0  0
    0.6332  -11.9655    2.9682 C   0  0  0  0  0  0  0  0  0  0  0  0
    0.4776  -11.1308    1.9203 C   0  0  0  0  0  0  0  0  0  0  0  0
    0.8479   -9.7565    2.0612 C   0  0  0  0  0  0  0  0  0  0  0  0
    1.1332   -7.0506    2.4348 C   0  0  0  0  0  0  0  0  0  0  0  0
    1.2125   -5.5716    2.6845 C   0  0  0  0  0  0  0  0  0  0  0  0
    0.4219  -13.4109    2.7812 O   0  0  0  0  0  0  0  0  0  0  0  0
    1.2048  -14.1678    2.0435 C   0  0  0  0  0  0  0  0  0  0  0  0
    1.9814  -13.5301    1.3682 C   0  0  0  0  0  0  0  0  0  0  0  0
    1.0551  -15.4945    2.1267 C   0  0  0  0  0  0  0  0  0  0  0  0
    2.1873  -16.2545    2.3223 N   0  0  0  0  0  0  0  0  0  0  0  0
    2.4418  -17.4194    2.3119 O   0  0  0  0  0  0  0  0  0  0  0  0
    0.9441   -4.7704    1.6920 C   0  0  0  0  0  0  0  0  0  0  0  0
    1.2863   -3.4668    1.8518 C   0  0  0  0  0  0  0  0  0  0  0  0
    2.1125   -3.0731    2.9459 C   0  0  0  0  0  0  0  0  0  0  0  0
    2.2751   -3.9077    3.9954 C   0  0  0  0  0  0  0  0  0  0  0  0
    1.9708   -5.2456    3.8291 N   0  0  0  0  0  0  0  0  0  0  0  0
  1  2  1  0
  1  8  2  3
  8  9  1  0
  5 10  1  0
 10 11  1  0
 11 12  1  0
 11 13  1  0
 13 14  1  0
 14 15  2  0
  2  3  2  0
  3  4  1  0
  4  5  2  0
  5  6  1  0
  6  7  2  0
  2  7  1  0
  9 16  2  0
 16 17  1  0
 17 18  2  0
 18 19  1  0
 19 20  2  0
  9 20  1  0
M  END

$$$$
No_3451-/export/home/yangzhenyu/potential_scad_32_flow//YTHDC2/2024-12-06-03-22-00/
     RDKit          3D

 19 20  0  0  1  0  0  0  0  0999 V2000
    1.1787   -8.0297    3.5154 Cl  0  0  0  0  0  0  0  0  0  0  0  0
    0.7279   -9.0023    2.8722 C   0  0  0  0  0  0  0  0  0  0  0  0
    1.3852  -10.2194    3.0621 C   0  0  0  0  0  0  0  0  0  0  0  0
    1.4545  -11.1895    2.1693 C   0  0  0  0  0  0  0  0  0  0  0  0
    0.8014  -11.1600    1.0315 C   0  0  0  0  0  0  0  0  0  0  0  0
    0.2687  -10.0102    0.6759 C   0  0  0  0  0  0  0  0  0  0  0  0
    0.1996   -8.9577    1.5190 C   0  0  0  0  0  0  0  0  0  0  0  0
   -0.5305   -7.8263    1.1578 C   0  0  0  0  0  0  0  0  0  0  0  0
    0.0929   -6.7773    0.9182 N   0  0  0  0  0  0  0  0  0  0  0  0
   -1.8780   -7.7932    1.0636 N   0  0  0  0  0  0  0  0  0  0  0  0
   -0.8582   -5.7226    0.7419 C   0  0  0  0  0  0  0  0  0  0  0  0
   -2.0813   -6.4347    0.7252 C   0  0  0  0  0  0  0  0  0  0  0  0
   -0.6337   -4.2631    0.4958 C   0  0  0  0  0  0  0  0  0  0  0  0
   -1.2925   -3.5003    1.2417 C   0  0  0  0  0  0  0  0  0  0  0  0
   -0.4507   -2.2074    1.4880 C   0  0  1  0  0  0  0  0  0  0  0  0
    0.0177   -2.0204    2.7443 C   0  0  0  0  0  0  0  0  0  0  0  0
    1.0618   -1.2177    2.9433 C   0  0  0  0  0  0  0  0  0  0  0  0
    0.2560   -1.5621    0.4162 C   0  0  0  0  0  0  0  0  0  0  0  0
   -0.2305   -1.7965   -0.9889 C   0  0  0  0  0  0  0  0  0  0  0  0
  1  2  1  0
  7  8  1  0
  8  9  2  0
  8 10  1  0
  9 11  1  0
 10 12  1  0
 11 12  2  0
 11 13  1  0
 13 14  1  0
 15 14  1  6
 15 16  1  0
 16 17  2  0
 15 18  1  0
 18 19  1  0
  2  3  2  0
  3  4  1  0
  4  5  2  0
  5  6  1  0
  6  7  2  0
  2  7  1  0
M  END

$$$$
No_3452-/export/home/yangzhenyu/potential_scad_32_flow//YTHDC2/2024-12-06-03-22-00/
     RDKit          3D

 19 20  0  0  1  0  0  0  0  0999 V2000
    1.1787   -8.0297    3.5154 C   0  0  0  0  0  0  0  0  0  0  0  0
    1.1048   -9.2215    3.2892 C   0  0  0  0  0  0  0  0  0  0  0  0
    1.2339   -9.7611    2.0189 C   0  0  0  0  0  0  0  0  0  0  0  0
    1.3583   -9.0036    0.9764 C   0  0  0  0  0  0  0  0  0  0  0  0
    1.5996   -7.6362    1.1311 C   0  0  0  0  0  0  0  0  0  0  0  0
    1.4830   -7.0928    2.3626 C   0  0  0  0  0  0  0  0  0  0  0  0
    1.5395   -5.7300    2.6182 C   0  0  0  0  0  0  0  0  0  0  0  0
    1.1775  -11.2233    1.8407 C   0  0  1  0  0  0  0  0  0  0  0  0
    0.7252  -11.5870    0.5412 C   0  0  0  0  0  0  0  0  0  0  0  0
   -0.5181  -12.2492    0.6137 C   0  0  0  0  0  0  0  0  0  0  0  0
   -1.1800  -12.6687   -0.6156 C   0  0  0  0  0  0  0  0  0  0  0  0
   -1.4456  -13.9183   -0.8750 C   0  0  0  0  0  0  0  0  0  0  0  0
   -1.9310  -14.2524   -2.1251 C   0  0  0  0  0  0  0  0  0  0  0  0
   -2.3989  -13.2805   -2.8891 C   0  0  0  0  0  0  0  0  0  0  0  0
   -2.2256  -11.9951   -2.6234 C   0  0  0  0  0  0  0  0  0  0  0  0
   -1.6037  -11.6175   -1.4482 C   0  0  0  0  0  0  0  0  0  0  0  0
    1.8541  -11.9594    2.6666 C   0  0  0  0  0  0  0  0  0  0  0  0
    1.2288  -12.9273    3.3077 C   0  0  0  0  0  0  0  0  0  0  0  0
    1.1300  -14.1566    2.6668 C   0  0  0  0  0  0  0  0  0  0  0  0
  6  7  1  0
  3  8  1  0
  8  9  1  0
  9 10  2  3
 10 11  1  0
  8 17  1  6
 17 18  1  0
 18 19  1  0
 11 12  2  0
 12 13  1  0
 13 14  2  0
 14 15  1  0
 15 16  2  0
 11 16  1  0
  1  2  2  0
  2  3  1  0
  3  4  2  0
  4  5  1  0
  5  6  2  0
  1  6  1  0
M  END

$$$$
No_3453-/export/home/yangzhenyu/potential_scad_32_flow//YTHDC2/2024-12-06-03-22-00/
     RDKit          3D

 20 20  0  0  1  0  0  0  0  0999 V2000
    1.1787   -8.0297    3.5154 C   0  0  0  0  0  0  0  0  0  0  0  0
    1.0491   -6.8434    2.9820 C   0  0  0  0  0  0  0  0  0  0  0  0
    0.9905   -9.0774    2.6527 C   0  0  0  0  0  0  0  0  0  0  0  0
    1.1655  -10.4663    3.1286 C   0  0  1  0  0  0  0  0  0  0  0  0
    1.7409  -10.6480    4.4599 C   0  0  0  0  0  0  0  0  0  0  0  0
    0.4783   -6.4688    1.7590 C   0  0  0  0  0  0  0  0  0  0  0  0
    0.2119   -7.5787    0.9640 C   0  0  0  0  0  0  0  0  0  0  0  0
    0.4248   -8.8744    1.3136 C   0  0  0  0  0  0  0  0  0  0  0  0
    0.0668  -11.4236    3.0746 C   0  0  1  0  0  0  0  0  0  0  0  0
   -1.1612  -11.1173    3.5415 C   0  0  0  0  0  0  0  0  0  0  0  0
    0.3607   -5.2262    1.2345 Cl  0  0  0  0  0  0  0  0  0  0  0  0
   -1.9543  -10.6076    3.1260 O   0  0  0  0  0  0  0  0  0  0  0  0
   -1.5045  -11.7221    4.6023 O   0  0  0  0  0  0  0  0  0  0  0  0
    3.1306  -11.3986    4.3294 O   0  0  0  0  0  0  0  0  0  0  0  0
    0.3541  -12.5906    2.4309 C   0  0  0  0  0  0  0  0  0  0  0  0
    1.1920  -13.4860    3.0164 C   0  0  0  0  0  0  0  0  0  0  0  0
    1.7309  -14.6088    2.3785 C   0  0  1  0  0  0  0  0  0  0  0  0
    2.8566  -14.2112    1.6423 C   0  0  0  0  0  0  0  0  0  0  0  0
    2.1962  -15.8300    3.2657 C   0  0  0  0  0  0  0  0  0  0  0  0
    1.2207  -16.6819    3.6078 C   0  0  0  0  0  0  0  0  0  0  0  0
  3  4  1  0
  4  5  1  1
  4  9  1  0
  9 10  1  0
  6 11  1  0
 10 12  2  0
 10 13  1  0
  5 14  1  0
  9 15  1  6
 15 16  1  0
 16 17  1  0
 17 18  1  1
 17 19  1  0
 19 20  1  0
  1  2  2  0
  2  6  1  0
  6  7  2  0
  7  8  1  0
  3  8  2  0
  1  3  1  0
M  END

$$$$
No_3454-/export/home/yangzhenyu/potential_scad_32_flow//YTHDC2/2024-12-06-03-22-00/
     RDKit          3D

 17 17  0  0  1  0  0  0  0  0999 V2000
    1.1787   -8.0297    3.5154 C   0  0  0  0  0  0  0  0  0  0  0  0
    1.1048   -9.2215    3.2892 C   0  0  0  0  0  0  0  0  0  0  0  0
    1.2339   -9.7611    2.0189 C   0  0  0  0  0  0  0  0  0  0  0  0
    1.3583   -9.0036    0.9764 C   0  0  0  0  0  0  0  0  0  0  0  0
    1.5996   -7.6362    1.1311 C   0  0  0  0  0  0  0  0  0  0  0  0
    1.4830   -7.0928    2.3626 C   0  0  0  0  0  0  0  0  0  0  0  0
    1.5395   -5.7300    2.6182 C   0  0  0  0  0  0  0  0  0  0  0  0
    1.1775  -11.2233    1.8407 C   0  0  1  0  0  0  0  0  0  0  0  0
    0.7252  -11.5870    0.5412 N   0  0  0  0  0  0  0  0  0  0  0  0
    1.6030  -12.0513    2.6420 C   0  0  0  0  0  0  0  0  0  0  0  0
    1.5906  -13.4420    2.3152 C   0  0  0  0  0  0  0  0  0  0  0  0
    1.0817  -13.8202    1.0777 Cl  0  0  0  0  0  0  0  0  0  0  0  0
    2.1536  -14.4123    3.2115 C   0  0  0  0  0  0  0  0  0  0  0  0
    1.2686  -15.4823    3.6474 O   0  0  0  0  0  0  0  0  0  0  0  0
    0.6267   -4.8681    2.7817 O   0  0  0  0  0  0  0  0  0  0  0  0
    0.4665  -11.0922   -0.3578 C   0  0  0  0  0  0  0  0  0  0  0  0
    0.6860  -10.0075   -0.8872 O   0  0  0  0  0  0  0  0  0  0  0  0
  6  7  1  0
  3  8  1  0
  8  9  1  6
  8 10  1  0
 10 11  2  3
 11 12  1  0
 11 13  1  0
 13 14  1  0
  7 15  2  0
  9 16  1  0
 16 17  2  0
  1  2  2  0
  2  3  1  0
  3  4  2  0
  4  5  1  0
  5  6  2  0
  1  6  1  0
M  END

$$$$
No_3455-/export/home/yangzhenyu/potential_scad_32_flow//YTHDC2/2024-12-06-03-22-00/
     RDKit          3D

 19 21  0  0  0  0  0  0  0  0999 V2000
    1.1787   -8.0297    3.5154 C   0  0  0  0  0  0  0  0  0  0  0  0
    1.0491   -6.8434    2.9820 C   0  0  0  0  0  0  0  0  0  0  0  0
    0.0950   -8.8404    3.2292 C   0  0  0  0  0  0  0  0  0  0  0  0
   -0.9173   -8.4596    2.5152 C   0  0  0  0  0  0  0  0  0  0  0  0
   -1.0331   -7.2162    2.0653 C   0  0  0  0  0  0  0  0  0  0  0  0
   -0.0105   -6.3168    2.3081 C   0  0  0  0  0  0  0  0  0  0  0  0
    0.1935  -10.3737    3.7416 C   0  0  0  0  0  0  0  0  0  0  0  0
   -0.9968  -11.0614    3.6410 C   0  0  0  0  0  0  0  0  0  0  0  0
   -2.0651  -10.5736    2.9123 C   0  0  0  0  0  0  0  0  0  0  0  0
   -2.0392   -9.2902    2.3541 C   0  0  0  0  0  0  0  0  0  0  0  0
   -0.0571   -4.9397    1.9061 C   0  0  0  0  0  0  0  0  0  0  0  0
    0.8404   -4.0543    2.1746 C   0  0  0  0  0  0  0  0  0  0  0  0
    0.8031   -2.7197    1.6610 C   0  0  0  0  0  0  0  0  0  0  0  0
   -0.4211   -2.5626    0.8576 C   0  0  0  0  0  0  0  0  0  0  0  0
   -1.2985   -3.3914    0.4923 C   0  0  0  0  0  0  0  0  0  0  0  0
   -1.1937   -4.6721    0.9930 C   0  0  0  0  0  0  0  0  0  0  0  0
   -2.5202   -2.9364   -0.0302 N   0  0  0  0  0  0  0  0  0  0  0  0
    1.4758  -10.7734    4.7046 C   0  0  0  0  0  0  0  0  0  0  0  0
    1.8764  -11.9643    3.9867 C   0  0  0  0  0  0  0  0  0  0  0  0
  6 11  1  0
  7 18  1  0
 18 19  1  0
 15 17  1  0
 11 12  2  0
 12 13  1  0
 13 14  2  0
 14 15  1  0
 15 16  2  0
 11 16  1  0
  4 10  2  0
  9 10  1  0
  8  9  2  0
  7  8  1  0
  3  7  2  0
  1  2  2  0
  2  6  1  0
  5  6  2  0
  4  5  1  0
  3  4  1  0
  1  3  1  0
M  END

$$$$
No_3456-/export/home/yangzhenyu/potential_scad_32_flow//YTHDC2/2024-12-06-03-22-00/
     RDKit          3D

 19 20  0  0  0  0  0  0  0  0999 V2000
    1.1787   -8.0297    3.5154 C   0  0  0  0  0  0  0  0  0  0  0  0
    1.1048   -9.2215    3.2892 C   0  0  0  0  0  0  0  0  0  0  0  0
    1.3627  -10.1721    4.3044 C   0  0  0  0  0  0  0  0  0  0  0  0
    1.7354  -11.4730    3.9023 C   0  0  0  0  0  0  0  0  0  0  0  0
    1.8080  -11.8127    2.7216 C   0  0  0  0  0  0  0  0  0  0  0  0
    1.5854  -11.0021    1.7249 C   0  0  0  0  0  0  0  0  0  0  0  0
    1.3573   -9.7389    1.9287 C   0  0  0  0  0  0  0  0  0  0  0  0
    1.2865   -8.8078    0.9161 C   0  0  0  0  0  0  0  0  0  0  0  0
    0.9210   -7.5140    1.1674 C   0  0  0  0  0  0  0  0  0  0  0  0
    1.0097   -7.0192    2.4369 C   0  0  0  0  0  0  0  0  0  0  0  0
    0.9449   -5.6296    2.7100 C   0  0  0  0  0  0  0  0  0  0  0  0
    2.0493  -13.2614    2.4251 C   0  0  0  0  0  0  0  0  0  0  0  0
    2.3806  -13.7446    1.3056 O   0  0  0  0  0  0  0  0  0  0  0  0
    2.0485  -14.1730    3.3983 O   0  0  0  0  0  0  0  0  0  0  0  0
    1.6991   -5.1994    3.6843 N   0  0  0  0  0  0  0  0  0  0  0  0
    0.2130   -4.8425    2.0689 O   0  0  0  0  0  0  0  0  0  0  0  0
    1.3649   -9.2022   -0.4046 C   0  0  0  0  0  0  0  0  0  0  0  0
    1.5012   -8.7308   -1.2986 O   0  0  0  0  0  0  0  0  0  0  0  0
    1.1895  -10.4735   -0.7572 O   0  0  0  0  0  0  0  0  0  0  0  0
 10 11  1  0
  5 12  1  0
 12 13  2  0
 12 14  1  0
 11 15  1  0
 11 16  2  0
  8 17  1  0
 17 18  2  0
 17 19  1  0
  1  2  2  0
  7  8  2  0
  8  9  1  0
  9 10  2  0
  1 10  1  0
  2  3  1  0
  3  4  2  0
  4  5  1  0
  5  6  2  0
  6  7  1  0
  2  7  1  0
M  END

$$$$
No_3457-/export/home/yangzhenyu/potential_scad_32_flow//YTHDC2/2024-12-06-03-22-00/
     RDKit          3D

 19 21  0  0  1  0  0  0  0  0999 V2000
    1.1787   -8.0297    3.5154 C   0  0  0  0  0  0  0  0  0  0  0  0
    1.1048   -9.2215    3.2892 C   0  0  0  0  0  0  0  0  0  0  0  0
    1.3627  -10.1721    4.3044 C   0  0  0  0  0  0  0  0  0  0  0  0
    1.0682  -11.5187    4.0618 C   0  0  0  0  0  0  0  0  0  0  0  0
    0.6332  -11.9655    2.9682 C   0  0  0  0  0  0  0  0  0  0  0  0
    0.4719  -13.4293    2.7591 C   0  0  0  0  0  0  0  0  0  0  0  0
   -0.2373  -13.9045    1.9156 C   0  0  0  0  0  0  0  0  0  0  0  0
   -0.6874  -13.0854    0.9071 C   0  0  0  0  0  0  0  0  0  0  0  0
   -0.6225  -11.7618    0.9866 C   0  0  0  0  0  0  0  0  0  0  0  0
    0.1549  -11.1806    2.0058 C   0  0  0  0  0  0  0  0  0  0  0  0
    0.5344   -9.8626    2.0972 C   0  0  0  0  0  0  0  0  0  0  0  0
    1.1205   -7.0815    2.4572 C   0  0  2  0  0  0  0  0  0  0  0  0
    0.8561   -7.5521    1.2069 C   0  0  0  0  0  0  0  0  0  0  0  0
    0.5054   -8.8594    0.9880 C   0  0  0  0  0  0  0  0  0  0  0  0
    0.1790   -9.1631   -0.2308 O   0  0  0  0  0  0  0  0  0  0  0  0
    1.4752   -5.6507    2.6803 O   0  0  0  0  0  0  0  0  0  0  0  0
    0.9100   -6.7074    0.2415 O   0  0  0  0  0  0  0  0  0  0  0  0
    0.8922  -14.3421    3.8274 C   0  0  0  0  0  0  0  0  0  0  0  0
    1.3193  -15.6279    3.2751 N   0  0  0  0  0  0  0  0  0  0  0  0
  1  2  1  0
 12 13  1  0
 11 14  1  0
 13 14  1  0
 14 15  2  0
 12 16  1  6
 13 17  2  0
  6 18  1  0
 18 19  1  0
  1 12  1  0
  2  3  2  0
  3  4  1  0
  4  5  2  0
 10 11  2  0
  2 11  1  0
  5  6  1  0
  6  7  2  0
  7  8  1  0
  8  9  2  0
  9 10  1  0
  5 10  1  0
M  END

$$$$
No_3458-/export/home/yangzhenyu/potential_scad_32_flow//YTHDC2/2024-12-06-03-22-00/
     RDKit          3D

 18 19  0  0  0  0  0  0  0  0999 V2000
    1.1787   -8.0297    3.5154 C   0  0  0  0  0  0  0  0  0  0  0  0
    1.0491   -6.8434    2.9820 C   0  0  0  0  0  0  0  0  0  0  0  0
    0.0950   -8.8404    3.2292 C   0  0  0  0  0  0  0  0  0  0  0  0
   -0.9173   -8.4596    2.5152 C   0  0  0  0  0  0  0  0  0  0  0  0
   -1.0331   -7.2162    2.0653 C   0  0  0  0  0  0  0  0  0  0  0  0
   -0.0105   -6.3168    2.3081 C   0  0  0  0  0  0  0  0  0  0  0  0
    0.0485   -4.9783    1.8782 C   0  0  0  0  0  0  0  0  0  0  0  0
    0.9625   -4.1072    2.3252 Cl  0  0  0  0  0  0  0  0  0  0  0  0
    0.1416  -10.2877    3.6681 C   0  0  0  0  0  0  0  0  0  0  0  0
    1.1920  -10.9309    4.1167 C   0  0  0  0  0  0  0  0  0  0  0  0
    2.4853  -10.5262    3.9646 C   0  0  0  0  0  0  0  0  0  0  0  0
    3.2807  -11.1321    3.8388 C   0  0  0  0  0  0  0  0  0  0  0  0
   -0.7218   -4.4986    0.9123 O   0  0  0  0  0  0  0  0  0  0  0  0
    3.1298  -12.2636    3.7669 N   0  0  0  0  0  0  0  0  0  0  0  0
    1.8932  -12.7672    3.6773 C   0  0  0  0  0  0  0  0  0  0  0  0
    0.8427  -12.2071    3.7034 N   0  0  0  0  0  0  0  0  0  0  0  0
    1.8208  -14.4118    3.2286 C   0  0  0  0  0  0  0  0  0  0  0  0
    2.7780  -14.9494    2.4852 C   0  0  0  0  0  0  0  0  0  0  0  0
  6  7  1  0
  7  8  1  0
  3  9  1  0
  7 13  2  0
 15 17  1  0
 17 18  1  0
  9 10  1  0
  1  2  2  0
  2  6  1  0
  5  6  2  0
  4  5  1  0
  3  4  2  0
  1  3  1  0
 10 11  2  0
 11 12  1  0
 12 14  2  0
 14 15  1  0
 15 16  2  0
 10 16  1  0
M  END

$$$$
No_3459-/export/home/yangzhenyu/potential_scad_32_flow//YTHDC2/2024-12-06-03-22-00/
     RDKit          3D

 18 19  0  0  1  0  0  0  0  0999 V2000
    1.1787   -8.0297    3.5154 C   0  0  0  0  0  0  0  0  0  0  0  0
    1.0491   -6.8434    2.9820 C   0  0  0  0  0  0  0  0  0  0  0  0
    1.0690   -9.1150    2.7206 C   0  0  0  0  0  0  0  0  0  0  0  0
    0.9689   -6.6391    1.6260 C   0  0  0  0  0  0  0  0  0  0  0  0
    0.9670   -9.0334    1.3824 C   0  0  0  0  0  0  0  0  0  0  0  0
    0.8189   -7.7113    0.8022 C   0  0  0  0  0  0  0  0  0  0  0  0
    1.2114  -10.5217    3.2468 C   0  0  0  0  0  0  0  0  0  0  0  0
    1.4486  -11.5524    2.5920 C   0  0  0  0  0  0  0  0  0  0  0  0
    1.6007  -12.8008    3.1985 C   0  0  0  0  0  0  0  0  0  0  0  0
    0.8508  -13.9501    2.5717 C   0  0  2  0  0  0  0  0  0  0  0  0
   -0.3781  -13.6976    2.1826 C   0  0  0  0  0  0  0  0  0  0  0  0
   -1.0633  -14.8035    1.6706 C   0  0  0  0  0  0  0  0  0  0  0  0
   -0.5524  -16.0148    1.4426 C   0  0  0  0  0  0  0  0  0  0  0  0
    0.7637  -16.3211    2.0093 C   0  0  0  0  0  0  0  0  0  0  0  0
    1.5381  -15.2548    2.5718 C   0  0  0  0  0  0  0  0  0  0  0  0
    0.8510   -5.3455    1.0725 C   0  0  0  0  0  0  0  0  0  0  0  0
    2.7596  -15.3216    2.9612 O   0  0  0  0  0  0  0  0  0  0  0  0
    0.1446   -4.3232    1.8420 C   0  0  0  0  0  0  0  0  0  0  0  0
  3  7  1  0
  7  8  2  3
  8  9  1  0
 10  9  1  1
 10 11  1  0
 12 13  1  0
 10 15  1  0
 14 15  1  0
  4 16  1  0
 15 17  2  0
 16 18  1  0
 11 12  1  0
 13 14  1  0
  1  2  2  0
  2  4  1  0
  4  6  2  0
  5  6  1  0
  3  5  2  0
  1  3  1  0
M  END

$$$$
No_3460-/export/home/yangzhenyu/potential_scad_32_flow//YTHDC2/2024-12-06-03-22-00/
     RDKit          3D

 18 19  0  0  1  0  0  0  0  0999 V2000
    1.1787   -8.0297    3.5154 C   0  0  0  0  0  0  0  0  0  0  0  0
    1.0491   -6.8434    2.9820 C   0  0  0  0  0  0  0  0  0  0  0  0
    0.9905   -9.0774    2.6527 C   0  0  0  0  0  0  0  0  0  0  0  0
    0.7897   -8.9519    1.3691 C   0  0  0  0  0  0  0  0  0  0  0  0
    0.7018   -7.7198    0.7892 C   0  0  0  0  0  0  0  0  0  0  0  0
    0.8918   -6.5957    1.6117 C   0  0  0  0  0  0  0  0  0  0  0  0
    1.0998  -10.4710    3.2437 C   0  0  2  0  0  0  0  0  0  0  0  0
    2.1917  -10.8879    3.7399 C   0  0  0  0  0  0  0  0  0  0  0  0
    0.8983   -5.2566    1.2088 C   0  0  0  0  0  0  0  0  0  0  0  0
    0.4926  -11.5176    2.4127 C   0  0  0  0  0  0  0  0  0  0  0  0
   -0.8659  -11.6426    2.6918 C   0  0  0  0  0  0  0  0  0  0  0  0
   -1.4330  -10.7854    3.7156 C   0  0  0  0  0  0  0  0  0  0  0  0
   -1.6690  -12.5622    2.2134 C   0  0  0  0  0  0  0  0  0  0  0  0
   -3.0629  -12.4727    2.4637 C   0  0  0  0  0  0  0  0  0  0  0  0
   -3.5579  -11.6994    3.5013 C   0  0  0  0  0  0  0  0  0  0  0  0
   -2.7189  -10.8708    4.2025 C   0  0  0  0  0  0  0  0  0  0  0  0
    2.8345  -11.9259    4.0466 O   0  0  0  0  0  0  0  0  0  0  0  0
    1.5917   -4.3442    1.8837 O   0  0  0  0  0  0  0  0  0  0  0  0
  3  7  1  0
  7  8  1  0
  6  9  1  0
  7 10  1  6
 10 11  1  0
  8 17  2  0
  9 18  2  0
 11 12  2  0
 12 16  1  0
 15 16  2  0
 14 15  1  0
 13 14  2  0
 11 13  1  0
  1  2  2  0
  2  6  1  0
  5  6  2  0
  4  5  1  0
  3  4  2  0
  1  3  1  0
M  END

$$$$
No_3461-/export/home/yangzhenyu/potential_scad_32_flow//YTHDC2/2024-12-06-03-22-00/
     RDKit          3D

 17 18  0  0  0  0  0  0  0  0999 V2000
    1.1787   -8.0297    3.5154 C   0  0  0  0  0  0  0  0  0  0  0  0
    1.1048   -9.2215    3.2892 C   0  0  0  0  0  0  0  0  0  0  0  0
    1.2339   -9.7611    2.0189 C   0  0  0  0  0  0  0  0  0  0  0  0
    1.3583   -9.0036    0.9764 C   0  0  0  0  0  0  0  0  0  0  0  0
    1.5996   -7.6362    1.1311 C   0  0  0  0  0  0  0  0  0  0  0  0
    1.4830   -7.0928    2.3626 C   0  0  0  0  0  0  0  0  0  0  0  0
    1.1008  -11.2372    1.8542 C   0  0  0  0  0  0  0  0  0  0  0  0
    0.4812  -11.6084    0.6459 C   0  0  0  0  0  0  0  0  0  0  0  0
   -0.6166  -12.2864    0.7859 C   0  0  0  0  0  0  0  0  0  0  0  0
   -0.7300  -13.0625    1.9848 C   0  0  0  0  0  0  0  0  0  0  0  0
    0.1540  -12.9133    3.0511 C   0  0  0  0  0  0  0  0  0  0  0  0
    1.1516  -11.9685    2.9361 C   0  0  0  0  0  0  0  0  0  0  0  0
    1.5663   -5.6461    2.6613 I   0  0  0  0  0  0  0  0  0  0  0  0
    2.0829  -11.7479    3.9290 C   0  0  0  0  0  0  0  0  0  0  0  0
   -1.5652  -14.2828    2.0646 C   0  0  0  0  0  0  0  0  0  0  0  0
   -2.7475  -13.9720    2.5818 C   0  0  0  0  0  0  0  0  0  0  0  0
   -3.6402  -15.0536    2.8597 Cl  0  0  0  0  0  0  0  0  0  0  0  0
  3  7  1  0
  6 13  1  0
 12 14  1  0
 10 15  1  0
 15 16  2  3
 16 17  1  0
  1  2  2  0
  2  3  1  0
  3  4  2  0
  4  5  1  0
  5  6  2  0
  1  6  1  0
  7  8  2  0
  8  9  1  0
  9 10  2  0
 10 11  1  0
 11 12  2  0
  7 12  1  0
M  END

$$$$
No_3462-/export/home/yangzhenyu/potential_scad_32_flow//YTHDC2/2024-12-06-03-22-00/
     RDKit          3D

 18 19  0  0  1  0  0  0  0  0999 V2000
    1.1787   -8.0297    3.5154 O   0  0  0  0  0  0  0  0  0  0  0  0
    0.9969   -8.9689    3.0048 C   0  0  1  0  0  0  0  0  0  0  0  0
    0.9976   -8.9567    1.6341 C   0  0  0  0  0  0  0  0  0  0  0  0
    0.7663   -7.7728    1.0082 C   0  0  0  0  0  0  0  0  0  0  0  0
    1.1468   -6.5619    1.6541 C   0  0  0  0  0  0  0  0  0  0  0  0
    1.3592   -6.6155    3.0007 C   0  0  1  0  0  0  0  0  0  0  0  0
    1.2035  -10.1894    3.6215 C   0  0  0  0  0  0  0  0  0  0  0  0
    1.3724  -11.3423    2.8771 C   0  0  0  0  0  0  0  0  0  0  0  0
    1.3261  -11.2581    1.4865 C   0  0  0  0  0  0  0  0  0  0  0  0
    1.1771  -10.0721    0.8483 C   0  0  1  0  0  0  0  0  0  0  0  0
    1.1392  -10.1274   -0.4457 Cl  0  0  0  0  0  0  0  0  0  0  0  0
    1.4143  -12.4895    0.8353 O   0  0  0  0  0  0  0  0  0  0  0  0
    1.6101  -12.8151    3.5913 C   0  0  0  0  0  0  0  0  0  0  0  0
    1.4737   -5.6128    3.8287 C   0  0  0  0  0  0  0  0  0  0  0  0
    1.2391   -5.4487    1.1044 O   0  0  0  0  0  0  0  0  0  0  0  0
    0.3849  -13.6771    3.1056 C   0  0  0  0  0  0  0  0  0  0  0  0
    0.9196  -15.1200    3.2025 O   0  0  0  0  0  0  0  0  0  0  0  0
    0.6464  -15.9039    2.2070 C   0  0  0  0  0  0  0  0  0  0  0  0
  1  2  1  0
  2  3  1  0
  3  4  1  0
  4  5  1  0
  1  6  1  0
  5  6  1  0
  2  7  1  6
  8  9  1  0
  3 10  1  0
  9 10  1  0
 10 11  1  6
  9 12  2  0
  8 13  1  0
  6 14  1  1
  5 15  2  0
 13 16  1  0
 16 17  1  0
 17 18  1  0
  7  8  1  0
M  END

$$$$
No_3463-/export/home/yangzhenyu/potential_scad_32_flow//YTHDC2/2024-12-06-03-22-00/
     RDKit          3D

 18 20  0  0  0  0  0  0  0  0999 V2000
    1.1787   -8.0297    3.5154 C   0  0  0  0  0  0  0  0  0  0  0  0
    1.0491   -6.8434    2.9820 C   0  0  0  0  0  0  0  0  0  0  0  0
    0.9905   -9.0774    2.6527 C   0  0  0  0  0  0  0  0  0  0  0  0
    0.7897   -8.9519    1.3691 C   0  0  0  0  0  0  0  0  0  0  0  0
    0.7018   -7.7198    0.7892 C   0  0  0  0  0  0  0  0  0  0  0  0
    0.8918   -6.5957    1.6117 C   0  0  0  0  0  0  0  0  0  0  0  0
    1.0711  -10.4814    3.2282 C   0  0  0  0  0  0  0  0  0  0  0  0
    1.1227  -11.5770    2.4616 C   0  0  0  0  0  0  0  0  0  0  0  0
    1.0412  -11.3415    1.0713 C   0  0  0  0  0  0  0  0  0  0  0  0
    1.0019  -10.1422    0.5249 C   0  0  0  0  0  0  0  0  0  0  0  0
    1.3059  -12.8546    2.9967 C   0  0  0  0  0  0  0  0  0  0  0  0
    0.1984  -13.7936    2.8061 C   0  0  0  0  0  0  0  0  0  0  0  0
    0.5342  -15.1743    3.0444 C   0  0  0  0  0  0  0  0  0  0  0  0
    1.9606  -15.5620    3.2932 C   0  0  0  0  0  0  0  0  0  0  0  0
    2.9482  -14.6291    3.0648 N   0  0  0  0  0  0  0  0  0  0  0  0
    2.6709  -13.3669    2.9487 C   0  0  0  0  0  0  0  0  0  0  0  0
    0.7389   -5.2889    1.0934 O   0  0  0  0  0  0  0  0  0  0  0  0
   -0.4759   -4.6396    1.1720 C   0  0  0  0  0  0  0  0  0  0  0  0
  8 11  1  0
  6 17  1  0
 17 18  1  0
 11 12  2  0
 12 13  1  0
 13 14  2  0
 14 15  1  0
 15 16  2  0
 11 16  1  0
  4 10  2  0
  9 10  1  0
  8  9  2  0
  7  8  1  0
  3  7  2  0
  1  2  2  0
  2  6  1  0
  5  6  2  0
  4  5  1  0
  3  4  1  0
  1  3  1  0
M  END

$$$$
No_3464-/export/home/yangzhenyu/potential_scad_32_flow//YTHDC2/2024-12-06-03-22-00/
     RDKit          3D

 17 19  0  0  0  0  0  0  0  0999 V2000
    1.1787   -8.0297    3.5154 C   0  0  0  0  0  0  0  0  0  0  0  0
    1.1048   -9.2215    3.2892 C   0  0  0  0  0  0  0  0  0  0  0  0
    1.3627  -10.1721    4.3044 C   0  0  0  0  0  0  0  0  0  0  0  0
    1.7354  -11.4730    3.9023 C   0  0  0  0  0  0  0  0  0  0  0  0
    1.8080  -11.8127    2.7216 C   0  0  0  0  0  0  0  0  0  0  0  0
    1.5854  -11.0021    1.7249 C   0  0  0  0  0  0  0  0  0  0  0  0
    1.3573   -9.7389    1.9287 C   0  0  0  0  0  0  0  0  0  0  0  0
    1.2865   -8.8078    0.9161 C   0  0  0  0  0  0  0  0  0  0  0  0
    0.9210   -7.5140    1.1674 C   0  0  0  0  0  0  0  0  0  0  0  0
    1.0097   -7.0192    2.4369 C   0  0  0  0  0  0  0  0  0  0  0  0
    2.0228  -13.2586    2.4222 O   0  0  0  0  0  0  0  0  0  0  0  0
    0.8144   -5.3812    2.7367 C   0  0  0  0  0  0  0  0  0  0  0  0
   -0.2596   -4.8733    2.3244 C   0  0  0  0  0  0  0  0  0  0  0  0
   -0.1343   -3.4357    2.0800 C   0  0  0  0  0  0  0  0  0  0  0  0
    1.0442   -2.8026    2.4373 C   0  0  0  0  0  0  0  0  0  0  0  0
    2.1531   -3.4845    2.8493 C   0  0  0  0  0  0  0  0  0  0  0  0
    2.0430   -4.8755    3.0770 C   0  0  0  0  0  0  0  0  0  0  0  0
  5 11  1  0
 10 12  1  0
  1  2  2  0
  7  8  2  0
  8  9  1  0
  9 10  2  0
  1 10  1  0
  2  3  1  0
  3  4  2  0
  4  5  1  0
  5  6  2  0
  6  7  1  0
  2  7  1  0
 12 13  2  0
 13 14  1  0
 14 15  2  0
 15 16  1  0
 16 17  2  0
 12 17  1  0
M  END

$$$$
No_3465-/export/home/yangzhenyu/potential_scad_32_flow//YTHDC2/2024-12-06-03-22-00/
     RDKit          3D

 16 16  0  0  0  0  0  0  0  0999 V2000
    1.1787   -8.0297    3.5154 C   0  0  0  0  0  0  0  0  0  0  0  0
    1.1048   -9.2215    3.2892 C   0  0  0  0  0  0  0  0  0  0  0  0
    1.2339   -9.7611    2.0189 C   0  0  0  0  0  0  0  0  0  0  0  0
    1.4306   -8.9466    1.1170 C   0  0  0  0  0  0  0  0  0  0  0  0
    1.6532   -7.5949    1.1786 C   0  0  0  0  0  0  0  0  0  0  0  0
    1.4973   -7.0739    2.4258 C   0  0  0  0  0  0  0  0  0  0  0  0
    1.6687   -9.4437   -0.3021 O   0  0  0  0  0  0  0  0  0  0  0  0
    1.2860  -11.2783    1.7711 C   0  0  0  0  0  0  0  0  0  0  0  0
    0.3785  -11.9795    2.3788 C   0  0  0  0  0  0  0  0  0  0  0  0
    0.7860  -13.0718    3.0399 C   0  0  0  0  0  0  0  0  0  0  0  0
    1.2320  -14.1561    2.2729 C   0  0  0  0  0  0  0  0  0  0  0  0
    2.5172  -14.6101    2.5005 O   0  0  0  0  0  0  0  0  0  0  0  0
    1.4965   -5.6026    2.6657 C   0  0  0  0  0  0  0  0  0  0  0  0
    1.0912  -13.9481    0.8634 O   0  0  0  0  0  0  0  0  0  0  0  0
    1.8392   -5.1277    3.7996 O   0  0  0  0  0  0  0  0  0  0  0  0
    0.8342   -4.8254    1.8018 O   0  0  0  0  0  0  0  0  0  0  0  0
  4  7  1  0
  3  8  1  0
  8  9  1  0
  9 10  1  0
 10 11  1  0
 11 12  1  0
  6 13  1  0
 11 14  2  0
 13 15  1  0
 13 16  2  0
  1  2  2  0
  2  3  1  0
  3  4  2  0
  4  5  1  0
  5  6  2  0
  1  6  1  0
M  END

$$$$
No_3466-/export/home/yangzhenyu/potential_scad_32_flow//YTHDC2/2024-12-06-03-22-00/
     RDKit          3D

 17 17  0  0  1  0  0  0  0  0999 V2000
    1.1787   -8.0297    3.5154 C   0  0  0  0  0  0  0  0  0  0  0  0
    1.0491   -6.8434    2.9820 C   0  0  0  0  0  0  0  0  0  0  0  0
    0.9905   -9.0774    2.6527 C   0  0  0  0  0  0  0  0  0  0  0  0
    0.7897   -8.9519    1.3691 C   0  0  0  0  0  0  0  0  0  0  0  0
    0.7018   -7.7198    0.7892 C   0  0  0  0  0  0  0  0  0  0  0  0
    0.8918   -6.5957    1.6117 C   0  0  0  0  0  0  0  0  0  0  0  0
    1.0774  -10.6059    3.3145 C   0  0  0  0  0  0  0  0  0  0  0  0
   -0.1032  -11.1934    3.4585 C   0  0  0  0  0  0  0  0  0  0  0  0
   -0.1482  -12.5102    3.2815 N   0  0  0  0  0  0  0  0  0  0  0  0
    1.0388  -13.2041    3.2591 C   0  0  0  0  0  0  0  0  0  0  0  0
   -1.2172  -10.5437    3.9559 O   0  0  0  0  0  0  0  0  0  0  0  0
    0.7596  -14.6504    2.8670 C   0  0  2  0  0  0  0  0  0  0  0  0
   -0.1868  -15.2523    2.9956 C   0  0  0  0  0  0  0  0  0  0  0  0
    2.0338  -15.3075    2.4601 C   0  0  0  0  0  0  0  0  0  0  0  0
    2.0274  -16.7154    2.4293 N   0  0  0  0  0  0  0  0  0  0  0  0
    0.8153   -5.3029    1.0682 C   0  0  0  0  0  0  0  0  0  0  0  0
    3.2133  -14.6680    2.2355 O   0  0  0  0  0  0  0  0  0  0  0  0
  3  7  1  0
  7  8  1  0
  8  9  1  0
  9 10  1  0
  8 11  2  0
 10 12  1  0
 12 13  1  1
 12 14  1  0
 14 15  1  0
  6 16  1  0
 14 17  2  0
  1  2  2  0
  2  6  1  0
  5  6  2  0
  4  5  1  0
  3  4  2  0
  1  3  1  0
M  END

$$$$
No_3467-/export/home/yangzhenyu/potential_scad_32_flow//YTHDC2/2024-12-06-03-22-00/
     RDKit          3D

 18 20  0  0  0  0  0  0  0  0999 V2000
    1.1787   -8.0297    3.5154 N   0  0  0  0  0  0  0  0  0  0  0  0
    1.0818   -9.0751    3.2053 C   0  0  0  0  0  0  0  0  0  0  0  0
    0.7576   -9.3725    1.9159 C   0  0  0  0  0  0  0  0  0  0  0  0
    0.7445  -10.8746    1.6491 C   0  0  0  0  0  0  0  0  0  0  0  0
    0.9910  -11.7526    2.6067 C   0  0  0  0  0  0  0  0  0  0  0  0
    1.4405  -11.4331    3.8064 C   0  0  0  0  0  0  0  0  0  0  0  0
    1.4304  -10.0463    4.1669 C   0  0  0  0  0  0  0  0  0  0  0  0
    1.1048   -6.8241    2.6625 C   0  0  0  0  0  0  0  0  0  0  0  0
    0.9671   -7.2362    1.3168 C   0  0  0  0  0  0  0  0  0  0  0  0
    0.8766   -8.4752    0.9274 C   0  0  0  0  0  0  0  0  0  0  0  0
    0.8996  -13.3418    2.3104 C   0  0  0  0  0  0  0  0  0  0  0  0
    1.7826  -14.1104    2.5937 C   0  0  0  0  0  0  0  0  0  0  0  0
    1.5596  -15.4419    2.5485 C   0  0  0  0  0  0  0  0  0  0  0  0
    0.4017  -15.9218    2.3395 C   0  0  0  0  0  0  0  0  0  0  0  0
   -0.6454  -15.0711    2.0835 C   0  0  0  0  0  0  0  0  0  0  0  0
   -0.4140  -13.7417    2.1854 C   0  0  0  0  0  0  0  0  0  0  0  0
    1.3335   -5.4733    3.1012 C   0  0  0  0  0  0  0  0  0  0  0  0
   -1.5066  -12.8905    1.9881 C   0  0  0  0  0  0  0  0  0  0  0  0
  5 11  1  0
  8 17  1  0
 16 18  1  0
 11 12  2  0
 12 13  1  0
 13 14  2  0
 14 15  1  0
 15 16  2  0
 11 16  1  0
  3  4  1  0
  4  5  2  0
  5  6  1  0
  6  7  2  0
  2  7  1  0
  1  2  2  0
  2  3  1  0
  3 10  2  0
  9 10  1  0
  8  9  2  0
  1  8  1  0
M  END

$$$$
No_3468-/export/home/yangzhenyu/potential_scad_32_flow//YTHDC2/2024-12-06-03-22-00/
     RDKit          3D

 18 20  0  0  1  0  0  0  0  0999 V2000
    1.1787   -8.0297    3.5154 C   0  0  0  0  0  0  0  0  0  0  0  0
    1.1048   -9.2215    3.2892 C   0  0  0  0  0  0  0  0  0  0  0  0
    1.3627  -10.1721    4.3044 C   0  0  0  0  0  0  0  0  0  0  0  0
    2.3720  -10.8948    4.2468 C   0  0  0  0  0  0  0  0  0  0  0  0
    1.0579   -7.0441    2.4219 C   0  0  0  0  0  0  0  0  0  0  0  0
    0.8578   -7.4970    1.1686 C   0  0  0  0  0  0  0  0  0  0  0  0
    0.7382   -8.7683    0.8754 C   0  0  0  0  0  0  0  0  0  0  0  0
    0.8882   -9.7347    1.9238 C   0  0  0  0  0  0  0  0  0  0  0  0
    0.5634  -10.9884    1.7836 C   0  0  1  0  0  0  0  0  0  0  0  0
    0.3024  -11.4888    0.7948 N   0  0  0  0  0  0  0  0  0  0  0  0
   -0.0361  -12.7760    0.6452 C   0  0  2  0  0  0  0  0  0  0  0  0
   -0.7557  -13.2486   -0.1375 C   0  0  0  0  0  0  0  0  0  0  0  0
    0.5065  -13.6119    1.7702 C   0  0  0  0  0  0  0  0  0  0  0  0
    0.9483  -12.9662    2.9806 C   0  0  0  0  0  0  0  0  0  0  0  0
    1.1029  -11.6692    3.0237 C   0  0  1  0  0  0  0  0  0  0  0  0
    1.1221  -13.7959    4.0228 O   0  0  0  0  0  0  0  0  0  0  0  0
    1.2230   -5.5878    2.6791 Cl  0  0  0  0  0  0  0  0  0  0  0  0
   -1.5190  -12.4514   -1.0469 O   0  0  0  0  0  0  0  0  0  0  0  0
  2  3  1  0
  3  4  1  0
  8  9  1  0
 10 11  1  0
 11 12  1  1
 11 13  1  0
 13 14  1  0
 15  4  1  6
  9 15  1  0
 14 15  1  0
 14 16  2  0
  5 17  1  0
 12 18  2  0
  9 10  1  6
  1  2  2  0
  2  8  1  0
  7  8  2  0
  6  7  1  0
  5  6  2  0
  1  5  1  0
M  END

$$$$
No_3469-/export/home/yangzhenyu/potential_scad_32_flow//YTHDC2/2024-12-06-03-22-00/
     RDKit          3D

 17 18  0  0  0  0  0  0  0  0999 V2000
    1.1787   -8.0297    3.5154 C   0  0  0  0  0  0  0  0  0  0  0  0
    1.0491   -6.8434    2.9820 C   0  0  0  0  0  0  0  0  0  0  0  0
    0.0950   -8.8404    3.2292 C   0  0  0  0  0  0  0  0  0  0  0  0
   -0.9173   -8.4596    2.5152 C   0  0  0  0  0  0  0  0  0  0  0  0
   -1.0331   -7.2162    2.0653 C   0  0  0  0  0  0  0  0  0  0  0  0
   -0.0105   -6.3168    2.3081 C   0  0  0  0  0  0  0  0  0  0  0  0
    0.1465  -10.2446    3.6981 C   0  0  0  0  0  0  0  0  0  0  0  0
    1.2433  -10.8239    4.0166 C   0  0  0  0  0  0  0  0  0  0  0  0
    1.0790  -12.2885    4.3779 C   0  0  0  0  0  0  0  0  0  0  0  0
    0.8834  -12.9822    3.2583 C   0  0  0  0  0  0  0  0  0  0  0  0
    0.9855  -14.4349    3.3223 C   0  0  0  0  0  0  0  0  0  0  0  0
    0.8179  -15.1867    2.3940 C   0  0  0  0  0  0  0  0  0  0  0  0
    0.3765  -14.7252    1.1820 C   0  0  0  0  0  0  0  0  0  0  0  0
    0.2101  -13.3434    1.0351 C   0  0  0  0  0  0  0  0  0  0  0  0
    0.5466  -12.4566    1.9962 C   0  0  0  0  0  0  0  0  0  0  0  0
   -0.1038   -4.9105    1.7292 N   0  0  0  0  0  0  0  0  0  0  0  0
    0.7423   -3.9737    2.2559 O   0  0  0  0  0  0  0  0  0  0  0  0
  3  7  1  0
  7  8  2  3
  8  9  1  0
  6 16  1  0
 16 17  2  0
  9 10  1  0
  1  2  2  0
  2  6  1  0
  5  6  2  0
  4  5  1  0
  3  4  2  0
  1  3  1  0
 10 11  2  0
 11 12  1  0
 12 13  2  0
 13 14  1  0
 14 15  2  0
 10 15  1  0
M  END

$$$$
No_3470-/export/home/yangzhenyu/potential_scad_32_flow//YTHDC2/2024-12-06-03-22-00/
     RDKit          3D

 18 19  0  0  1  0  0  0  0  0999 V2000
    1.1787   -8.0297    3.5154 C   0  0  0  0  0  0  0  0  0  0  0  0
    1.0491   -6.8434    2.9820 N   0  0  0  0  0  0  0  0  0  0  0  0
    1.0164   -9.0814    2.6596 C   0  0  0  0  0  0  0  0  0  0  0  0
    0.8420   -8.8183    1.4191 C   0  0  1  0  0  0  0  0  0  0  0  0
    0.8257   -7.4377    1.2233 C   0  0  0  0  0  0  0  0  0  0  0  0
    0.9947   -6.4434    1.9274 C   0  0  0  0  0  0  0  0  0  0  0  0
    0.9916   -5.1239    1.5207 O   0  0  0  0  0  0  0  0  0  0  0  0
    1.1078  -10.5091    3.1658 C   0  0  0  0  0  0  0  0  0  0  0  0
    2.2101  -10.9877    3.5904 C   0  0  0  0  0  0  0  0  0  0  0  0
    2.1731  -12.3077    4.0019 C   0  0  0  0  0  0  0  0  0  0  0  0
    0.9644  -12.9255    3.3730 C   0  0  0  0  0  0  0  0  0  0  0  0
   -0.0344  -12.3756    2.7285 C   0  0  0  0  0  0  0  0  0  0  0  0
    0.0518  -11.1249    2.6470 C   0  0  0  0  0  0  0  0  0  0  0  0
    1.0329  -14.4416    3.6121 N   0  0  0  0  0  0  0  0  0  0  0  0
    0.8631  -15.3097    2.6633 O   0  0  0  0  0  0  0  0  0  0  0  0
    0.7751   -9.8078    0.1675 C   0  0  0  0  0  0  0  0  0  0  0  0
    1.8505  -10.4565   -0.0315 O   0  0  0  0  0  0  0  0  0  0  0  0
   -0.2597   -9.9822   -0.4213 Cl  0  0  0  0  0  0  0  0  0  0  0  0
  1  2  1  0
  3  4  1  0
  2  6  1  0
  5  6  1  0
  6  7  2  0
  3  8  1  0
 11 14  1  0
 14 15  2  0
  4 16  1  6
 16 17  2  0
 16 18  1  0
  1  3  1  0
  4  5  1  0
  8  9  2  0
  9 10  1  0
 10 11  2  0
 11 12  1  0
 12 13  2  0
  8 13  1  0
M  END

$$$$
No_3471-/export/home/yangzhenyu/potential_scad_32_flow//YTHDC2/2024-12-06-03-22-00/
     RDKit          3D

 17 17  0  0  1  0  0  0  0  0999 V2000
    1.1787   -8.0297    3.5154 C   0  0  1  0  0  0  0  0  0  0  0  0
    1.1048   -9.2215    3.2892 C   0  0  0  0  0  0  0  0  0  0  0  0
    1.3627  -10.1721    4.3044 C   0  0  0  0  0  0  0  0  0  0  0  0
    1.7354  -11.4730    3.9023 C   0  0  0  0  0  0  0  0  0  0  0  0
    1.8080  -11.8127    2.7216 C   0  0  0  0  0  0  0  0  0  0  0  0
    1.5854  -11.0021    1.7249 C   0  0  0  0  0  0  0  0  0  0  0  0
    1.3573   -9.7389    1.9287 C   0  0  0  0  0  0  0  0  0  0  0  0
    1.2865   -8.8078    0.9161 C   0  0  0  0  0  0  0  0  0  0  0  0
    1.6845   -9.1638   -0.2896 C   0  0  0  0  0  0  0  0  0  0  0  0
    2.8611   -9.7120   -0.5522 O   0  0  0  0  0  0  0  0  0  0  0  0
    0.8762   -9.1802   -1.2265 O   0  0  0  0  0  0  0  0  0  0  0  0
    2.0539  -13.2448    2.4140 N   0  0  0  0  0  0  0  0  0  0  0  0
    2.3092   -7.1893    3.6766 N   0  0  0  0  0  0  0  0  0  0  0  0
    0.0072   -7.3097    3.5170 C   0  0  0  0  0  0  0  0  0  0  0  0
   -0.1796   -6.0650    3.1408 O   0  0  0  0  0  0  0  0  0  0  0  0
   -1.1894   -7.9046    3.9436 N   0  0  0  0  0  0  0  0  0  0  0  0
    2.0631  -13.8866    1.2421 O   0  0  0  0  0  0  0  0  0  0  0  0
  1  2  1  0
  7  8  1  0
  8  9  1  0
  9 10  1  0
  9 11  2  0
  5 12  1  0
  1 13  1  6
  1 14  1  0
 14 15  2  0
 14 16  1  0
 12 17  2  0
  2  3  2  0
  3  4  1  0
  4  5  2  0
  5  6  1  0
  6  7  2  0
  2  7  1  0
M  END

$$$$
No_3472-/export/home/yangzhenyu/potential_scad_32_flow//YTHDC2/2024-12-06-03-22-00/
     RDKit          3D

 18 19  0  0  0  0  0  0  0  0999 V2000
    1.1787   -8.0297    3.5154 O   0  0  0  0  0  0  0  0  0  0  0  0
    0.9969   -8.9689    3.0048 C   0  0  0  0  0  0  0  0  0  0  0  0
    1.3055  -10.1056    3.6616 C   0  0  0  0  0  0  0  0  0  0  0  0
    1.5709  -11.1115    3.2016 C   0  0  0  0  0  0  0  0  0  0  0  0
    1.6332  -11.2629    1.7349 C   0  0  0  0  0  0  0  0  0  0  0  0
    1.4616  -10.1742    0.9691 C   0  0  0  0  0  0  0  0  0  0  0  0
    1.1252   -9.0006    1.6051 C   0  0  0  0  0  0  0  0  0  0  0  0
    0.8275   -7.7749    1.0285 C   0  0  0  0  0  0  0  0  0  0  0  0
    1.3414   -6.7053    1.3717 O   0  0  0  0  0  0  0  0  0  0  0  0
   -0.0358   -7.6937    0.0328 O   0  0  0  0  0  0  0  0  0  0  0  0
    1.8958  -12.4221    3.8115 C   0  0  0  0  0  0  0  0  0  0  0  0
    1.4834  -13.6729    3.0295 C   0  0  0  0  0  0  0  0  0  0  0  0
    2.2068  -14.6372    2.6582 C   0  0  0  0  0  0  0  0  0  0  0  0
    1.8289  -15.8290    2.1732 C   0  0  0  0  0  0  0  0  0  0  0  0
    0.6244  -16.1526    2.0993 C   0  0  0  0  0  0  0  0  0  0  0  0
   -0.3366  -15.2786    2.6370 C   0  0  0  0  0  0  0  0  0  0  0  0
    0.0776  -14.0742    3.1975 C   0  0  0  0  0  0  0  0  0  0  0  0
   -1.8296  -15.6111    2.7193 O   0  0  0  0  0  0  0  0  0  0  0  0
  1  2  1  0
  7  8  1  0
  8  9  1  0
  8 10  2  0
  4 11  1  0
 11 12  1  0
 16 18  1  0
 12 13  2  0
 13 14  1  0
 14 15  2  0
 15 16  1  0
 16 17  2  0
 12 17  1  0
  2  3  2  0
  3  4  1  0
  4  5  2  0
  5  6  1  0
  6  7  2  0
  2  7  1  0
M  END

$$$$
No_3473-/export/home/yangzhenyu/potential_scad_32_flow//YTHDC2/2024-12-06-03-22-00/
     RDKit          3D

 20 22  0  0  0  0  0  0  0  0999 V2000
    1.1787   -8.0297    3.5154 C   0  0  0  0  0  0  0  0  0  0  0  0
    1.1048   -9.2215    3.2892 C   0  0  0  0  0  0  0  0  0  0  0  0
    1.3627  -10.1721    4.3044 C   0  0  0  0  0  0  0  0  0  0  0  0
    1.7354  -11.4730    3.9023 C   0  0  0  0  0  0  0  0  0  0  0  0
    1.8080  -11.8127    2.7216 C   0  0  0  0  0  0  0  0  0  0  0  0
    1.4028  -10.9289    1.8117 C   0  0  0  0  0  0  0  0  0  0  0  0
    1.2324   -9.6663    1.9861 C   0  0  0  0  0  0  0  0  0  0  0  0
    1.1223   -8.7716    0.9645 C   0  0  0  0  0  0  0  0  0  0  0  0
    1.6052   -9.0324   -0.1923 N   0  0  0  0  0  0  0  0  0  0  0  0
    0.5812   -7.4871    1.1135 N   0  0  0  0  0  0  0  0  0  0  0  0
    0.7494   -7.0367    2.4244 C   0  0  0  0  0  0  0  0  0  0  0  0
    0.5204   -5.6026    2.5865 C   0  0  0  0  0  0  0  0  0  0  0  0
    1.9638  -13.2018    2.3479 C   0  0  0  0  0  0  0  0  0  0  0  0
    1.1029  -13.9899    1.6770 N   0  0  0  0  0  0  0  0  0  0  0  0
    0.0347  -13.5324    1.3706 C   0  0  0  0  0  0  0  0  0  0  0  0
   -1.0631  -13.5899    2.1777 C   0  0  0  0  0  0  0  0  0  0  0  0
   -2.2213  -12.8723    2.0759 C   0  0  0  0  0  0  0  0  0  0  0  0
   -2.4139  -12.3193    0.8264 C   0  0  0  0  0  0  0  0  0  0  0  0
   -1.3995  -12.2410   -0.1737 C   0  0  0  0  0  0  0  0  0  0  0  0
   -0.2049  -12.9000    0.0891 C   0  0  0  0  0  0  0  0  0  0  0  0
 11 12  1  0
  5 13  1  0
 13 14  1  0
 14 15  1  0
  8  9  1  0
 15 16  2  0
 16 17  1  0
 17 18  2  0
 18 19  1  0
 19 20  2  0
 15 20  1  0
  2  3  1  0
  3  4  2  0
  4  5  1  0
  5  6  2  0
  6  7  1  0
  1  2  2  0
  2  7  1  0
  7  8  2  0
  8 10  1  0
 10 11  2  0
  1 11  1  0
M  END

$$$$
No_3474-/export/home/yangzhenyu/potential_scad_32_flow//YTHDC2/2024-12-06-03-22-00/
     RDKit          3D

 19 20  0  0  1  0  0  0  0  0999 V2000
    1.1787   -8.0297    3.5154 C   0  0  0  0  0  0  0  0  0  0  0  0
    1.1048   -9.2215    3.2892 C   0  0  0  0  0  0  0  0  0  0  0  0
    1.2339   -9.7611    2.0189 C   0  0  0  0  0  0  0  0  0  0  0  0
    1.1954  -11.2312    1.8661 C   0  0  1  0  0  0  0  0  0  0  0  0
    1.2996  -11.5815    0.5387 C   0  0  0  0  0  0  0  0  0  0  0  0
    1.3263   -7.1208    2.3229 C   0  0  1  0  0  0  0  0  0  0  0  0
    1.3693   -7.6408    1.0625 C   0  0  0  0  0  0  0  0  0  0  0  0
    1.4358   -8.9950    0.8622 C   0  0  0  0  0  0  0  0  0  0  0  0
    1.1800  -13.0763    0.6448 C   0  0  0  0  0  0  0  0  0  0  0  0
    1.3113  -11.7825    2.9197 C   0  0  0  0  0  0  0  0  0  0  0  0
    1.1394  -13.2237    2.8778 C   0  0  0  0  0  0  0  0  0  0  0  0
    1.1076  -13.9011    1.7412 C   0  0  2  0  0  0  0  0  0  0  0  0
    1.3062   -5.6353    2.5392 Cl  0  0  0  0  0  0  0  0  0  0  0  0
    1.6297   -9.3500   -0.3661 O   0  0  0  0  0  0  0  0  0  0  0  0
    1.2122  -15.2128    1.7591 C   0  0  0  0  0  0  0  0  0  0  0  0
    0.7985  -16.0027    2.5056 O   0  0  0  0  0  0  0  0  0  0  0  0
    1.9300  -15.8976    0.7957 O   0  0  0  0  0  0  0  0  0  0  0  0
    1.5076   -6.8661    0.0717 O   0  0  0  0  0  0  0  0  0  0  0  0
    1.4717  -11.4127    4.1854 O   0  0  0  0  0  0  0  0  0  0  0  0
  1  2  1  0
  4  3  1  1
  4  5  1  0
  6  7  1  0
  3  8  1  0
  7  8  1  0
  4 10  1  0
 10 11  1  0
  9 12  1  0
 11 12  1  0
  6 13  1  6
  8 14  2  0
 12 15  1  1
 15 16  2  0
 15 17  1  0
  7 18  2  0
 10 19  2  0
  1  6  1  0
  2  3  1  0
  5  9  1  0
M  END

$$$$
No_3475-/export/home/yangzhenyu/potential_scad_32_flow//YTHDC2/2024-12-06-03-22-00/
     RDKit          3D

 17 17  0  0  0  0  0  0  0  0999 V2000
    1.1787   -8.0297    3.5154 N   0  0  0  0  0  0  0  0  0  0  0  0
    0.8669   -7.0905    2.8589 C   0  0  0  0  0  0  0  0  0  0  0  0
    1.0447   -7.3244    1.4123 C   0  0  0  0  0  0  0  0  0  0  0  0
    1.3746   -8.4389    1.0864 C   0  0  0  0  0  0  0  0  0  0  0  0
    1.8493   -9.4093    1.8124 C   0  0  0  0  0  0  0  0  0  0  0  0
    1.7421   -9.2119    3.1541 C   0  0  0  0  0  0  0  0  0  0  0  0
    2.0608  -10.3132    4.0586 C   0  0  0  0  0  0  0  0  0  0  0  0
    3.1142  -10.5956    4.4505 N   0  0  0  0  0  0  0  0  0  0  0  0
    1.0280  -11.2056    4.3109 O   0  0  0  0  0  0  0  0  0  0  0  0
    1.6225   -8.6536   -0.4354 C   0  0  0  0  0  0  0  0  0  0  0  0
    2.7516   -8.9394   -0.9510 O   0  0  0  0  0  0  0  0  0  0  0  0
    0.5960   -8.7368   -1.1885 O   0  0  0  0  0  0  0  0  0  0  0  0
    3.4372  -11.6896    5.2809 O   0  0  0  0  0  0  0  0  0  0  0  0
    0.4973   -5.8541    3.3339 C   0  0  0  0  0  0  0  0  0  0  0  0
    1.4945   -4.9325    3.3841 C   0  0  0  0  0  0  0  0  0  0  0  0
    0.9334   -3.5321    3.7684 C   0  0  0  0  0  0  0  0  0  0  0  0
    0.2947   -3.0411    2.5435 O   0  0  0  0  0  0  0  0  0  0  0  0
  6  7  1  0
  7  8  1  0
  7  9  2  0
  4 10  1  0
 10 11  1  0
 10 12  2  0
  8 13  2  0
  2 14  1  0
 14 15  1  0
 15 16  1  0
 16 17  1  0
  1  2  2  0
  2  3  1  0
  3  4  2  0
  4  5  1  0
  5  6  2  0
  1  6  1  0
M  END

$$$$
No_3476-/export/home/yangzhenyu/potential_scad_32_flow//YTHDC2/2024-12-06-03-22-00/
     RDKit          3D

 20 20  0  0  1  0  0  0  0  0999 V2000
    1.1787   -8.0297    3.5154 C   0  0  0  0  0  0  0  0  0  0  0  0
    1.0491   -6.8434    2.9820 C   0  0  0  0  0  0  0  0  0  0  0  0
    1.9985   -8.9840    2.8958 C   0  0  0  0  0  0  0  0  0  0  0  0
    1.9135  -10.3404    3.6266 C   0  0  2  0  0  0  0  0  0  0  0  0
    2.2847  -10.5440    4.7936 C   0  0  0  0  0  0  0  0  0  0  0  0
    0.3304   -6.7696    1.8077 C   0  0  1  0  0  0  0  0  0  0  0  0
    0.3816   -7.5583    0.9388 C   0  0  0  0  0  0  0  0  0  0  0  0
   -1.0052   -6.2856    2.2049 C   0  0  0  0  0  0  0  0  0  0  0  0
    2.4883  -11.2878    2.5333 C   0  0  0  0  0  0  0  0  0  0  0  0
    1.8446  -12.5872    2.7548 C   0  0  0  0  0  0  0  0  0  0  0  0
    1.0398  -12.9266    3.3826 C   0  0  0  0  0  0  0  0  0  0  0  0
    2.3846  -13.5741    1.6300 C   0  0  0  0  0  0  0  0  0  0  0  0
    1.9498  -14.8161    1.6324 C   0  0  0  0  0  0  0  0  0  0  0  0
    1.1810  -15.3087    2.5963 C   0  0  0  0  0  0  0  0  0  0  0  0
    0.8938  -16.6826    2.8018 C   0  0  0  0  0  0  0  0  0  0  0  0
    0.7529  -14.3751    3.6271 C   0  0  0  0  0  0  0  0  0  0  0  0
   -0.2990  -16.9726    3.2868 O   0  0  0  0  0  0  0  0  0  0  0  0
    1.8343  -17.5832    2.4350 O   0  0  0  0  0  0  0  0  0  0  0  0
    1.5964   -7.7744    0.1339 C   0  0  0  0  0  0  0  0  0  0  0  0
    2.7852   -7.1733    0.4172 C   0  0  0  0  0  0  0  0  0  0  0  0
  1  2  1  0
  1  3  1  0
  3  4  1  0
  4  5  1  1
  2  6  1  0
  6  7  1  0
  6  8  1  1
  4  9  1  0
  9 10  1  0
 14 15  1  0
 15 17  2  0
 15 18  1  0
  7 19  1  0
 19 20  1  0
 10 11  2  0
 11 16  1  0
 14 16  2  0
 13 14  1  0
 12 13  2  0
 10 12  1  0
M  END

$$$$
No_3477-/export/home/yangzhenyu/potential_scad_32_flow//YTHDC2/2024-12-06-03-22-00/
     RDKit          3D

 18 19  0  0  0  0  0  0  0  0999 V2000
    1.1787   -8.0297    3.5154 C   0  0  0  0  0  0  0  0  0  0  0  0
    1.1048   -9.2215    3.2892 C   0  0  0  0  0  0  0  0  0  0  0  0
    1.3627  -10.1721    4.3044 C   0  0  0  0  0  0  0  0  0  0  0  0
    2.3720  -10.8948    4.2468 C   0  0  0  0  0  0  0  0  0  0  0  0
    1.0579   -7.0441    2.4219 C   0  0  0  0  0  0  0  0  0  0  0  0
    0.8578   -7.4970    1.1686 C   0  0  0  0  0  0  0  0  0  0  0  0
    0.7382   -8.7683    0.8754 C   0  0  0  0  0  0  0  0  0  0  0  0
    0.8882   -9.7347    1.9238 C   0  0  0  0  0  0  0  0  0  0  0  0
    0.9437  -11.0299    1.7005 C   0  0  0  0  0  0  0  0  0  0  0  0
   -0.0869  -11.8512    1.8957 N   0  0  0  0  0  0  0  0  0  0  0  0
    0.1522  -13.1908    2.0549 C   0  0  0  0  0  0  0  0  0  0  0  0
   -0.8140  -14.0469    2.3978 C   0  0  0  0  0  0  0  0  0  0  0  0
   -2.0737  -13.6219    2.4956 C   0  0  0  0  0  0  0  0  0  0  0  0
   -2.3272  -12.1946    2.3541 C   0  0  0  0  0  0  0  0  0  0  0  0
   -1.3868  -11.3370    2.1522 C   0  0  0  0  0  0  0  0  0  0  0  0
    2.1202  -11.4918    1.2718 O   0  0  0  0  0  0  0  0  0  0  0  0
    1.2256   -5.3722    2.7132 C   0  0  0  0  0  0  0  0  0  0  0  0
    1.4062  -13.6880    2.0238 O   0  0  0  0  0  0  0  0  0  0  0  0
  2  3  1  0
  3  4  1  0
  8  9  1  0
  9 10  1  0
 10 11  1  0
 11 12  1  0
 13 14  1  0
 10 15  1  0
 14 15  1  0
  9 16  2  0
  5 17  1  0
 11 18  2  0
 12 13  1  0
  1  2  2  0
  2  8  1  0
  7  8  2  0
  6  7  1  0
  5  6  2  0
  1  5  1  0
M  END

$$$$
No_3478-/export/home/yangzhenyu/potential_scad_32_flow//YTHDC2/2024-12-06-03-22-00/
     RDKit          3D

 19 21  0  0  0  0  0  0  0  0999 V2000
    1.1787   -8.0297    3.5154 C   0  0  0  0  0  0  0  0  0  0  0  0
    1.0491   -6.8434    2.9820 C   0  0  0  0  0  0  0  0  0  0  0  0
    0.0950   -8.8404    3.2292 C   0  0  0  0  0  0  0  0  0  0  0  0
   -0.9173   -8.4596    2.5152 C   0  0  0  0  0  0  0  0  0  0  0  0
   -1.0331   -7.2162    2.0653 C   0  0  0  0  0  0  0  0  0  0  0  0
   -0.0105   -6.3168    2.3081 C   0  0  0  0  0  0  0  0  0  0  0  0
    0.1465  -10.2446    3.6981 C   0  0  0  0  0  0  0  0  0  0  0  0
    0.1907  -11.3369    2.8651 C   0  0  0  0  0  0  0  0  0  0  0  0
   -0.2018  -11.4456    1.8156 C   0  0  0  0  0  0  0  0  0  0  0  0
   -0.0417  -12.5281    1.0071 C   0  0  0  0  0  0  0  0  0  0  0  0
    0.6638  -13.6735    1.4181 C   0  0  0  0  0  0  0  0  0  0  0  0
    1.2515  -13.6210    2.6458 C   0  0  0  0  0  0  0  0  0  0  0  0
    1.0413  -12.5179    3.4920 C   0  0  0  0  0  0  0  0  0  0  0  0
    0.0421   -4.9486    1.8506 Br  0  0  0  0  0  0  0  0  0  0  0  0
    1.9600  -14.7068    3.2515 O   0  0  0  0  0  0  0  0  0  0  0  0
   -0.0638  -10.3328    5.1061 O   0  0  0  0  0  0  0  0  0  0  0  0
    2.4058  -15.6851    2.2929 C   0  0  0  0  0  0  0  0  0  0  0  0
    0.8695  -14.6534    0.5493 C   0  0  0  0  0  0  0  0  0  0  0  0
    1.5835  -15.8418    1.0906 C   0  0  0  0  0  0  0  0  0  0  0  0
  3  7  1  0
  7  8  1  0
  6 14  1  0
 12 15  1  0
  7 16  2  0
 15 17  1  0
 11 18  1  0
 17 19  1  0
 18 19  1  0
  1  2  2  0
  2  6  1  0
  5  6  2  0
  4  5  1  0
  3  4  2  0
  1  3  1  0
  8  9  2  0
  9 10  1  0
 10 11  2  0
 11 12  1  0
 12 13  2  0
  8 13  1  0
M  END

$$$$
No_3479-/export/home/yangzhenyu/potential_scad_32_flow//YTHDC2/2024-12-06-03-22-00/
     RDKit          3D

 20 22  0  0  0  0  0  0  0  0999 V2000
    1.1787   -8.0297    3.5154 C   0  0  0  0  0  0  0  0  0  0  0  0
    1.1048   -9.2215    3.2892 C   0  0  0  0  0  0  0  0  0  0  0  0
    1.3627  -10.1721    4.3044 C   0  0  0  0  0  0  0  0  0  0  0  0
    1.0682  -11.5187    4.0618 C   0  0  0  0  0  0  0  0  0  0  0  0
    0.6332  -11.9655    2.9682 C   0  0  0  0  0  0  0  0  0  0  0  0
    0.4776  -11.1308    1.9203 C   0  0  0  0  0  0  0  0  0  0  0  0
    0.7470   -9.8274    2.0368 C   0  0  0  0  0  0  0  0  0  0  0  0
    1.0387   -7.0301    2.5175 C   0  0  0  0  0  0  0  0  0  0  0  0
    0.9130   -7.5288    1.2013 C   0  0  0  0  0  0  0  0  0  0  0  0
    0.7893   -8.7979    0.9542 C   0  0  0  0  0  0  0  0  0  0  0  0
    0.5241   -9.2578   -0.2817 C   0  0  0  0  0  0  0  0  0  0  0  0
    1.2450   -9.2169   -1.2769 O   0  0  0  0  0  0  0  0  0  0  0  0
   -0.8125   -9.7173   -0.5966 N   0  0  0  0  0  0  0  0  0  0  0  0
    0.5169  -13.3675    2.6934 C   0  0  0  0  0  0  0  0  0  0  0  0
    1.4114  -14.3342    3.2311 C   0  0  0  0  0  0  0  0  0  0  0  0
    1.1993  -15.6767    3.0065 C   0  0  0  0  0  0  0  0  0  0  0  0
    0.3970  -16.1259    2.1214 C   0  0  0  0  0  0  0  0  0  0  0  0
   -0.4288  -15.2342    1.4800 C   0  0  0  0  0  0  0  0  0  0  0  0
   -0.2922  -13.8917    1.7557 C   0  0  0  0  0  0  0  0  0  0  0  0
    1.3381   -5.6356    2.7401 O   0  0  0  0  0  0  0  0  0  0  0  0
 10 11  1  0
 11 12  2  0
 11 13  1  0
  5 14  1  0
  8 20  1  0
  2  3  1  0
  3  4  2  0
  4  5  1  0
  5  6  2  0
  6  7  1  0
  1  2  2  0
  2  7  1  0
  7 10  2  0
  9 10  1  0
  8  9  2  0
  1  8  1  0
 14 15  2  0
 15 16  1  0
 16 17  2  0
 17 18  1  0
 18 19  2  0
 14 19  1  0
M  END

$$$$
No_3480-/export/home/yangzhenyu/potential_scad_32_flow//YTHDC2/2024-12-06-03-22-00/
     RDKit          3D

 16 16  0  0  1  0  0  0  0  0999 V2000
    1.1787   -8.0297    3.5154 C   0  0  0  0  0  0  0  0  0  0  0  0
    1.0491   -6.8434    2.9820 C   0  0  0  0  0  0  0  0  0  0  0  0
    1.0690   -9.1150    2.7206 C   0  0  0  0  0  0  0  0  0  0  0  0
    0.9689   -6.6391    1.6260 C   0  0  0  0  0  0  0  0  0  0  0  0
    0.9670   -9.0334    1.3824 C   0  0  0  0  0  0  0  0  0  0  0  0
    0.8189   -7.7113    0.8022 C   0  0  0  0  0  0  0  0  0  0  0  0
    1.2356  -10.6383    3.3202 C   0  0  0  0  0  0  0  0  0  0  0  0
    0.1657  -11.3254    3.4060 C   0  0  1  0  0  0  0  0  0  0  0  0
   -1.1043  -10.8208    3.4974 C   0  0  0  0  0  0  0  0  0  0  0  0
    0.2994  -12.7331    3.1512 C   0  0  0  0  0  0  0  0  0  0  0  0
    0.8814  -13.0892    2.0198 C   0  0  2  0  0  0  0  0  0  0  0  0
    0.4481  -12.7395    1.0238 C   0  0  0  0  0  0  0  0  0  0  0  0
    2.0211  -14.0553    2.1624 C   0  0  0  0  0  0  0  0  0  0  0  0
    0.9268   -5.1433    1.0377 F   0  0  0  0  0  0  0  0  0  0  0  0
    0.4781  -13.2802   -0.0560 O   0  0  0  0  0  0  0  0  0  0  0  0
   -1.5703  -10.0189    4.5688 O   0  0  0  0  0  0  0  0  0  0  0  0
  3  7  1  0
  8  7  1  6
  8  9  1  0
  8 10  1  0
 10 11  1  0
 11 12  1  0
 11 13  1  6
  4 14  1  0
 12 15  2  0
  9 16  1  0
  1  2  2  0
  2  4  1  0
  4  6  2  0
  5  6  1  0
  3  5  2  0
  1  3  1  0
M  END

$$$$
No_3481-/export/home/yangzhenyu/potential_scad_32_flow//YTHDC2/2024-12-06-03-22-00/
     RDKit          3D

 19 21  0  0  0  0  0  0  0  0999 V2000
    1.1787   -8.0297    3.5154 C   0  0  0  0  0  0  0  0  0  0  0  0
    1.1048   -9.2215    3.2892 C   0  0  0  0  0  0  0  0  0  0  0  0
    1.3627  -10.1721    4.3044 C   0  0  0  0  0  0  0  0  0  0  0  0
    1.0682  -11.5187    4.0618 C   0  0  0  0  0  0  0  0  0  0  0  0
    0.6332  -11.9655    2.9682 C   0  0  0  0  0  0  0  0  0  0  0  0
    0.4776  -11.1308    1.9203 C   0  0  0  0  0  0  0  0  0  0  0  0
    0.7470   -9.8274    2.0368 C   0  0  0  0  0  0  0  0  0  0  0  0
    0.5535   -7.1314    2.6861 C   0  0  0  0  0  0  0  0  0  0  0  0
    0.2950   -7.6000    1.3275 C   0  0  0  0  0  0  0  0  0  0  0  0
    0.2693   -8.8631    1.0973 C   0  0  0  0  0  0  0  0  0  0  0  0
    0.4648  -13.6251    2.7005 C   0  0  0  0  0  0  0  0  0  0  0  0
    1.4678  -14.4103    3.1602 C   0  0  0  0  0  0  0  0  0  0  0  0
    1.1703  -15.7576    2.9804 C   0  0  0  0  0  0  0  0  0  0  0  0
    0.1415  -16.2149    2.4418 C   0  0  0  0  0  0  0  0  0  0  0  0
   -0.7410  -15.3681    1.8628 C   0  0  0  0  0  0  0  0  0  0  0  0
   -0.5381  -14.0196    2.0493 C   0  0  0  0  0  0  0  0  0  0  0  0
   -0.1255   -9.2764   -0.1998 C   0  0  0  0  0  0  0  0  0  0  0  0
    0.6188   -9.2481   -1.2262 N   0  0  0  0  0  0  0  0  0  0  0  0
   -1.4172   -9.5270   -0.3153 O   0  0  0  0  0  0  0  0  0  0  0  0
  5 11  1  0
 10 17  1  0
 17 18  1  0
 17 19  2  0
 11 12  2  0
 12 13  1  0
 13 14  2  0
 14 15  1  0
 15 16  2  0
 11 16  1  0
  2  3  1  0
  3  4  2  0
  4  5  1  0
  5  6  2  0
  6  7  1  0
  1  2  2  0
  2  7  1  0
  7 10  2  0
  9 10  1  0
  8  9  2  0
  1  8  1  0
M  END

$$$$
No_3482-/export/home/yangzhenyu/potential_scad_32_flow//YTHDC2/2024-12-06-03-22-00/
     RDKit          3D

 18 20  0  0  0  0  0  0  0  0999 V2000
    1.1787   -8.0297    3.5154 C   0  0  0  0  0  0  0  0  0  0  0  0
    1.0491   -6.8434    2.9820 N   0  0  0  0  0  0  0  0  0  0  0  0
    0.1476   -8.8697    3.1493 C   0  0  0  0  0  0  0  0  0  0  0  0
   -0.7634   -8.3679    2.4311 C   0  0  0  0  0  0  0  0  0  0  0  0
   -0.1709   -6.9105    2.2426 C   0  0  0  0  0  0  0  0  0  0  0  0
    0.1600  -10.2773    3.5999 C   0  0  0  0  0  0  0  0  0  0  0  0
    0.5388  -11.2544    2.8758 C   0  0  0  0  0  0  0  0  0  0  0  0
    0.8864  -11.1155    1.6619 C   0  0  0  0  0  0  0  0  0  0  0  0
    1.4848  -12.1970    0.9840 C   0  0  0  0  0  0  0  0  0  0  0  0
    1.6546  -13.3961    1.5403 C   0  0  0  0  0  0  0  0  0  0  0  0
    1.4416  -13.5465    2.8576 C   0  0  0  0  0  0  0  0  0  0  0  0
    0.9029  -12.5327    3.5917 C   0  0  0  0  0  0  0  0  0  0  0  0
   -0.7638   -5.7586    1.6780 C   0  0  0  0  0  0  0  0  0  0  0  0
   -0.1156   -4.6143    1.7494 C   0  0  0  0  0  0  0  0  0  0  0  0
   -0.6034   -3.3873    1.3031 C   0  0  0  0  0  0  0  0  0  0  0  0
   -1.6963   -3.5726    0.3985 C   0  0  0  0  0  0  0  0  0  0  0  0
   -2.3855   -4.6938    0.3042 C   0  0  0  0  0  0  0  0  0  0  0  0
   -1.8670   -5.8781    0.8264 C   0  0  0  0  0  0  0  0  0  0  0  0
  1  2  1  0
  1  3  2  0
  3  4  1  0
  2  5  2  0
  4  5  1  0
  3  6  1  0
  6  7  1  0
  5 13  1  0
 13 14  2  0
 14 15  1  0
 15 16  2  0
 16 17  1  0
 17 18  2  0
 13 18  1  0
  7  8  2  0
  8  9  1  0
  9 10  2  0
 10 11  1  0
 11 12  2  0
  7 12  1  0
M  END

$$$$
No_3483-/export/home/yangzhenyu/potential_scad_32_flow//YTHDC2/2024-12-06-03-22-00/
     RDKit          3D

 18 18  0  0  0  0  0  0  0  0999 V2000
    1.1787   -8.0297    3.5154 C   0  0  0  0  0  0  0  0  0  0  0  0
    1.1048   -9.2215    3.2892 C   0  0  0  0  0  0  0  0  0  0  0  0
    1.2339   -9.7611    2.0189 C   0  0  0  0  0  0  0  0  0  0  0  0
    1.3583   -9.0036    0.9764 C   0  0  0  0  0  0  0  0  0  0  0  0
    1.7077   -9.6100   -0.3010 C   0  0  0  0  0  0  0  0  0  0  0  0
    1.3637   -7.1087    2.3226 C   0  0  0  0  0  0  0  0  0  0  0  0
    1.4257   -7.6645    1.0231 C   0  0  0  0  0  0  0  0  0  0  0  0
    1.9364   -8.8976   -1.3212 O   0  0  0  0  0  0  0  0  0  0  0  0
    1.2853  -10.8201   -0.4625 O   0  0  0  0  0  0  0  0  0  0  0  0
    1.1242  -10.1671    4.3962 Cl  0  0  0  0  0  0  0  0  0  0  0  0
    1.3274   -5.3634    2.5896 Cl  0  0  0  0  0  0  0  0  0  0  0  0
    1.2272  -11.1397    1.8990 O   0  0  0  0  0  0  0  0  0  0  0  0
    2.3890  -12.0140    2.0111 C   0  0  0  0  0  0  0  0  0  0  0  0
    1.9866  -13.3535    1.4714 C   0  0  0  0  0  0  0  0  0  0  0  0
    0.9310  -13.5922    1.0639 C   0  0  0  0  0  0  0  0  0  0  0  0
    0.0797  -13.9840    1.8926 C   0  0  0  0  0  0  0  0  0  0  0  0
   -0.3946  -15.0710    2.0574 C   0  0  0  0  0  0  0  0  0  0  0  0
   -1.5726  -15.4297    2.6224 C   0  0  0  0  0  0  0  0  0  0  0  0
  4  5  1  0
  5  8  2  0
  5  9  1  0
  2 10  1  0
  6 11  1  0
  3 12  1  0
 12 13  1  0
 13 14  1  0
 14 15  1  0
 15 16  1  0
 16 17  1  0
 17 18  2  0
  1  2  2  0
  2  3  1  0
  3  4  2  0
  4  7  1  0
  6  7  2  0
  1  6  1  0
M  END

$$$$
No_3484-/export/home/yangzhenyu/potential_scad_32_flow//YTHDC2/2024-12-06-03-22-00/
     RDKit          3D

 18 19  0  0  1  0  0  0  0  0999 V2000
    1.1787   -8.0297    3.5154 C   0  0  0  0  0  0  0  0  0  0  0  0
    1.0491   -6.8434    2.9820 C   0  0  0  0  0  0  0  0  0  0  0  0
    1.9985   -8.9840    2.8958 C   0  0  0  0  0  0  0  0  0  0  0  0
    1.7297   -9.2108    1.6335 C   0  0  0  0  0  0  0  0  0  0  0  0
    1.5234   -8.1478    0.8618 C   0  0  0  0  0  0  0  0  0  0  0  0
    1.0558   -6.9632    1.4912 C   0  0  0  0  0  0  0  0  0  0  0  0
    2.0857  -10.3821    3.6499 C   0  0  0  0  0  0  0  0  0  0  0  0
    1.5019  -11.4599    3.6088 C   0  0  2  0  0  0  0  0  0  0  0  0
    2.0504  -12.6541    3.5111 C   0  0  0  0  0  0  0  0  0  0  0  0
    1.4539  -13.5716    2.5578 C   0  0  2  0  0  0  0  0  0  0  0  0
    0.3733  -13.2007    1.9928 C   0  0  0  0  0  0  0  0  0  0  0  0
    0.2983  -11.7468    2.7075 C   0  0  0  0  0  0  0  0  0  0  0  0
    1.7182  -14.9775    2.6877 C   0  0  0  0  0  0  0  0  0  0  0  0
    1.1901  -15.5967    3.5291 O   0  0  0  0  0  0  0  0  0  0  0  0
    2.7028  -15.6229    1.9970 Br  0  0  0  0  0  0  0  0  0  0  0  0
    1.4333   -8.1477   -0.5641 O   0  0  0  0  0  0  0  0  0  0  0  0
    2.9294  -10.2801    4.6291 O   0  0  0  0  0  0  0  0  0  0  0  0
    0.8712   -5.6600    3.4679 C   0  0  0  0  0  0  0  0  0  0  0  0
  3  7  1  0
  8  7  1  6
  8  9  1  0
  9 10  1  0
 10 11  1  0
  8 12  1  0
 11 12  1  0
 10 13  1  1
 13 14  2  0
 13 15  1  0
  5 16  1  0
  7 17  2  0
  2 18  1  0
  1  2  2  0
  2  6  1  0
  5  6  2  0
  4  5  1  0
  3  4  2  0
  1  3  1  0
M  END

$$$$
No_3485-/export/home/yangzhenyu/potential_scad_32_flow//YTHDC2/2024-12-06-03-22-00/
     RDKit          3D

 19 21  0  0  0  0  0  0  0  0999 V2000
    1.1787   -8.0297    3.5154 N   0  0  0  0  0  0  0  0  0  0  0  0
    1.0818   -9.0751    3.2053 C   0  0  0  0  0  0  0  0  0  0  0  0
    1.5216  -10.1164    3.9747 C   0  0  0  0  0  0  0  0  0  0  0  0
    1.4823  -11.4258    3.6006 C   0  0  0  0  0  0  0  0  0  0  0  0
    0.7594  -11.7488    2.5365 C   0  0  0  0  0  0  0  0  0  0  0  0
    0.1233  -10.8366    1.8408 C   0  0  0  0  0  0  0  0  0  0  0  0
    0.4160   -9.5408    2.0369 C   0  0  0  0  0  0  0  0  0  0  0  0
    1.1822   -6.8212    2.7752 C   0  0  0  0  0  0  0  0  0  0  0  0
    1.2615   -7.1230    1.3431 C   0  0  0  0  0  0  0  0  0  0  0  0
    0.7858   -8.4150    0.9850 C   0  0  0  0  0  0  0  0  0  0  0  0
    0.4173   -8.5877   -0.2620 C   0  0  0  0  0  0  0  0  0  0  0  0
   -0.9728   -8.6105   -0.6475 O   0  0  0  0  0  0  0  0  0  0  0  0
    1.1458   -9.2107   -1.2076 O   0  0  0  0  0  0  0  0  0  0  0  0
    0.4977  -13.1866    2.2180 C   0  0  0  0  0  0  0  0  0  0  0  0
    1.4736  -14.1154    2.5826 C   0  0  0  0  0  0  0  0  0  0  0  0
    1.1637  -15.3963    2.8275 C   0  0  0  0  0  0  0  0  0  0  0  0
    0.0452  -15.8751    2.3581 C   0  0  0  0  0  0  0  0  0  0  0  0
   -0.9523  -15.0710    1.9851 C   0  0  0  0  0  0  0  0  0  0  0  0
   -0.7121  -13.7519    1.9424 C   0  0  0  0  0  0  0  0  0  0  0  0
 10 11  1  0
 11 12  2  0
 11 13  1  0
  5 14  1  0
  2  3  1  0
  3  4  2  0
  4  5  1  0
  5  6  2  0
  6  7  1  0
  1  2  2  0
  2  7  1  0
  7 10  2  0
  9 10  1  0
  8  9  2  0
  1  8  1  0
 14 15  2  0
 15 16  1  0
 16 17  2  0
 17 18  1  0
 18 19  2  0
 14 19  1  0
M  END

$$$$
No_3486-/export/home/yangzhenyu/potential_scad_32_flow//YTHDC2/2024-12-06-03-22-00/
     RDKit          3D

 19 19  0  0  1  0  0  0  0  0999 V2000
    1.1787   -8.0297    3.5154 C   0  0  0  0  0  0  0  0  0  0  0  0
    1.0491   -6.8434    2.9820 C   0  0  0  0  0  0  0  0  0  0  0  0
    0.9905   -9.0774    2.6527 C   0  0  0  0  0  0  0  0  0  0  0  0
    0.7897   -8.9519    1.3691 C   0  0  0  0  0  0  0  0  0  0  0  0
    0.7018   -7.7198    0.7892 C   0  0  0  0  0  0  0  0  0  0  0  0
    0.8918   -6.5957    1.6117 C   0  0  0  0  0  0  0  0  0  0  0  0
    1.0998  -10.4710    3.2437 C   0  0  0  0  0  0  0  0  0  0  0  0
    1.3102  -11.5554    2.5214 C   0  0  0  0  0  0  0  0  0  0  0  0
    1.4257  -12.8124    3.1919 C   0  0  0  0  0  0  0  0  0  0  0  0
    1.4301  -14.0627    2.4374 C   0  0  1  0  0  0  0  0  0  0  0  0
    0.8799   -5.2656    1.2046 C   0  0  0  0  0  0  0  0  0  0  0  0
    2.4117  -14.2020    1.4705 N   0  0  0  0  0  0  0  0  0  0  0  0
    0.7921  -15.1153    2.8003 C   0  0  0  0  0  0  0  0  0  0  0  0
    0.2030  -15.2575    3.8875 O   0  0  0  0  0  0  0  0  0  0  0  0
    0.8881  -16.2138    2.0074 N   0  0  0  0  0  0  0  0  0  0  0  0
    1.5355   -4.3477    1.9029 O   0  0  0  0  0  0  0  0  0  0  0  0
    0.5826   -5.0050    0.0119 O   0  0  0  0  0  0  0  0  0  0  0  0
    0.5564  -17.5167    2.3427 C   0  0  0  0  0  0  0  0  0  0  0  0
   -0.4704  -18.0342    2.1833 C   0  0  0  0  0  0  0  0  0  0  0  0
  3  7  1  0
  7  8  2  3
  8  9  1  0
  9 10  1  0
  6 11  1  0
 10 12  1  1
 10 13  1  0
 13 14  2  0
 13 15  1  0
 11 16  2  0
 11 17  1  0
 15 18  1  0
 18 19  1  0
  1  2  2  0
  2  6  1  0
  5  6  2  0
  4  5  1  0
  3  4  2  0
  1  3  1  0
M  END

$$$$
No_3487-/export/home/yangzhenyu/potential_scad_32_flow//YTHDC2/2024-12-06-03-22-00/
     RDKit          3D

 19 21  0  0  1  0  0  0  0  0999 V2000
    1.1787   -8.0297    3.5154 C   0  0  0  0  0  0  0  0  0  0  0  0
    1.1048   -9.2215    3.2892 C   0  0  0  0  0  0  0  0  0  0  0  0
    1.2339   -9.7611    2.0189 C   0  0  0  0  0  0  0  0  0  0  0  0
    1.1954  -11.2312    1.8661 C   0  0  2  0  0  0  0  0  0  0  0  0
    1.5546  -12.1691    2.7931 C   0  0  0  0  0  0  0  0  0  0  0  0
    0.5849   -7.0929    2.5729 C   0  0  0  0  0  0  0  0  0  0  0  0
    0.5567   -7.6699    1.1955 C   0  0  0  0  0  0  0  0  0  0  0  0
    0.7903   -8.9699    0.9209 C   0  0  0  0  0  0  0  0  0  0  0  0
    0.7806  -13.2965    2.8850 C   0  0  0  0  0  0  0  0  0  0  0  0
    0.6857  -14.0722    1.7345 C   0  0  2  0  0  0  0  0  0  0  0  0
    0.2673  -13.0990    0.6492 C   0  0  0  0  0  0  0  0  0  0  0  0
    0.9913  -11.8106    0.6013 C   0  0  0  0  0  0  0  0  0  0  0  0
    0.6137   -5.4501    2.6718 Cl  0  0  0  0  0  0  0  0  0  0  0  0
    0.5459  -15.3230    1.6944 C   0  0  0  0  0  0  0  0  0  0  0  0
   -0.4365  -15.9991    1.1460 N   0  0  0  0  0  0  0  0  0  0  0  0
    1.4880  -16.1848    2.4298 C   0  0  0  0  0  0  0  0  0  0  0  0
    1.2177  -17.6097    2.5521 C   0  0  0  0  0  0  0  0  0  0  0  0
    0.1765  -18.0642    1.8177 C   0  0  0  0  0  0  0  0  0  0  0  0
   -0.6756  -17.2295    1.2245 C   0  0  0  0  0  0  0  0  0  0  0  0
  4  3  1  6
  4  5  1  0
  5  9  1  0
  9 10  1  0
 10 11  1  0
  4 12  1  0
 11 12  1  0
  6 13  1  0
 10 14  1  1
  1  2  2  0
  2  3  1  0
  3  8  2  0
  7  8  1  0
  6  7  2  0
  1  6  1  0
 14 15  2  0
 15 19  1  0
 18 19  2  0
 17 18  1  0
 16 17  2  0
 14 16  1  0
M  END

$$$$
No_3488-/export/home/yangzhenyu/potential_scad_32_flow//YTHDC2/2024-12-06-03-22-00/
     RDKit          3D

 19 20  0  0  0  0  0  0  0  0999 V2000
    1.1787   -8.0297    3.5154 C   0  0  0  0  0  0  0  0  0  0  0  0
    1.0491   -6.8434    2.9820 C   0  0  0  0  0  0  0  0  0  0  0  0
    0.9905   -9.0774    2.6527 C   0  0  0  0  0  0  0  0  0  0  0  0
    0.7897   -8.9519    1.3691 C   0  0  0  0  0  0  0  0  0  0  0  0
    0.7018   -7.7198    0.7892 C   0  0  0  0  0  0  0  0  0  0  0  0
    0.8918   -6.5957    1.6117 C   0  0  0  0  0  0  0  0  0  0  0  0
    1.0998  -10.4710    3.2437 C   0  0  0  0  0  0  0  0  0  0  0  0
    0.0472  -11.2546    3.3963 C   0  0  0  0  0  0  0  0  0  0  0  0
    0.1622  -12.5732    3.4140 C   0  0  0  0  0  0  0  0  0  0  0  0
    1.4182  -13.1957    3.4048 C   0  0  0  0  0  0  0  0  0  0  0  0
    1.4947  -14.7093    3.1402 C   0  0  0  0  0  0  0  0  0  0  0  0
    0.2472  -15.3423    3.3057 O   0  0  0  0  0  0  0  0  0  0  0  0
    2.5028  -15.3531    2.9604 O   0  0  0  0  0  0  0  0  0  0  0  0
    0.8497   -5.2821    1.2155 C   0  0  0  0  0  0  0  0  0  0  0  0
    1.5335   -4.3344    1.9045 C   0  0  0  0  0  0  0  0  0  0  0  0
    2.0683   -4.5317    3.2166 C   0  0  0  0  0  0  0  0  0  0  0  0
    1.7938   -5.7851    3.7029 N   0  0  0  0  0  0  0  0  0  0  0  0
    1.5098   -2.9280    1.3978 Cl  0  0  0  0  0  0  0  0  0  0  0  0
    0.5860  -10.0288    0.4357 S   0  0  0  0  0  0  0  0  0  0  0  0
  3  7  1  0
  7  8  1  0
  8  9  2  3
  9 10  1  0
 10 11  1  0
 11 12  1  0
 11 13  2  0
 15 18  1  0
  4 19  1  0
  1  2  2  0
  5  6  2  0
  4  5  1  0
  3  4  2  0
  1  3  1  0
  2  6  1  0
  6 14  1  0
 14 15  2  0
 15 16  1  0
 16 17  2  0
  2 17  1  0
M  END

$$$$
No_3489-/export/home/yangzhenyu/potential_scad_32_flow//YTHDC2/2024-12-06-03-22-00/
     RDKit          3D

 18 20  0  0  1  0  0  0  0  0999 V2000
    1.1787   -8.0297    3.5154 C   0  0  0  0  0  0  0  0  0  0  0  0
    1.1048   -9.2215    3.2892 C   0  0  0  0  0  0  0  0  0  0  0  0
    1.3627  -10.1721    4.3044 C   0  0  0  0  0  0  0  0  0  0  0  0
    1.0682  -11.5187    4.0618 C   0  0  0  0  0  0  0  0  0  0  0  0
    0.6332  -11.9655    2.9682 C   0  0  0  0  0  0  0  0  0  0  0  0
    0.4776  -11.1308    1.9203 C   0  0  0  0  0  0  0  0  0  0  0  0
    0.7470   -9.8274    2.0368 C   0  0  0  0  0  0  0  0  0  0  0  0
    0.5535   -7.1314    2.6861 C   0  0  0  0  0  0  0  0  0  0  0  0
    0.2950   -7.6000    1.3275 C   0  0  0  0  0  0  0  0  0  0  0  0
    0.2693   -8.8631    1.0973 C   0  0  1  0  0  0  0  0  0  0  0  0
   -0.0069   -6.7080    0.3888 O   0  0  0  0  0  0  0  0  0  0  0  0
    0.4919  -13.3974    2.7286 C   0  0  0  0  0  0  0  0  0  0  0  0
   -0.5952  -13.8054    2.2659 C   0  0  0  0  0  0  0  0  0  0  0  0
    1.5836  -14.2854    3.0966 C   0  0  0  0  0  0  0  0  0  0  0  0
   -0.7869  -15.1398    1.9162 C   0  0  0  0  0  0  0  0  0  0  0  0
    1.4870  -15.5783    2.9307 C   0  0  0  0  0  0  0  0  0  0  0  0
    0.2921  -16.0747    2.3283 C   0  0  0  0  0  0  0  0  0  0  0  0
    0.0291   -9.2979   -0.1770 C   0  0  0  0  0  0  0  0  0  0  0  0
  1  2  1  0
  8  9  1  0
  7 10  1  0
  9 10  1  0
  9 11  2  0
  5 12  1  0
 10 18  1  6
  1  8  1  0
  2  3  2  0
  3  4  1  0
  4  5  2  0
  5  6  1  0
  6  7  2  0
  2  7  1  0
 12 13  2  0
 13 15  1  0
 15 17  2  0
 16 17  1  0
 14 16  2  0
 12 14  1  0
M  END

$$$$
No_3490-/export/home/yangzhenyu/potential_scad_32_flow//YTHDC2/2024-12-06-03-22-00/
     RDKit          3D

 19 20  0  0  0  0  0  0  0  0999 V2000
    1.1787   -8.0297    3.5154 C   0  0  0  0  0  0  0  0  0  0  0  0
    1.0491   -6.8434    2.9820 C   0  0  0  0  0  0  0  0  0  0  0  0
    0.0950   -8.8404    3.2292 C   0  0  0  0  0  0  0  0  0  0  0  0
   -0.9173   -8.4596    2.5152 C   0  0  0  0  0  0  0  0  0  0  0  0
   -1.0331   -7.2162    2.0653 C   0  0  0  0  0  0  0  0  0  0  0  0
   -0.0105   -6.3168    2.3081 C   0  0  0  0  0  0  0  0  0  0  0  0
    0.1150   -4.9910    1.8495 C   0  0  0  0  0  0  0  0  0  0  0  0
   -0.5774   -4.1593    2.0596 C   0  0  0  0  0  0  0  0  0  0  0  0
   -0.5028   -2.7328    1.5284 N   0  0  0  0  0  0  0  0  0  0  0  0
    0.1827  -10.4368    3.7511 S   0  0  0  0  0  0  0  0  0  0  0  0
    1.3517  -10.8825    4.4168 N   0  0  0  0  0  0  0  0  0  0  0  0
   -0.2218  -11.3676    2.7477 O   0  0  0  0  0  0  0  0  0  0  0  0
   -1.0031  -10.4780    4.8293 O   0  0  0  0  0  0  0  0  0  0  0  0
    2.6671  -10.5047    4.0765 C   0  0  0  0  0  0  0  0  0  0  0  0
    3.4649  -11.5853    4.2550 C   0  0  0  0  0  0  0  0  0  0  0  0
    0.5503   -2.8296    0.6180 C   0  0  0  0  0  0  0  0  0  0  0  0
    1.0566   -4.2130    0.6133 N   0  0  0  0  0  0  0  0  0  0  0  0
    1.0962   -1.9684   -0.1952 C   0  0  0  0  0  0  0  0  0  0  0  0
    4.6145  -10.9056    5.1809 O   0  0  0  0  0  0  0  0  0  0  0  0
  6  7  1  0
  7  8  2  0
  8  9  1  0
  3 10  1  0
 10 11  1  0
 10 12  2  0
 10 13  2  0
 11 14  1  0
 14 15  1  0
  9 16  2  0
  7 17  1  0
 16 17  1  0
 16 18  1  0
 15 19  1  0
  1  2  2  0
  2  6  1  0
  5  6  2  0
  4  5  1  0
  3  4  2  0
  1  3  1  0
M  END

$$$$
No_3491-/export/home/yangzhenyu/potential_scad_32_flow//YTHDC2/2024-12-06-03-22-00/
     RDKit          3D

 17 17  0  0  1  0  0  0  0  0999 V2000
    1.1787   -8.0297    3.5154 C   0  0  0  0  0  0  0  0  0  0  0  0
    1.0491   -6.8434    2.9820 C   0  0  0  0  0  0  0  0  0  0  0  0
    0.9905   -9.0774    2.6527 C   0  0  1  0  0  0  0  0  0  0  0  0
    0.7897   -8.9519    1.3691 C   0  0  0  0  0  0  0  0  0  0  0  0
    0.7018   -7.7198    0.7892 C   0  0  0  0  0  0  0  0  0  0  0  0
    0.8918   -6.5957    1.6117 C   0  0  0  0  0  0  0  0  0  0  0  0
    1.0998  -10.4710    3.2437 C   0  0  0  0  0  0  0  0  0  0  0  0
    2.1917  -10.8879    3.7399 S   0  0  0  0  0  0  0  0  0  0  0  0
    1.7681  -12.5464    4.0886 C   0  0  0  0  0  0  0  0  0  0  0  0
    0.4932  -12.6205    3.4604 F   0  0  0  0  0  0  0  0  0  0  0  0
    0.8949   -5.2777    1.1561 O   0  0  0  0  0  0  0  0  0  0  0  0
    0.6395  -10.0136    0.4550 C   0  0  0  0  0  0  0  0  0  0  0  0
   -0.4210  -10.2415   -0.1100 N   0  0  0  0  0  0  0  0  0  0  0  0
    1.5228  -11.0753    0.6064 O   0  0  0  0  0  0  0  0  0  0  0  0
   -1.4774   -9.2225   -0.2423 C   0  0  0  0  0  0  0  0  0  0  0  0
   -2.6767   -9.3616    0.4320 C   0  0  0  0  0  0  0  0  0  0  0  0
   -3.3590   -8.2668    0.7895 O   0  0  0  0  0  0  0  0  0  0  0  0
  1  2  1  0
  3  4  1  0
  2  6  1  0
  5  6  1  0
  3  7  1  6
  7  8  1  0
  8  9  1  0
  9 10  1  0
  6 11  2  0
  4 12  1  0
 12 13  1  0
 12 14  2  0
 13 15  1  0
 15 16  1  0
 16 17  2  0
  1  3  1  0
  4  5  1  0
M  END

$$$$
No_3492-/export/home/yangzhenyu/potential_scad_32_flow//YTHDC2/2024-12-06-03-22-00/
     RDKit          3D

 17 18  0  0  0  0  0  0  0  0999 V2000
    1.1787   -8.0297    3.5154 C   0  0  0  0  0  0  0  0  0  0  0  0
    1.1048   -9.2215    3.2892 C   0  0  0  0  0  0  0  0  0  0  0  0
    1.3627  -10.1721    4.3044 C   0  0  0  0  0  0  0  0  0  0  0  0
    1.7354  -11.4730    3.9023 C   0  0  0  0  0  0  0  0  0  0  0  0
    1.6166  -11.5515    2.5159 C   0  0  0  0  0  0  0  0  0  0  0  0
    1.4172  -10.6242    1.6178 C   0  0  0  0  0  0  0  0  0  0  0  0
    1.2598   -9.4423    1.9811 C   0  0  0  0  0  0  0  0  0  0  0  0
    1.1091   -7.1587    4.2539 O   0  0  0  0  0  0  0  0  0  0  0  0
    1.1296   -7.1821    2.2924 N   0  0  0  0  0  0  0  0  0  0  0  0
    1.2841   -8.2242    1.2440 C   0  0  0  0  0  0  0  0  0  0  0  0
    1.2659   -8.0269    0.0242 O   0  0  0  0  0  0  0  0  0  0  0  0
    1.8903  -13.0023    1.9799 Cl  0  0  0  0  0  0  0  0  0  0  0  0
    0.9754   -5.8168    2.0250 C   0  0  0  0  0  0  0  0  0  0  0  0
   -0.0755   -5.3327    1.3314 C   0  0  0  0  0  0  0  0  0  0  0  0
   -0.7709   -4.5264    1.7733 C   0  0  0  0  0  0  0  0  0  0  0  0
   -2.0189   -4.8633    2.2407 C   0  0  0  0  0  0  0  0  0  0  0  0
   -2.7497   -4.0142    3.3113 C   0  0  0  0  0  0  0  0  0  0  0  0
  1  2  1  0
  1  8  2  0
  1  9  1  0
  7 10  1  0
  9 10  1  0
 10 11  2  0
  5 12  1  0
  9 13  1  0
 13 14  1  0
 14 15  1  0
 15 16  1  0
 16 17  1  0
  2  3  2  0
  3  4  1  0
  4  5  2  0
  5  6  1  0
  6  7  2  0
  2  7  1  0
M  END

$$$$
No_3493-/export/home/yangzhenyu/potential_scad_32_flow//YTHDC2/2024-12-06-03-22-00/
     RDKit          3D

 20 20  0  0  1  0  0  0  0  0999 V2000
    1.1787   -8.0297    3.5154 F   0  0  0  0  0  0  0  0  0  0  0  0
    0.9085   -8.9213    2.9287 C   0  0  1  0  0  0  0  0  0  0  0  0
    1.3284  -10.0674    3.4978 C   0  0  2  0  0  0  0  0  0  0  0  0
    2.0913  -10.2389    4.4467 C   0  0  0  0  0  0  0  0  0  0  0  0
   -0.5001   -8.6771    2.7315 C   0  0  0  0  0  0  0  0  0  0  0  0
   -0.9501   -7.7846    1.9309 C   0  0  0  0  0  0  0  0  0  0  0  0
   -2.3055   -7.4256    1.8046 C   0  0  0  0  0  0  0  0  0  0  0  0
   -3.2059   -8.1598    2.2435 C   0  0  0  0  0  0  0  0  0  0  0  0
   -2.8849   -9.2495    3.0971 C   0  0  0  0  0  0  0  0  0  0  0  0
   -1.5560   -9.5557    3.3874 C   0  0  0  0  0  0  0  0  0  0  0  0
    2.5277  -11.6661    4.8485 C   0  0  0  0  0  0  0  0  0  0  0  0
    1.0578  -11.2219    2.6748 C   0  0  0  0  0  0  0  0  0  0  0  0
    0.3725  -11.1182    1.4861 C   0  0  0  0  0  0  0  0  0  0  0  0
    0.9345  -10.5253    0.3103 C   0  0  0  0  0  0  0  0  0  0  0  0
    2.2645  -10.1627    0.2118 O   0  0  0  0  0  0  0  0  0  0  0  0
    0.1310  -10.2078   -0.7335 O   0  0  0  0  0  0  0  0  0  0  0  0
   -3.8942   -9.9518    3.6277 C   0  0  0  0  0  0  0  0  0  0  0  0
   -4.9028   -9.5944    4.0782 C   0  0  0  0  0  0  0  0  0  0  0  0
   -5.9270  -10.5422    4.6722 C   0  0  0  0  0  0  0  0  0  0  0  0
   -6.9443  -10.1379    5.3280 C   0  0  0  0  0  0  0  0  0  0  0  0
  2  1  1  1
  2  3  1  0
  3  4  1  0
  2  5  1  0
  4 11  2  0
  3 12  1  6
 12 13  1  0
 13 14  1  0
 14 15  2  0
 14 16  1  0
  9 17  1  0
 17 18  2  3
 18 19  1  0
 19 20  1  0
  5  6  2  0
  6  7  1  0
  7  8  2  0
  8  9  1  0
  9 10  2  0
  5 10  1  0
M  END

$$$$
No_3494-/export/home/yangzhenyu/potential_scad_32_flow//YTHDC2/2024-12-06-03-22-00/
     RDKit          3D

 21 22  0  0  0  0  0  0  0  0999 V2000
    1.1787   -8.0297    3.5154 C   0  0  0  0  0  0  0  0  0  0  0  0
    1.1048   -9.2215    3.2892 C   0  0  0  0  0  0  0  0  0  0  0  0
    1.2339   -9.7611    2.0189 C   0  0  0  0  0  0  0  0  0  0  0  0
    1.3583   -9.0036    0.9764 C   0  0  0  0  0  0  0  0  0  0  0  0
    1.5996   -7.6362    1.1311 C   0  0  0  0  0  0  0  0  0  0  0  0
    1.4830   -7.0928    2.3626 C   0  0  0  0  0  0  0  0  0  0  0  0
    1.1008  -11.2372    1.8542 C   0  0  0  0  0  0  0  0  0  0  0  0
    0.5178  -11.9759    2.3445 C   0  0  0  0  0  0  0  0  0  0  0  0
    0.4575  -13.3705    2.1281 C   0  0  0  0  0  0  0  0  0  0  0  0
   -0.4455  -13.9844    1.5571 C   0  0  0  0  0  0  0  0  0  0  0  0
   -1.4581  -13.1036    0.8544 C   0  0  0  0  0  0  0  0  0  0  0  0
   -1.4685  -11.7182    1.1745 C   0  0  0  0  0  0  0  0  0  0  0  0
   -0.4515  -11.1571    1.7958 C   0  0  0  0  0  0  0  0  0  0  0  0
    1.6217  -14.0528    2.6219 C   0  0  0  0  0  0  0  0  0  0  0  0
    2.5808  -14.4541    2.4102 C   0  0  0  0  0  0  0  0  0  0  0  0
    1.5044   -5.6427    2.6378 Cl  0  0  0  0  0  0  0  0  0  0  0  0
   -2.6437  -11.0986    0.4644 O   0  0  0  0  0  0  0  0  0  0  0  0
   -3.5289  -10.6762    1.1810 C   0  0  0  0  0  0  0  0  0  0  0  0
    3.1315  -14.1361    1.2657 C   0  0  0  0  0  0  0  0  0  0  0  0
    0.9864  -14.7545    3.9881 O   0  0  0  0  0  0  0  0  0  0  0  0
    1.6032   -9.4707   -0.3233 C   0  0  0  0  0  0  0  0  0  0  0  0
  3  7  1  0
  9 14  1  0
 14 15  1  0
  6 16  1  0
 12 17  1  0
 17 18  1  0
 15 19  2  0
 14 20  2  0
  4 21  1  0
  7  8  1  0
  1  2  2  0
  2  3  1  0
  3  4  2  0
  4  5  1  0
  5  6  2  0
  1  6  1  0
  8  9  2  0
  9 10  1  0
 10 11  2  0
 11 12  1  0
 12 13  2  0
  8 13  1  0
M  END

$$$$
No_3495-/export/home/yangzhenyu/potential_scad_32_flow//YTHDC2/2024-12-06-03-22-00/
     RDKit          3D

 20 21  0  0  1  0  0  0  0  0999 V2000
    1.1787   -8.0297    3.5154 C   0  0  0  0  0  0  0  0  0  0  0  0
    1.0491   -6.8434    2.9820 C   0  0  0  0  0  0  0  0  0  0  0  0
    1.9985   -8.9840    2.8958 C   0  0  0  0  0  0  0  0  0  0  0  0
    1.7297   -9.2108    1.6335 C   0  0  1  0  0  0  0  0  0  0  0  0
    1.7343   -8.0566    0.8408 C   0  0  0  0  0  0  0  0  0  0  0  0
    1.4996   -6.5076    2.0364 C   0  0  0  0  0  0  0  0  0  0  0  0
    1.9017   -6.8818    1.1818 C   0  0  0  0  0  0  0  0  0  0  0  0
    1.3993   -4.8510    2.0179 C   0  0  0  0  0  0  0  0  0  0  0  0
    1.9747  -10.4762    0.9989 C   0  0  0  0  0  0  0  0  0  0  0  0
    2.2609  -10.7372   -0.1550 N   0  0  0  0  0  0  0  0  0  0  0  0
    1.7560  -11.6520    1.8108 C   0  0  0  0  0  0  0  0  0  0  0  0
    1.4438  -11.8012    3.0311 C   0  0  0  0  0  0  0  0  0  0  0  0
    1.8897  -12.9829    3.6540 C   0  0  0  0  0  0  0  0  0  0  0  0
    2.0003  -14.0786    2.8009 C   0  0  0  0  0  0  0  0  0  0  0  0
    2.1109  -13.9708    1.4021 C   0  0  0  0  0  0  0  0  0  0  0  0
    2.0132  -12.6842    0.8680 C   0  0  0  0  0  0  0  0  0  0  0  0
    1.1758   -8.3047   -0.4908 O   0  0  0  0  0  0  0  0  0  0  0  0
    1.6269   -4.0430    2.9509 O   0  0  0  0  0  0  0  0  0  0  0  0
    1.1155   -4.0634    0.8644 O   0  0  0  0  0  0  0  0  0  0  0  0
    2.4039   -9.9914   -0.8209 H   0  0  0  0  0  0  0  0  0  0  0  0
  1  2  1  0
  1  3  1  0
  3  4  1  0
  4  5  1  0
  2  6  1  0
  5  7  1  0
  6  7  1  0
  6  8  1  0
  4  9  1  6
  9 10  2  0
  9 11  1  0
  5 17  2  0
  8 18  2  0
  8 19  1  0
 11 12  2  0
 12 13  1  0
 13 14  2  0
 14 15  1  0
 15 16  2  0
 11 16  1  0
 10 20  1  0
M  END

$$$$
No_3496-/export/home/yangzhenyu/potential_scad_32_flow//YTHDC2/2024-12-06-03-22-00/
     RDKit          3D

 17 18  0  0  0  0  0  0  0  0999 V2000
    1.1787   -8.0297    3.5154 C   0  0  0  0  0  0  0  0  0  0  0  0
    1.1048   -9.2215    3.2892 C   0  0  0  0  0  0  0  0  0  0  0  0
    1.2339   -9.7611    2.0189 C   0  0  0  0  0  0  0  0  0  0  0  0
    1.3583   -9.0036    0.9764 C   0  0  0  0  0  0  0  0  0  0  0  0
    1.5996   -7.6362    1.1311 C   0  0  0  0  0  0  0  0  0  0  0  0
    1.4830   -7.0928    2.3626 C   0  0  0  0  0  0  0  0  0  0  0  0
    1.5395   -5.7300    2.6182 C   0  0  0  0  0  0  0  0  0  0  0  0
    1.1775  -11.2233    1.8407 C   0  0  0  0  0  0  0  0  0  0  0  0
    0.7252  -11.5870    0.5412 C   0  0  0  0  0  0  0  0  0  0  0  0
   -0.5181  -12.2492    0.6137 C   0  0  0  0  0  0  0  0  0  0  0  0
   -0.5371  -13.4409    1.3121 C   0  0  0  0  0  0  0  0  0  0  0  0
    0.5959  -14.0526    1.6735 C   0  0  0  0  0  0  0  0  0  0  0  0
    0.2782  -15.3880    2.4177 C   0  0  0  0  0  0  0  0  0  0  0  0
   -0.8507  -15.8171    2.6098 C   0  0  0  0  0  0  0  0  0  0  0  0
   -1.9684  -15.1243    2.3412 C   0  0  0  0  0  0  0  0  0  0  0  0
   -1.8503  -13.9686    1.6238 C   0  0  0  0  0  0  0  0  0  0  0  0
   -3.2058  -15.6751    2.5437 O   0  0  0  0  0  0  0  0  0  0  0  0
  6  7  1  0
  3  8  1  0
  8  9  1  0
  9 10  1  0
 10 11  1  0
 11 12  1  0
 12 13  1  0
 14 15  1  0
 11 16  1  0
 15 16  1  0
 15 17  2  0
 13 14  1  0
  1  2  2  0
  2  3  1  0
  3  4  2  0
  4  5  1  0
  5  6  2  0
  1  6  1  0
M  END

$$$$
No_3497-/export/home/yangzhenyu/potential_scad_32_flow//YTHDC2/2024-12-06-03-22-00/
     RDKit          3D

 18 19  0  0  1  0  0  0  0  0999 V2000
    1.1787   -8.0297    3.5154 C   0  0  0  0  0  0  0  0  0  0  0  0
    1.1048   -9.2215    3.2892 C   0  0  0  0  0  0  0  0  0  0  0  0
    1.2339   -9.7611    2.0189 C   0  0  0  0  0  0  0  0  0  0  0  0
    1.3583   -9.0036    0.9764 C   0  0  0  0  0  0  0  0  0  0  0  0
    1.5996   -7.6362    1.1311 C   0  0  0  0  0  0  0  0  0  0  0  0
    1.4830   -7.0928    2.3626 C   0  0  0  0  0  0  0  0  0  0  0  0
    1.4898   -5.7274    2.6199 C   0  0  0  0  0  0  0  0  0  0  0  0
    1.1681  -11.2222    1.8390 C   0  0  1  0  0  0  0  0  0  0  0  0
    0.7145  -11.5870    0.5424 C   0  0  0  0  0  0  0  0  0  0  0  0
   -0.5241  -12.2512    0.6171 C   0  0  2  0  0  0  0  0  0  0  0  0
   -0.5383  -13.4429    1.3130 C   0  0  0  0  0  0  0  0  0  0  0  0
    0.5995  -14.0478    1.6787 C   0  0  0  0  0  0  0  0  0  0  0  0
    1.4579  -13.4512    2.7925 C   0  0  0  0  0  0  0  0  0  0  0  0
    2.1102  -12.0997    2.4772 C   0  0  0  0  0  0  0  0  0  0  0  0
    1.6977   -5.1744    3.8672 O   0  0  0  0  0  0  0  0  0  0  0  0
    1.3613   -4.8293    1.6680 O   0  0  0  0  0  0  0  0  0  0  0  0
   -1.4575  -11.9936   -0.3221 C   0  0  0  0  0  0  0  0  0  0  0  0
   -2.4266  -11.6564   -0.2911 C   0  0  0  0  0  0  0  0  0  0  0  0
  6  7  1  0
  8  3  1  6
  8  9  1  0
  9 10  1  0
 10 11  1  0
 11 12  1  0
 12 13  1  0
  8 14  1  0
 13 14  1  0
  7 15  1  0
  7 16  2  0
 10 17  1  6
 17 18  2  0
  1  2  2  0
  2  3  1  0
  3  4  2  0
  4  5  1  0
  5  6  2  0
  1  6  1  0
M  END

$$$$
No_3498-/export/home/yangzhenyu/potential_scad_32_flow//YTHDC2/2024-12-06-03-22-00/
     RDKit          3D

 18 18  0  0  0  0  0  0  0  0999 V2000
    1.1787   -8.0297    3.5154 C   0  0  0  0  0  0  0  0  0  0  0  0
    1.1048   -9.2215    3.2892 C   0  0  0  0  0  0  0  0  0  0  0  0
    1.2339   -9.7611    2.0189 C   0  0  0  0  0  0  0  0  0  0  0  0
    1.3583   -9.0036    0.9764 C   0  0  0  0  0  0  0  0  0  0  0  0
    1.5996   -7.6362    1.1311 C   0  0  0  0  0  0  0  0  0  0  0  0
    1.4830   -7.0928    2.3626 C   0  0  0  0  0  0  0  0  0  0  0  0
    1.5395   -5.7300    2.6182 C   0  0  0  0  0  0  0  0  0  0  0  0
    1.1775  -11.2233    1.8407 C   0  0  0  0  0  0  0  0  0  0  0  0
    0.7252  -11.5870    0.5412 N   0  0  0  0  0  0  0  0  0  0  0  0
    1.6030  -12.0513    2.6420 O   0  0  0  0  0  0  0  0  0  0  0  0
    1.2744   -4.7971    1.7112 N   0  0  0  0  0  0  0  0  0  0  0  0
    1.8024   -5.1867    3.8337 O   0  0  0  0  0  0  0  0  0  0  0  0
    0.6834  -13.0358    0.3493 C   0  0  0  0  0  0  0  0  0  0  0  0
    1.1624   -3.4299    1.8331 C   0  0  0  0  0  0  0  0  0  0  0  0
   -0.6576  -13.4567   -0.0155 C   0  0  0  0  0  0  0  0  0  0  0  0
   -0.7326  -14.8391   -0.1968 C   0  0  0  0  0  0  0  0  0  0  0  0
   -0.0882  -15.6367    0.6105 C   0  0  0  0  0  0  0  0  0  0  0  0
    1.1943  -15.1876    1.1985 C   0  0  0  0  0  0  0  0  0  0  0  0
  6  7  1  0
  3  8  1  0
  8  9  1  0
  8 10  2  0
  7 11  1  0
  7 12  2  0
  9 13  1  0
 11 14  1  0
 13 15  1  0
 15 16  1  0
 16 17  1  0
 17 18  1  0
  1  2  2  0
  2  3  1  0
  3  4  2  0
  4  5  1  0
  5  6  2  0
  1  6  1  0
M  END

$$$$
No_3499-/export/home/yangzhenyu/potential_scad_32_flow//YTHDC2/2024-12-06-03-22-00/
     RDKit          3D

 20 21  0  0  0  0  0  0  0  0999 V2000
    1.1787   -8.0297    3.5154 C   0  0  0  0  0  0  0  0  0  0  0  0
    1.1048   -9.2215    3.2892 C   0  0  0  0  0  0  0  0  0  0  0  0
    1.3627  -10.1721    4.3044 C   0  0  0  0  0  0  0  0  0  0  0  0
    1.0682  -11.5187    4.0618 C   0  0  0  0  0  0  0  0  0  0  0  0
    0.6332  -11.9655    2.9682 C   0  0  0  0  0  0  0  0  0  0  0  0
    0.4776  -11.1308    1.9203 C   0  0  0  0  0  0  0  0  0  0  0  0
    0.7470   -9.8274    2.0368 C   0  0  0  0  0  0  0  0  0  0  0  0
    1.0387   -7.0301    2.5175 C   0  0  0  0  0  0  0  0  0  0  0  0
    0.9130   -7.5288    1.2013 C   0  0  0  0  0  0  0  0  0  0  0  0
    0.7893   -8.7979    0.9542 C   0  0  0  0  0  0  0  0  0  0  0  0
    0.5241   -9.2578   -0.2817 C   0  0  0  0  0  0  0  0  0  0  0  0
   -0.1121   -8.6523   -1.0898 O   0  0  0  0  0  0  0  0  0  0  0  0
    0.4916  -13.3676    2.6814 C   0  0  0  0  0  0  0  0  0  0  0  0
    1.3297  -14.3056    3.1403 C   0  0  0  0  0  0  0  0  0  0  0  0
    1.5140  -15.5433    2.5842 C   0  0  0  0  0  0  0  0  0  0  0  0
    0.8365  -16.6128    3.1425 C   0  0  0  0  0  0  0  0  0  0  0  0
    1.0873  -10.2465   -0.7939 O   0  0  0  0  0  0  0  0  0  0  0  0
    1.1103  -17.8791    2.9776 C   0  0  0  0  0  0  0  0  0  0  0  0
    2.1857  -18.1146    1.9472 C   0  0  0  0  0  0  0  0  0  0  0  0
    2.9198  -17.1008    1.4456 C   0  0  0  0  0  0  0  0  0  0  0  0
 10 11  1  0
 11 12  2  0
  5 13  1  0
 13 14  1  0
 14 15  1  0
 15 16  1  0
 11 17  1  0
 16 18  2  3
 18 19  1  0
 19 20  2  0
  2  3  1  0
  3  4  2  0
  4  5  1  0
  5  6  2  0
  6  7  1  0
  1  2  2  0
  2  7  1  0
  7 10  2  0
  9 10  1  0
  8  9  2  0
  1  8  1  0
M  END

$$$$
No_3500-/export/home/yangzhenyu/potential_scad_32_flow//YTHDC2/2024-12-06-03-22-00/
     RDKit          3D

 16 18  0  0  1  0  0  0  0  0999 V2000
    1.1787   -8.0297    3.5154 C   0  0  0  0  0  0  0  0  0  0  0  0
    1.1048   -9.2215    3.2892 C   0  0  0  0  0  0  0  0  0  0  0  0
    1.0239   -9.7790    2.0239 C   0  0  0  0  0  0  0  0  0  0  0  0
    1.1393   -9.0211    0.9686 C   0  0  0  0  0  0  0  0  0  0  0  0
    1.4051   -7.6500    1.1251 C   0  0  0  0  0  0  0  0  0  0  0  0
    1.4868   -7.1041    2.3534 C   0  0  0  0  0  0  0  0  0  0  0  0
    0.9659  -10.1420    4.4543 C   0  0  0  0  0  0  0  0  0  0  0  0
    0.7774  -11.6757    3.9967 C   0  0  2  0  0  0  0  0  0  0  0  0
    2.0578  -12.4207    3.9511 C   0  0  0  0  0  0  0  0  0  0  0  0
    1.9231  -13.6695    3.1961 C   0  0  0  0  0  0  0  0  0  0  0  0
    0.5317  -13.9355    2.8888 C   0  0  1  0  0  0  0  0  0  0  0  0
   -0.0615  -12.5594    3.3486 C   0  0  0  0  0  0  0  0  0  0  0  0
    0.1799  -14.6015    1.8798 C   0  0  0  0  0  0  0  0  0  0  0  0
   -0.6447  -15.4708    1.9850 C   0  0  0  0  0  0  0  0  0  0  0  0
   -0.7120  -15.6319    3.5434 C   0  0  0  0  0  0  0  0  0  0  0  0
    0.1536  -14.6484    4.0381 C   0  0  0  0  0  0  0  0  0  0  0  0
  2  7  1  0
  8  7  1  6
  8  9  1  0
  9 10  1  0
 11 10  1  1
  8 12  1  0
 11 12  1  0
 11 13  1  0
 13 14  2  0
 14 15  1  0
 11 16  1  0
 15 16  1  0
  1  2  2  0
  2  3  1  0
  3  4  2  0
  4  5  1  0
  5  6  2  0
  1  6  1  0
M  END

$$$$
No_3501-/export/home/yangzhenyu/potential_scad_32_flow//YTHDC2/2024-12-06-03-22-00/
     RDKit          3D

 18 18  0  0  0  0  0  0  0  0999 V2000
    1.1787   -8.0297    3.5154 C   0  0  0  0  0  0  0  0  0  0  0  0
    1.0491   -6.8434    2.9820 C   0  0  0  0  0  0  0  0  0  0  0  0
    0.0950   -8.8404    3.2292 C   0  0  0  0  0  0  0  0  0  0  0  0
   -0.9173   -8.4596    2.5152 C   0  0  0  0  0  0  0  0  0  0  0  0
   -1.0331   -7.2162    2.0653 C   0  0  0  0  0  0  0  0  0  0  0  0
   -0.0105   -6.3168    2.3081 C   0  0  0  0  0  0  0  0  0  0  0  0
    0.1150   -4.9910    1.8495 C   0  0  0  0  0  0  0  0  0  0  0  0
   -0.1376   -4.7952    0.5550 N   0  0  0  0  0  0  0  0  0  0  0  0
    0.8335   -4.0110    2.5280 O   0  0  0  0  0  0  0  0  0  0  0  0
    0.1683  -10.2835    3.6443 C   0  0  0  0  0  0  0  0  0  0  0  0
    1.2219  -10.8791    4.0894 C   0  0  0  0  0  0  0  0  0  0  0  0
    1.1339  -12.3047    4.3623 C   0  0  0  0  0  0  0  0  0  0  0  0
    1.0954  -13.0397    3.1404 C   0  0  0  0  0  0  0  0  0  0  0  0
    1.1451  -14.4765    3.3646 C   0  0  0  0  0  0  0  0  0  0  0  0
    1.4834  -15.3014    2.1718 N   0  0  0  0  0  0  0  0  0  0  0  0
    1.7985  -16.5295    2.3287 C   0  0  0  0  0  0  0  0  0  0  0  0
    1.4645  -17.2716    2.9638 O   0  0  0  0  0  0  0  0  0  0  0  0
    2.5305  -16.9157    1.0929 C   0  0  0  0  0  0  0  0  0  0  0  0
  6  7  1  0
  7  8  1  0
  7  9  2  0
  3 10  1  0
 10 11  2  3
 11 12  1  0
 12 13  2  3
 13 14  1  0
 14 15  1  0
 15 16  1  0
 16 17  2  0
 16 18  1  0
  1  2  2  0
  2  6  1  0
  5  6  2  0
  4  5  1  0
  3  4  2  0
  1  3  1  0
M  END

$$$$
No_3502-/export/home/yangzhenyu/potential_scad_32_flow//YTHDC2/2024-12-06-03-22-00/
     RDKit          3D

 19 20  0  0  1  0  0  0  0  0999 V2000
    1.1787   -8.0297    3.5154 Cl  0  0  0  0  0  0  0  0  0  0  0  0
    0.7279   -9.0023    2.8722 C   0  0  1  0  0  0  0  0  0  0  0  0
   -0.0117   -8.9271    1.8829 C   0  0  0  0  0  0  0  0  0  0  0  0
   -0.4744   -7.9794    1.4770 C   0  0  0  0  0  0  0  0  0  0  0  0
   -0.5832   -6.9024    1.8384 C   0  0  0  0  0  0  0  0  0  0  0  0
    1.3538  -10.3234    3.3572 C   0  0  0  0  0  0  0  0  0  0  0  0
    1.0969  -11.3655    3.1721 C   0  0  0  0  0  0  0  0  0  0  0  0
    1.7923  -12.6043    3.6714 C   0  0  0  0  0  0  0  0  0  0  0  0
   -1.6242   -6.3423    2.5829 C   0  0  0  0  0  0  0  0  0  0  0  0
   -1.8890   -5.0159    3.0143 C   0  0  0  0  0  0  0  0  0  0  0  0
   -0.9497   -4.0817    2.5665 C   0  0  0  0  0  0  0  0  0  0  0  0
   -1.0976   -2.7106    2.9457 C   0  0  0  0  0  0  0  0  0  0  0  0
    1.2833  -13.9171    3.1954 C   0  0  0  0  0  0  0  0  0  0  0  0
    0.3582  -14.0835    2.3086 C   0  0  0  0  0  0  0  0  0  0  0  0
   -0.3784  -13.0736    1.9135 C   0  0  0  0  0  0  0  0  0  0  0  0
    0.0051  -11.7492    2.1425 C   0  0  0  0  0  0  0  0  0  0  0  0
   -1.2719   -8.1800    0.1402 O   0  0  0  0  0  0  0  0  0  0  0  0
    0.2096   -5.6363    1.2471 C   0  0  0  0  0  0  0  0  0  0  0  0
    0.1276   -4.3802    1.7345 C   0  0  0  0  0  0  0  0  0  0  0  0
  2  1  1  6
  2  3  1  0
  3  4  1  0
  4  5  1  0
  2  6  1  0
 11 12  1  0
  4 17  2  0
  6  7  1  0
  5  9  2  0
  9 10  1  0
 10 11  2  0
 11 19  1  0
 18 19  2  0
  5 18  1  0
  7  8  2  0
  8 13  1  0
 13 14  2  0
 14 15  1  0
 15 16  2  0
  7 16  1  0
M  END

$$$$
No_3503-/export/home/yangzhenyu/potential_scad_32_flow//YTHDC2/2024-12-06-03-22-00/
     RDKit          3D

 18 18  0  0  0  0  0  0  0  0999 V2000
    1.1787   -8.0297    3.5154 C   0  0  0  0  0  0  0  0  0  0  0  0
    1.1048   -9.2215    3.2892 C   0  0  0  0  0  0  0  0  0  0  0  0
    1.2339   -9.7611    2.0189 C   0  0  0  0  0  0  0  0  0  0  0  0
    1.1954  -11.2312    1.8661 C   0  0  0  0  0  0  0  0  0  0  0  0
    1.2996  -11.5815    0.5387 C   0  0  0  0  0  0  0  0  0  0  0  0
    0.9270   -7.0442    2.4967 C   0  0  0  0  0  0  0  0  0  0  0  0
    0.9803   -7.6034    1.0978 C   0  0  0  0  0  0  0  0  0  0  0  0
    1.1096   -8.9244    0.8670 C   0  0  0  0  0  0  0  0  0  0  0  0
    1.0761  -11.9547    2.9012 C   0  0  0  0  0  0  0  0  0  0  0  0
    0.5875  -12.9955    2.7625 O   0  0  0  0  0  0  0  0  0  0  0  0
    1.6816  -11.7334    4.1108 C   0  0  0  0  0  0  0  0  0  0  0  0
    0.9948   -5.6057    2.6547 C   0  0  0  0  0  0  0  0  0  0  0  0
    0.6211   -4.8422    1.6718 O   0  0  0  0  0  0  0  0  0  0  0  0
    1.5078   -5.1443    3.7508 O   0  0  0  0  0  0  0  0  0  0  0  0
    0.1235  -11.7336   -0.0400 O   0  0  0  0  0  0  0  0  0  0  0  0
    2.1919  -11.5517   -0.0229 O   0  0  0  0  0  0  0  0  0  0  0  0
    3.1389  -12.0559    4.2258 N   0  0  0  0  0  0  0  0  0  0  0  0
    3.9153  -10.9710    4.9343 C   0  0  0  0  0  0  0  0  0  0  0  0
  3  4  1  0
  4  5  1  0
  4  9  1  0
  9 10  2  0
  9 11  1  0
  6 12  1  0
 12 13  2  0
 12 14  1  0
  5 15  1  0
  5 16  2  0
 11 17  1  0
 17 18  1  0
  1  2  2  0
  2  3  1  0
  3  8  2  0
  7  8  1  0
  6  7  2  0
  1  6  1  0
M  END

$$$$
No_3504-/export/home/yangzhenyu/potential_scad_32_flow//YTHDC2/2024-12-06-03-22-00/
     RDKit          3D

 18 19  0  0  1  0  0  0  0  0999 V2000
    1.1787   -8.0297    3.5154 C   0  0  0  0  0  0  0  0  0  0  0  0
    1.1048   -9.2215    3.2892 C   0  0  0  0  0  0  0  0  0  0  0  0
    1.2339   -9.7611    2.0189 C   0  0  0  0  0  0  0  0  0  0  0  0
    1.3583   -9.0036    0.9764 C   0  0  0  0  0  0  0  0  0  0  0  0
    1.5996   -7.6362    1.1311 C   0  0  0  0  0  0  0  0  0  0  0  0
    1.4830   -7.0928    2.3626 C   0  0  0  0  0  0  0  0  0  0  0  0
    1.5395   -5.7300    2.6182 I   0  0  0  0  0  0  0  0  0  0  0  0
    1.1624  -11.3831    1.8607 C   0  0  2  0  0  0  0  0  0  0  0  0
    1.7920  -12.1355    2.5374 C   0  0  0  0  0  0  0  0  0  0  0  0
    1.6200  -13.5006    2.1121 C   0  0  0  0  0  0  0  0  0  0  0  0
    0.8915  -13.8792    1.1028 N   0  0  0  0  0  0  0  0  0  0  0  0
    0.3383  -12.3941    0.7213 C   0  0  2  0  0  0  0  0  0  0  0  0
    2.2302  -14.7031    2.7160 C   0  0  0  0  0  0  0  0  0  0  0  0
    1.9124  -16.0064    2.3299 O   0  0  0  0  0  0  0  0  0  0  0  0
   -0.0464  -11.8538   -0.3693 C   0  0  0  0  0  0  0  0  0  0  0  0
   -1.5620  -11.6105   -0.1708 O   0  0  0  0  0  0  0  0  0  0  0  0
   -2.3017  -12.3230    0.3540 C   0  0  0  0  0  0  0  0  0  0  0  0
   -2.4720  -13.5360   -0.1504 C   0  0  0  0  0  0  0  0  0  0  0  0
  6  7  1  0
  8  3  1  6
  8  9  1  0
  9 10  2  0
 10 11  1  0
  8 12  1  0
 11 12  1  0
 10 13  1  0
 13 14  1  0
 12 15  1  6
 15 16  1  0
 16 17  1  0
 17 18  1  0
  1  2  2  0
  2  3  1  0
  3  4  2  0
  4  5  1  0
  5  6  2  0
  1  6  1  0
M  END

$$$$
No_3505-/export/home/yangzhenyu/potential_scad_32_flow//YTHDC2/2024-12-06-03-22-00/
     RDKit          3D

 18 18  0  0  0  0  0  0  0  0999 V2000
    1.1787   -8.0297    3.5154 C   0  0  0  0  0  0  0  0  0  0  0  0
    1.1048   -9.2215    3.2892 C   0  0  0  0  0  0  0  0  0  0  0  0
    1.2339   -9.7611    2.0189 C   0  0  0  0  0  0  0  0  0  0  0  0
    1.3583   -9.0036    0.9764 C   0  0  0  0  0  0  0  0  0  0  0  0
    1.5996   -7.6362    1.1311 C   0  0  0  0  0  0  0  0  0  0  0  0
    1.4830   -7.0928    2.3626 C   0  0  0  0  0  0  0  0  0  0  0  0
    1.1008  -11.2372    1.8542 C   0  0  0  0  0  0  0  0  0  0  0  0
    0.5178  -11.9759    2.3445 C   0  0  0  0  0  0  0  0  0  0  0  0
    0.4575  -13.3705    2.1281 C   0  0  0  0  0  0  0  0  0  0  0  0
    1.1632  -14.1013    2.0451 C   0  0  0  0  0  0  0  0  0  0  0  0
    2.4646  -13.5566    1.4445 C   0  0  0  0  0  0  0  0  0  0  0  0
    1.0647  -15.5680    1.9364 F   0  0  0  0  0  0  0  0  0  0  0  0
    1.5571   -5.6574    2.6300 Cl  0  0  0  0  0  0  0  0  0  0  0  0
    1.5360   -9.5161   -0.5233 C   0  0  0  0  0  0  0  0  0  0  0  0
    0.3467   -9.8820   -0.9014 O   0  0  0  0  0  0  0  0  0  0  0  0
    2.5406   -9.3909   -1.1152 O   0  0  0  0  0  0  0  0  0  0  0  0
   -0.9634  -13.9543    2.8230 O   0  0  0  0  0  0  0  0  0  0  0  0
   -2.0607  -13.2550    2.4783 C   0  0  0  0  0  0  0  0  0  0  0  0
  3  7  1  0
  7  8  2  3
  8  9  1  0
  9 10  2  3
 10 11  1  0
 10 12  1  0
  6 13  1  0
  4 14  1  0
 14 15  1  0
 14 16  2  0
  9 17  1  0
 17 18  1  0
  1  2  2  0
  2  3  1  0
  3  4  2  0
  4  5  1  0
  5  6  2  0
  1  6  1  0
M  END

$$$$
No_3506-/export/home/yangzhenyu/potential_scad_32_flow//YTHDC2/2024-12-06-03-22-00/
     RDKit          3D

 18 18  0  0  1  0  0  0  0  0999 V2000
    1.1787   -8.0297    3.5154 C   0  0  0  0  0  0  0  0  0  0  0  0
    1.0491   -6.8434    2.9820 C   0  0  0  0  0  0  0  0  0  0  0  0
    1.9985   -8.9840    2.8958 C   0  0  2  0  0  0  0  0  0  0  0  0
    1.7297   -9.2108    1.6335 C   0  0  0  0  0  0  0  0  0  0  0  0
    1.7343   -8.0566    0.8408 C   0  0  2  0  0  0  0  0  0  0  0  0
    1.0269   -6.8892    1.4456 C   0  0  0  0  0  0  0  0  0  0  0  0
    1.7596   -8.0979   -0.4723 C   0  0  0  0  0  0  0  0  0  0  0  0
    2.7309   -8.8718   -1.0817 O   0  0  0  0  0  0  0  0  0  0  0  0
    1.1072   -7.7284   -1.3405 O   0  0  0  0  0  0  0  0  0  0  0  0
    1.9674  -10.3627    3.5841 C   0  0  0  0  0  0  0  0  0  0  0  0
    1.1876  -11.3126    3.3446 C   0  0  0  0  0  0  0  0  0  0  0  0
    1.5418  -12.6498    3.4026 C   0  0  0  0  0  0  0  0  0  0  0  0
    1.1527  -13.3460    2.2731 C   0  0  0  0  0  0  0  0  0  0  0  0
    1.8107  -14.6147    2.0445 C   0  0  0  0  0  0  0  0  0  0  0  0
    2.8878  -14.9068    2.3054 O   0  0  0  0  0  0  0  0  0  0  0  0
    1.1492  -15.5267    1.3667 N   0  0  0  0  0  0  0  0  0  0  0  0
   -0.1757  -15.3017    0.8610 C   0  0  0  0  0  0  0  0  0  0  0  0
   -0.0749  -14.4437   -0.2216 C   0  0  0  0  0  0  0  0  0  0  0  0
  1  2  1  0
  1  3  1  0
  3  4  1  0
  4  5  1  0
  2  6  1  0
  5  6  1  0
  5  7  1  6
  7  8  1  0
  7  9  2  0
  3 10  1  1
 10 11  1  0
 11 12  1  0
 12 13  1  0
 13 14  1  0
 14 15  2  0
 14 16  1  0
 16 17  1  0
 17 18  1  0
M  END

$$$$
No_3507-/export/home/yangzhenyu/potential_scad_32_flow//YTHDC2/2024-12-06-03-22-00/
     RDKit          3D

 18 19  0  0  1  0  0  0  0  0999 V2000
    1.1787   -8.0297    3.5154 C   0  0  0  0  0  0  0  0  0  0  0  0
    1.0491   -6.8434    2.9820 C   0  0  0  0  0  0  0  0  0  0  0  0
    0.9905   -9.0774    2.6527 C   0  0  0  0  0  0  0  0  0  0  0  0
    0.7897   -8.9519    1.3691 C   0  0  0  0  0  0  0  0  0  0  0  0
    0.6550  -10.0985    0.4848 C   0  0  0  0  0  0  0  0  0  0  0  0
    0.7849   -6.5836    1.6043 C   0  0  0  0  0  0  0  0  0  0  0  0
    0.6652   -7.6671    0.8008 C   0  0  0  0  0  0  0  0  0  0  0  0
    1.2441  -11.1828    0.5777 O   0  0  0  0  0  0  0  0  0  0  0  0
   -0.2030  -10.0131   -0.5296 O   0  0  0  0  0  0  0  0  0  0  0  0
    1.2204  -10.4450    3.2012 C   0  0  1  0  0  0  0  0  0  0  0  0
    2.5667  -10.8916    3.5505 C   0  0  0  0  0  0  0  0  0  0  0  0
    2.4470  -12.1066    4.2854 N   0  0  0  0  0  0  0  0  0  0  0  0
    0.2460  -11.2368    3.4859 N   0  0  0  0  0  0  0  0  0  0  0  0
    0.3022  -12.3758    4.0244 C   0  0  0  0  0  0  0  0  0  0  0  0
    1.5578  -12.8647    4.3731 C   0  0  0  0  0  0  0  0  0  0  0  0
    0.6798   -5.3127    1.0399 O   0  0  0  0  0  0  0  0  0  0  0  0
   -0.5357   -4.5914    1.1617 C   0  0  0  0  0  0  0  0  0  0  0  0
    1.6901  -14.1830    4.4938 O   0  0  0  0  0  0  0  0  0  0  0  0
  4  5  1  0
  5  8  1  0
  5  9  2  0
 10  3  1  1
 10 11  1  0
 10 13  1  0
 12 15  1  0
 14 15  1  0
  6 16  1  0
 16 17  1  0
 15 18  2  0
 11 12  1  0
 13 14  1  0
  1  2  2  0
  2  6  1  0
  6  7  2  0
  4  7  1  0
  3  4  2  0
  1  3  1  0
M  END

$$$$
No_3508-/export/home/yangzhenyu/potential_scad_32_flow//YTHDC2/2024-12-06-03-22-00/
     RDKit          3D

 19 19  0  0  1  0  0  0  0  0999 V2000
    1.1787   -8.0297    3.5154 O   0  0  0  0  0  0  0  0  0  0  0  0
    0.9969   -8.9689    3.0048 C   0  0  1  0  0  0  0  0  0  0  0  0
    0.9976   -8.9567    1.6341 C   0  0  2  0  0  0  0  0  0  0  0  0
    1.6062   -9.9071    0.9292 C   0  0  0  0  0  0  0  0  0  0  0  0
    2.1191  -10.9757    1.6503 C   0  0  0  0  0  0  0  0  0  0  0  0
    2.1177  -10.9891    3.0403 C   0  0  1  0  0  0  0  0  0  0  0  0
    1.5441   -9.8905    3.6897 C   0  0  0  0  0  0  0  0  0  0  0  0
    0.5010   -7.8164    1.0436 C   0  0  0  0  0  0  0  0  0  0  0  0
    1.0624   -6.6356    1.1779 C   0  0  0  0  0  0  0  0  0  0  0  0
    0.3391   -5.4799    1.3521 C   0  0  0  0  0  0  0  0  0  0  0  0
    1.0285   -4.2218    1.7691 C   0  0  0  0  0  0  0  0  0  0  0  0
    1.6151  -10.1241    5.0088 O   0  0  0  0  0  0  0  0  0  0  0  0
   -0.1182   -8.0309   -0.2968 O   0  0  0  0  0  0  0  0  0  0  0  0
   -1.0091   -5.2626    0.8292 C   0  0  0  0  0  0  0  0  0  0  0  0
    1.8190   -4.4041    2.8644 C   0  0  0  0  0  0  0  0  0  0  0  0
    0.8790   -3.0534    1.1882 C   0  0  0  0  0  0  0  0  0  0  0  0
    2.5929  -12.1814    3.5860 O   0  0  0  0  0  0  0  0  0  0  0  0
   -1.8482   -5.7950    1.1362 C   0  0  0  0  0  0  0  0  0  0  0  0
   -3.2869   -5.7261    0.7516 C   0  0  0  0  0  0  0  0  0  0  0  0
  2  1  1  1
  2  3  1  0
  4  5  1  0
  2  7  1  0
  6  7  1  0
  3  8  1  1
  8  9  1  0
  9 10  2  3
 10 11  1  0
  7 12  2  0
  8 13  2  0
 10 14  1  0
 11 15  1  0
 11 16  1  0
  6 17  1  6
 14 18  2  3
 18 19  1  0
  3  4  1  0
  5  6  1  0
M  END

$$$$
No_3509-/export/home/yangzhenyu/potential_scad_32_flow//YTHDC2/2024-12-06-03-22-00/
     RDKit          3D

 20 22  0  0  1  0  0  0  0  0999 V2000
    1.1787   -8.0297    3.5154 C   0  0  0  0  0  0  0  0  0  0  0  0
    1.1048   -9.2215    3.2892 C   0  0  0  0  0  0  0  0  0  0  0  0
    1.3627  -10.1721    4.3044 C   0  0  0  0  0  0  0  0  0  0  0  0
    1.0682  -11.5187    4.0618 C   0  0  0  0  0  0  0  0  0  0  0  0
    0.6332  -11.9655    2.9682 C   0  0  0  0  0  0  0  0  0  0  0  0
    0.4719  -13.4293    2.7591 C   0  0  0  0  0  0  0  0  0  0  0  0
   -0.2373  -13.9045    1.9156 C   0  0  0  0  0  0  0  0  0  0  0  0
   -0.6874  -13.0854    0.9071 C   0  0  0  0  0  0  0  0  0  0  0  0
   -0.6225  -11.7618    0.9866 C   0  0  0  0  0  0  0  0  0  0  0  0
    0.1549  -11.1806    2.0058 C   0  0  0  0  0  0  0  0  0  0  0  0
    0.7501   -9.8021    1.9745 C   0  0  0  0  0  0  0  0  0  0  0  0
    1.1437   -7.0644    2.4571 C   0  0  2  0  0  0  0  0  0  0  0  0
    0.9558   -7.5526    1.1778 C   0  0  0  0  0  0  0  0  0  0  0  0
    0.8096   -8.8277    0.9628 C   0  0  0  0  0  0  0  0  0  0  0  0
    0.4194   -9.2206   -0.2948 O   0  0  0  0  0  0  0  0  0  0  0  0
    1.5081   -5.4728    2.7245 C   0  0  0  0  0  0  0  0  0  0  0  0
    1.1019   -6.7794    0.1958 O   0  0  0  0  0  0  0  0  0  0  0  0
    1.5208  -14.4570    3.6587 O   0  0  0  0  0  0  0  0  0  0  0  0
    1.3481  -15.6971    3.1180 C   0  0  0  0  0  0  0  0  0  0  0  0
    0.4946  -16.5440    3.6583 C   0  0  0  0  0  0  0  0  0  0  0  0
  1  2  1  0
 12 13  1  0
 11 14  1  0
 13 14  1  0
 14 15  2  0
 12 16  1  6
 13 17  2  0
  6 18  1  0
 18 19  1  0
 19 20  1  0
  1 12  1  0
  2  3  2  0
  3  4  1  0
  4  5  2  0
 10 11  2  0
  2 11  1  0
  5  6  1  0
  6  7  2  0
  7  8  1  0
  8  9  2  0
  9 10  1  0
  5 10  1  0
M  END

$$$$
No_3510-/export/home/yangzhenyu/potential_scad_32_flow//YTHDC2/2024-12-06-03-22-00/
     RDKit          3D

 18 20  0  0  0  0  0  0  0  0999 V2000
    1.1787   -8.0297    3.5154 C   0  0  0  0  0  0  0  0  0  0  0  0
    1.0491   -6.8434    2.9820 C   0  0  0  0  0  0  0  0  0  0  0  0
    0.0950   -8.8404    3.2292 C   0  0  0  0  0  0  0  0  0  0  0  0
   -0.7663   -8.2602    2.4375 C   0  0  0  0  0  0  0  0  0  0  0  0
   -0.7437   -6.9718    1.9778 C   0  0  0  0  0  0  0  0  0  0  0  0
    0.2554   -6.2202    2.2855 C   0  0  0  0  0  0  0  0  0  0  0  0
    0.4072   -4.8741    1.9191 C   0  0  0  0  0  0  0  0  0  0  0  0
    0.0230  -10.2260    3.5719 C   0  0  0  0  0  0  0  0  0  0  0  0
   -1.2316  -10.7955    3.7699 C   0  0  0  0  0  0  0  0  0  0  0  0
    1.1797  -10.8516    4.2277 C   0  0  0  0  0  0  0  0  0  0  0  0
    1.1649  -12.2020    4.3954 C   0  0  0  0  0  0  0  0  0  0  0  0
   -1.2233  -12.1986    3.9833 C   0  0  0  0  0  0  0  0  0  0  0  0
    0.0150  -12.8464    4.2464 C   0  0  0  0  0  0  0  0  0  0  0  0
   -0.4308   -3.9970    1.9750 C   0  0  0  0  0  0  0  0  0  0  0  0
   -0.3538   -2.6313    1.4925 C   0  0  0  0  0  0  0  0  0  0  0  0
    0.6543   -2.0846    0.9586 C   0  0  0  0  0  0  0  0  0  0  0  0
    1.7297   -3.0366    0.6794 C   0  0  0  0  0  0  0  0  0  0  0  0
    1.6866   -4.3759    1.2029 C   0  0  0  0  0  0  0  0  0  0  0  0
  6  7  1  0
  3  8  1  0
  1  2  2  0
  2  6  1  0
  5  6  2  0
  4  5  1  0
  3  4  2  0
  1  3  1  0
  8  9  2  0
  9 12  1  0
 12 13  2  0
 11 13  1  0
 10 11  2  0
  8 10  1  0
  7 14  2  0
 14 15  1  0
 15 16  2  0
 16 17  1  0
 17 18  2  0
  7 18  1  0
M  END

$$$$
No_3511-/export/home/yangzhenyu/potential_scad_32_flow//YTHDC2/2024-12-06-03-22-00/
     RDKit          3D

 18 20  0  0  1  0  0  0  0  0999 V2000
    1.1787   -8.0297    3.5154 C   0  0  2  0  0  0  0  0  0  0  0  0
    1.0491   -6.8434    2.9820 C   0  0  0  0  0  0  0  0  0  0  0  0
    1.9985   -8.9840    2.8958 C   0  0  1  0  0  0  0  0  0  0  0  0
    1.9135  -10.3404    3.6266 C   0  0  0  0  0  0  0  0  0  0  0  0
    0.9460  -10.6347    4.5748 C   0  0  0  0  0  0  0  0  0  0  0  0
   -0.0977   -9.6850    4.6652 C   0  0  0  0  0  0  0  0  0  0  0  0
   -0.0465   -8.4791    4.1040 C   0  0  0  0  0  0  0  0  0  0  0  0
    0.9518   -6.8330    1.6013 N   0  0  0  0  0  0  0  0  0  0  0  0
    1.2221   -7.6181    0.7937 C   0  0  0  0  0  0  0  0  0  0  0  0
    1.0740   -7.8100   -0.2147 C   0  0  0  0  0  0  0  0  0  0  0  0
    1.6014   -8.9012   -1.0654 C   0  0  0  0  0  0  0  0  0  0  0  0
    2.3188   -9.6901   -0.5764 N   0  0  0  0  0  0  0  0  0  0  0  0
    2.5784   -9.5985    0.7649 C   0  0  0  0  0  0  0  0  0  0  0  0
    2.2090   -8.7022    1.5001 C   0  0  0  0  0  0  0  0  0  0  0  0
    0.3119   -5.5494    1.0323 C   0  0  0  0  0  0  0  0  0  0  0  0
   -0.8781   -7.6679    4.8139 O   0  0  0  0  0  0  0  0  0  0  0  0
   -1.0463   -5.5017    0.9533 C   0  0  0  0  0  0  0  0  0  0  0  0
   -1.7832   -6.4053    1.0714 C   0  0  0  0  0  0  0  0  0  0  0  0
  1  2  1  6
  1  3  1  0
  4  5  1  0
  1  7  1  0
  6  7  1  0
  2  8  1  0
  8  9  1  0
  3 14  1  0
  8 15  1  0
  7 16  2  0
 15 17  1  0
 17 18  2  0
  3  4  1  6
  5  6  1  0
  9 10  2  0
 10 11  1  0
 11 12  2  0
 12 13  1  0
 13 14  2  0
  9 14  1  0
M  END

$$$$
No_3512-/export/home/yangzhenyu/potential_scad_32_flow//YTHDC2/2024-12-06-03-22-00/
     RDKit          3D

 20 21  0  0  1  0  0  0  0  0999 V2000
    1.1787   -8.0297    3.5154 C   0  0  0  0  0  0  0  0  0  0  0  0
    1.0491   -6.8434    2.9820 C   0  0  0  0  0  0  0  0  0  0  0  0
    0.0950   -8.8404    3.2292 C   0  0  0  0  0  0  0  0  0  0  0  0
   -0.7663   -8.2602    2.4375 C   0  0  0  0  0  0  0  0  0  0  0  0
   -0.3589   -6.8665    2.1913 C   0  0  0  0  0  0  0  0  0  0  0  0
    0.1065  -10.2381    3.6126 C   0  0  0  0  0  0  0  0  0  0  0  0
    1.0935  -10.8944    4.0437 C   0  0  0  0  0  0  0  0  0  0  0  0
    0.9266  -12.2877    4.3485 C   0  0  0  0  0  0  0  0  0  0  0  0
    1.9892  -13.0334    3.6964 C   0  0  0  0  0  0  0  0  0  0  0  0
    1.5897  -13.8792    2.4870 C   0  0  2  0  0  0  0  0  0  0  0  0
    0.7552  -13.3558    1.6456 C   0  0  2  0  0  0  0  0  0  0  0  0
    1.2983  -12.3594    0.7373 C   0  0  0  0  0  0  0  0  0  0  0  0
    0.4898  -11.4504    0.2095 C   0  0  1  0  0  0  0  0  0  0  0  0
   -0.8404  -11.7550    0.2998 C   0  0  0  0  0  0  0  0  0  0  0  0
   -0.6360  -13.1008    1.1962 N   0  0  0  0  0  0  0  0  0  0  0  0
    0.8071  -10.1788   -0.2469 C   0  0  0  0  0  0  0  0  0  0  0  0
    1.9619   -9.4550   -0.0518 C   0  0  0  0  0  0  0  0  0  0  0  0
    2.0676   -8.0665   -0.5946 N   0  0  0  0  0  0  0  0  0  0  0  0
    1.9127  -15.1426    2.4212 C   0  0  0  0  0  0  0  0  0  0  0  0
   -0.1705   -9.3256   -1.0183 N   0  0  0  0  0  0  0  0  0  0  0  0
  1  2  1  0
  1  3  2  0
  3  4  1  0
  2  5  2  0
  4  5  1  0
  3  6  1  0
  6  7  2  3
  7  8  1  0
  8  9  1  0
  9 10  1  0
 10 11  1  0
 11 12  1  1
 13 12  1  1
 13 14  1  0
 11 15  1  0
 14 15  1  0
 13 16  1  0
 16 17  2  3
 17 18  1  0
 10 19  1  1
 16 20  1  0
M  END

$$$$
No_3513-/export/home/yangzhenyu/potential_scad_32_flow//YTHDC2/2024-12-06-03-22-00/
     RDKit          3D

 17 17  0  0  0  0  0  0  0  0999 V2000
    1.1787   -8.0297    3.5154 C   0  0  0  0  0  0  0  0  0  0  0  0
    1.1048   -9.2215    3.2892 C   0  0  0  0  0  0  0  0  0  0  0  0
    1.3627  -10.1721    4.3044 C   0  0  0  0  0  0  0  0  0  0  0  0
    1.7354  -11.4730    3.9023 C   0  0  0  0  0  0  0  0  0  0  0  0
    1.8080  -11.8127    2.7216 C   0  0  0  0  0  0  0  0  0  0  0  0
    1.5854  -11.0021    1.7249 C   0  0  0  0  0  0  0  0  0  0  0  0
    1.3573   -9.7389    1.9287 C   0  0  0  0  0  0  0  0  0  0  0  0
    1.2865   -8.8078    0.9161 C   0  0  0  0  0  0  0  0  0  0  0  0
    0.9210   -7.5140    1.1674 O   0  0  0  0  0  0  0  0  0  0  0  0
    1.4288   -9.1781   -0.4279 O   0  0  0  0  0  0  0  0  0  0  0  0
    2.0879  -13.2053    2.3135 Cl  0  0  0  0  0  0  0  0  0  0  0  0
    0.1272   -7.1947    3.6813 N   0  0  0  0  0  0  0  0  0  0  0  0
   -1.0284   -7.9357    3.9030 C   0  0  0  0  0  0  0  0  0  0  0  0
   -2.1487   -7.4969    3.9229 O   0  0  0  0  0  0  0  0  0  0  0  0
   -1.2068   -9.2799    4.5175 N   0  0  0  0  0  0  0  0  0  0  0  0
   -2.3464   -9.8614    4.5655 C   0  0  0  0  0  0  0  0  0  0  0  0
   -2.3244  -11.1226    4.0039 C   0  0  0  0  0  0  0  0  0  0  0  0
  1  2  1  0
  7  8  1  0
  8  9  2  0
  8 10  1  0
  5 11  1  0
  1 12  1  0
 12 13  1  0
 13 14  2  0
 13 15  1  0
 15 16  1  0
 16 17  1  0
  2  3  2  0
  3  4  1  0
  4  5  2  0
  5  6  1  0
  6  7  2  0
  2  7  1  0
M  END

$$$$
No_3514-/export/home/yangzhenyu/potential_scad_32_flow//YTHDC2/2024-12-06-03-22-00/
     RDKit          3D

 19 20  0  0  0  0  0  0  0  0999 V2000
    1.1787   -8.0297    3.5154 C   0  0  0  0  0  0  0  0  0  0  0  0
    1.1048   -9.2215    3.2892 C   0  0  0  0  0  0  0  0  0  0  0  0
    1.2339   -9.7611    2.0189 C   0  0  0  0  0  0  0  0  0  0  0  0
    1.4306   -8.9466    1.1170 C   0  0  0  0  0  0  0  0  0  0  0  0
    1.6532   -7.5949    1.1786 C   0  0  0  0  0  0  0  0  0  0  0  0
    1.4973   -7.0739    2.4258 C   0  0  0  0  0  0  0  0  0  0  0  0
    1.5178   -5.6803    2.7303 C   0  0  0  0  0  0  0  0  0  0  0  0
    1.2440  -11.1950    1.8087 C   0  0  0  0  0  0  0  0  0  0  0  0
    0.9365  -11.5438    0.5307 C   0  0  0  0  0  0  0  0  0  0  0  0
    0.8545  -12.9847    0.4185 C   0  0  0  0  0  0  0  0  0  0  0  0
    1.0464  -13.8482    1.4365 C   0  0  0  0  0  0  0  0  0  0  0  0
    1.3909  -13.3783    2.7149 C   0  0  0  0  0  0  0  0  0  0  0  0
    1.4686  -12.0114    2.9280 C   0  0  0  0  0  0  0  0  0  0  0  0
    1.6714   -5.1544    3.9835 O   0  0  0  0  0  0  0  0  0  0  0  0
    0.9316   -4.8151    1.8119 O   0  0  0  0  0  0  0  0  0  0  0  0
    1.8522  -11.5165    4.1295 N   0  0  0  0  0  0  0  0  0  0  0  0
    1.0963  -15.4672    1.2224 C   0  0  0  0  0  0  0  0  0  0  0  0
    2.1388  -16.0407    1.7993 C   0  0  0  0  0  0  0  0  0  0  0  0
    2.0343  -17.1619    2.3840 O   0  0  0  0  0  0  0  0  0  0  0  0
  6  7  1  0
  3  8  1  0
  7 14  1  0
  7 15  2  0
 13 16  1  0
 11 17  1  0
 17 18  1  0
 18 19  2  0
  1  2  2  0
  2  3  1  0
  3  4  2  0
  4  5  1  0
  5  6  2  0
  1  6  1  0
  8  9  2  0
  9 10  1  0
 10 11  2  0
 11 12  1  0
 12 13  2  0
  8 13  1  0
M  END

$$$$
No_3515-/export/home/yangzhenyu/potential_scad_32_flow//YTHDC2/2024-12-06-03-22-00/
     RDKit          3D

 19 21  0  0  0  0  0  0  0  0999 V2000
    1.1787   -8.0297    3.5154 C   0  0  0  0  0  0  0  0  0  0  0  0
    1.0491   -6.8434    2.9820 N   0  0  0  0  0  0  0  0  0  0  0  0
    1.0164   -9.0814    2.6596 C   0  0  0  0  0  0  0  0  0  0  0  0
    0.8420   -8.8183    1.4191 C   0  0  0  0  0  0  0  0  0  0  0  0
    0.8257   -7.4377    1.2233 C   0  0  0  0  0  0  0  0  0  0  0  0
    0.9947   -6.4434    1.9274 C   0  0  0  0  0  0  0  0  0  0  0  0
    0.9888   -5.1011    1.4900 C   0  0  0  0  0  0  0  0  0  0  0  0
    1.1094  -10.4981    3.1697 C   0  0  0  0  0  0  0  0  0  0  0  0
    2.2182  -10.9931    3.5721 C   0  0  0  0  0  0  0  0  0  0  0  0
    2.1780  -12.3082    4.0022 C   0  0  0  0  0  0  0  0  0  0  0  0
    1.1436  -13.1283    3.7093 C   0  0  0  0  0  0  0  0  0  0  0  0
    0.0254  -12.5639    3.1751 C   0  0  0  0  0  0  0  0  0  0  0  0
    0.0190  -11.2303    2.8795 C   0  0  0  0  0  0  0  0  0  0  0  0
    1.6078   -4.1706    2.1792 C   0  0  0  0  0  0  0  0  0  0  0  0
    1.5395   -2.7816    1.9007 C   0  0  0  0  0  0  0  0  0  0  0  0
    0.6533   -2.4634    0.8447 C   0  0  0  0  0  0  0  0  0  0  0  0
   -0.1082   -3.3616    0.2317 C   0  0  0  0  0  0  0  0  0  0  0  0
   -1.0397   -2.9155   -0.7967 C   0  0  0  0  0  0  0  0  0  0  0  0
    0.0223   -4.7196    0.6121 C   0  0  0  0  0  0  0  0  0  0  0  0
  6  7  1  0
  3  8  1  0
 17 18  1  0
  1  2  2  0
  2  6  1  0
  5  6  2  0
  4  5  1  0
  3  4  2  0
  1  3  1  0
  8  9  2  0
  9 10  1  0
 10 11  2  0
 11 12  1  0
 12 13  2  0
  8 13  1  0
  7 14  2  0
 14 15  1  0
 15 16  2  0
 16 17  1  0
 17 19  2  0
  7 19  1  0
M  END

$$$$
No_3516-/export/home/yangzhenyu/potential_scad_32_flow//YTHDC2/2024-12-06-03-22-00/
     RDKit          3D

 19 21  0  0  0  0  0  0  0  0999 V2000
    1.1787   -8.0297    3.5154 C   0  0  0  0  0  0  0  0  0  0  0  0
    1.1048   -9.2215    3.2892 C   0  0  0  0  0  0  0  0  0  0  0  0
    1.3627  -10.1721    4.3044 C   0  0  0  0  0  0  0  0  0  0  0  0
    1.0682  -11.5187    4.0618 C   0  0  0  0  0  0  0  0  0  0  0  0
    0.6332  -11.9655    2.9682 C   0  0  0  0  0  0  0  0  0  0  0  0
    0.4776  -11.1308    1.9203 C   0  0  0  0  0  0  0  0  0  0  0  0
    0.7470   -9.8274    2.0368 C   0  0  0  0  0  0  0  0  0  0  0  0
    1.0387   -7.0301    2.5175 N   0  0  0  0  0  0  0  0  0  0  0  0
    0.9298   -7.5514    1.2672 C   0  0  0  0  0  0  0  0  0  0  0  0
    0.7824   -8.7713    0.9713 C   0  0  0  0  0  0  0  0  0  0  0  0
    0.6486   -9.2285   -0.2792 C   0  0  0  0  0  0  0  0  0  0  0  0
    1.4669   -9.3418   -1.1486 N   0  0  0  0  0  0  0  0  0  0  0  0
   -0.6963   -9.1160   -0.7619 O   0  0  0  0  0  0  0  0  0  0  0  0
    0.5220  -13.3869    2.6844 C   0  0  0  0  0  0  0  0  0  0  0  0
    0.8693  -14.0267    1.6940 C   0  0  0  0  0  0  0  0  0  0  0  0
    1.3869  -15.2607    1.7439 C   0  0  0  0  0  0  0  0  0  0  0  0
    0.9420  -16.1164    2.7366 C   0  0  0  0  0  0  0  0  0  0  0  0
    0.5415  -15.4915    3.9688 C   0  0  0  0  0  0  0  0  0  0  0  0
    0.3083  -14.1607    3.9506 C   0  0  0  0  0  0  0  0  0  0  0  0
 10 11  1  0
 11 12  1  0
 11 13  2  0
  5 14  1  0
  2  3  1  0
  3  4  2  0
  4  5  1  0
  5  6  2  0
  6  7  1  0
  1  2  2  0
  2  7  1  0
  7 10  2  0
  9 10  1  0
  8  9  2  0
  1  8  1  0
 14 15  2  0
 15 16  1  0
 16 17  2  0
 17 18  1  0
 18 19  2  0
 14 19  1  0
M  END

$$$$
No_3517-/export/home/yangzhenyu/potential_scad_32_flow//YTHDC2/2024-12-06-03-22-00/
     RDKit          3D

 20 22  0  0  0  0  0  0  0  0999 V2000
    1.1787   -8.0297    3.5154 N   0  0  0  0  0  0  0  0  0  0  0  0
    1.0818   -9.0751    3.2053 C   0  0  0  0  0  0  0  0  0  0  0  0
    1.5216  -10.1164    3.9747 C   0  0  0  0  0  0  0  0  0  0  0  0
    1.4420  -11.4363    3.6461 C   0  0  0  0  0  0  0  0  0  0  0  0
    0.5969  -11.7648    2.6785 C   0  0  0  0  0  0  0  0  0  0  0  0
    0.0096  -10.8332    1.9506 C   0  0  0  0  0  0  0  0  0  0  0  0
    0.3359   -9.5186    2.1388 C   0  0  0  0  0  0  0  0  0  0  0  0
    0.8819   -6.9011    2.6487 C   0  0  0  0  0  0  0  0  0  0  0  0
    0.4076   -7.2265    1.4607 C   0  0  0  0  0  0  0  0  0  0  0  0
    0.0604   -8.4780    1.1746 C   0  0  0  0  0  0  0  0  0  0  0  0
   -0.5471   -8.7214    0.0063 C   0  0  0  0  0  0  0  0  0  0  0  0
   -1.8401   -9.2136    0.0266 O   0  0  0  0  0  0  0  0  0  0  0  0
    0.0266   -8.5896   -1.1428 O   0  0  0  0  0  0  0  0  0  0  0  0
    1.4278   -5.4923    3.1290 C   0  0  0  0  0  0  0  0  0  0  0  0
    0.3320  -13.4505    2.3915 C   0  0  0  0  0  0  0  0  0  0  0  0
    1.2536  -14.2244    2.9601 C   0  0  0  0  0  0  0  0  0  0  0  0
    0.9001  -15.5991    2.9346 C   0  0  0  0  0  0  0  0  0  0  0  0
   -0.0791  -16.0800    2.3798 C   0  0  0  0  0  0  0  0  0  0  0  0
   -0.9462  -15.1765    1.7492 C   0  0  0  0  0  0  0  0  0  0  0  0
   -0.6545  -13.8620    1.7327 C   0  0  0  0  0  0  0  0  0  0  0  0
 10 11  1  0
 11 12  2  0
 11 13  1  0
  8 14  1  0
  5 15  1  0
 15 16  2  0
 16 17  1  0
 17 18  2  0
 18 19  1  0
 19 20  2  0
 15 20  1  0
  2  3  1  0
  3  4  2  0
  4  5  1  0
  5  6  2  0
  6  7  1  0
  1  2  2  0
  2  7  1  0
  7 10  2  0
  9 10  1  0
  8  9  2  0
  1  8  1  0
M  END

$$$$
No_3518-/export/home/yangzhenyu/potential_scad_32_flow//YTHDC2/2024-12-06-03-22-00/
     RDKit          3D

 19 19  0  0  1  0  0  0  0  0999 V2000
    1.1787   -8.0297    3.5154 C   0  0  0  0  0  0  0  0  0  0  0  0
    1.0491   -6.8434    2.9820 C   0  0  0  0  0  0  0  0  0  0  0  0
    0.0950   -8.8404    3.2292 C   0  0  0  0  0  0  0  0  0  0  0  0
   -0.9173   -8.4596    2.5152 C   0  0  0  0  0  0  0  0  0  0  0  0
   -1.0331   -7.2162    2.0653 C   0  0  0  0  0  0  0  0  0  0  0  0
   -0.0105   -6.3168    2.3081 C   0  0  0  0  0  0  0  0  0  0  0  0
    0.1150   -4.9910    1.8495 C   0  0  0  0  0  0  0  0  0  0  0  0
   -0.5774   -4.1593    2.0596 O   0  0  0  0  0  0  0  0  0  0  0  0
    1.1226   -4.6805    0.9513 O   0  0  0  0  0  0  0  0  0  0  0  0
    0.1816  -10.2865    3.6380 C   0  0  1  0  0  0  0  0  0  0  0  0
    1.2274  -10.8816    4.1088 C   0  0  0  0  0  0  0  0  0  0  0  0
    1.1758  -12.2894    4.0536 O   0  0  0  0  0  0  0  0  0  0  0  0
    2.2792  -10.4324    4.7125 O   0  0  0  0  0  0  0  0  0  0  0  0
   -0.9500  -10.9484    3.8308 C   0  0  0  0  0  0  0  0  0  0  0  0
   -1.3262  -12.0071    3.0309 C   0  0  0  0  0  0  0  0  0  0  0  0
   -2.5682  -12.6636    3.1534 C   0  0  0  0  0  0  0  0  0  0  0  0
   -2.7957  -13.8430    2.6065 C   0  0  0  0  0  0  0  0  0  0  0  0
   -1.8825  -14.2938    1.7229 C   0  0  0  0  0  0  0  0  0  0  0  0
   -0.7005  -13.6775    1.4502 C   0  0  0  0  0  0  0  0  0  0  0  0
  6  7  1  0
  7  8  2  0
  7  9  1  0
  3 10  1  0
 10 11  1  1
 11 12  1  0
 11 13  2  0
 10 14  1  0
 14 15  2  3
 15 16  1  0
 16 17  2  3
 17 18  1  0
 18 19  2  0
  1  2  2  0
  2  6  1  0
  5  6  2  0
  4  5  1  0
  3  4  2  0
  1  3  1  0
M  END

$$$$
No_3519-/export/home/yangzhenyu/potential_scad_32_flow//YTHDC2/2024-12-06-03-22-00/
     RDKit          3D

 19 19  0  0  1  0  0  0  0  0999 V2000
    1.1787   -8.0297    3.5154 O   0  0  0  0  0  0  0  0  0  0  0  0
    0.6747   -7.4019    2.7838 C   0  0  0  0  0  0  0  0  0  0  0  0
    0.7594   -8.0032    1.4295 C   0  0  0  0  0  0  0  0  0  0  0  0
    1.4743   -7.4398    0.6034 C   0  0  0  0  0  0  0  0  0  0  0  0
    1.8433   -8.4150   -0.4648 C   0  0  0  0  0  0  0  0  0  0  0  0
    1.3204   -9.5205   -0.5909 C   0  0  0  0  0  0  0  0  0  0  0  0
    0.4880  -10.0838    0.3555 C   0  0  0  0  0  0  0  0  0  0  0  0
    0.2363   -9.3226    1.4465 C   0  0  0  0  0  0  0  0  0  0  0  0
   -0.5984   -9.6542    2.4538 C   0  0  0  0  0  0  0  0  0  0  0  0
   -0.2111  -10.6503    3.2432 C   0  0  0  0  0  0  0  0  0  0  0  0
    0.9755  -11.1033    3.3154 C   0  0  1  0  0  0  0  0  0  0  0  0
    1.9803  -10.2680    3.8559 C   0  0  0  0  0  0  0  0  0  0  0  0
    1.2913  -12.4734    2.9136 C   0  0  0  0  0  0  0  0  0  0  0  0
    0.4837  -13.2259    2.5937 C   0  0  0  0  0  0  0  0  0  0  0  0
    0.8837  -14.6631    2.2914 C   0  0  0  0  0  0  0  0  0  0  0  0
    0.2244  -15.7485    2.4175 C   0  0  0  0  0  0  0  0  0  0  0  0
    0.8476  -16.9954    2.2024 C   0  0  0  0  0  0  0  0  0  0  0  0
    1.8090  -17.3274    2.5047 C   0  0  0  0  0  0  0  0  0  0  0  0
    2.9226  -16.2064    2.5411 C   0  0  0  0  0  0  0  0  0  0  0  0
  1  2  1  0
  2  3  1  0
  8  9  1  0
  9 10  1  0
 10 11  1  0
 11 12  1  1
 11 13  1  0
 13 14  2  3
 14 15  1  0
 15 16  2  3
 16 17  1  0
 17 18  2  3
 18 19  1  0
  3  4  2  0
  4  5  1  0
  5  6  2  0
  6  7  1  0
  7  8  2  0
  3  8  1  0
M  END

$$$$
No_3520-/export/home/yangzhenyu/potential_scad_32_flow//YTHDC2/2024-12-06-03-22-00/
     RDKit          3D

 18 20  0  0  0  0  0  0  0  0999 V2000
    1.1787   -8.0297    3.5154 C   0  0  0  0  0  0  0  0  0  0  0  0
    1.1048   -9.2215    3.2892 C   0  0  0  0  0  0  0  0  0  0  0  0
    1.3627  -10.1721    4.3044 C   0  0  0  0  0  0  0  0  0  0  0  0
    1.0682  -11.5187    4.0618 C   0  0  0  0  0  0  0  0  0  0  0  0
    0.6332  -11.9655    2.9682 C   0  0  0  0  0  0  0  0  0  0  0  0
    0.4776  -11.1308    1.9203 C   0  0  0  0  0  0  0  0  0  0  0  0
    0.7470   -9.8274    2.0368 C   0  0  0  0  0  0  0  0  0  0  0  0
    1.0387   -7.0301    2.5175 C   0  0  0  0  0  0  0  0  0  0  0  0
    0.9130   -7.5288    1.2013 C   0  0  0  0  0  0  0  0  0  0  0  0
    0.7893   -8.7980    0.9542 C   0  0  0  0  0  0  0  0  0  0  0  0
    0.3998  -13.3695    2.7114 C   0  0  0  0  0  0  0  0  0  0  0  0
   -0.8069  -13.8090    2.3159 C   0  0  0  0  0  0  0  0  0  0  0  0
   -1.0012  -15.1954    2.1657 N   0  0  0  0  0  0  0  0  0  0  0  0
    1.4482  -14.3489    2.7620 N   0  0  0  0  0  0  0  0  0  0  0  0
    1.3211  -15.5978    2.6307 C   0  0  0  0  0  0  0  0  0  0  0  0
    0.0813  -16.0033    2.4616 C   0  0  0  0  0  0  0  0  0  0  0  0
    0.4440   -9.2732   -0.3631 C   0  0  0  0  0  0  0  0  0  0  0  0
   -0.8658   -9.5461   -0.6184 O   0  0  0  0  0  0  0  0  0  0  0  0
  5 11  1  0
 10 17  1  0
 17 18  2  0
  2  3  1  0
  3  4  2  0
  4  5  1  0
  5  6  2  0
  6  7  1  0
  1  2  2  0
  2  7  1  0
  7 10  2  0
  9 10  1  0
  8  9  2  0
  1  8  1  0
 11 12  2  0
 12 13  1  0
 13 16  2  0
 15 16  1  0
 14 15  2  0
 11 14  1  0
M  END

$$$$
No_3521-/export/home/yangzhenyu/potential_scad_32_flow//YTHDC2/2024-12-06-03-22-00/
     RDKit          3D

 16 17  0  0  1  0  0  0  0  0999 V2000
    1.1787   -8.0297    3.5154 N   0  0  0  0  0  0  0  0  0  0  0  0
    0.8669   -7.0905    2.8589 C   0  0  1  0  0  0  0  0  0  0  0  0
    0.8842   -5.8387    3.2677 C   0  0  0  0  0  0  0  0  0  0  0  0
    1.2819   -9.4050    3.1259 C   0  0  0  0  0  0  0  0  0  0  0  0
    0.9982   -9.6626    1.9545 C   0  0  1  0  0  0  0  0  0  0  0  0
    0.5558   -8.8018    1.0884 C   0  0  0  0  0  0  0  0  0  0  0  0
    0.5593   -7.4405    1.4307 C   0  0  0  0  0  0  0  0  0  0  0  0
    1.7161  -10.3475    4.1329 C   0  0  0  0  0  0  0  0  0  0  0  0
    0.0863   -6.5317    0.6395 O   0  0  0  0  0  0  0  0  0  0  0  0
    2.0595  -11.6573    3.7567 C   0  0  0  0  0  0  0  0  0  0  0  0
   -0.2261   -5.0632    3.3130 C   0  0  0  0  0  0  0  0  0  0  0  0
    2.1512   -5.1909    3.7371 C   0  0  0  0  0  0  0  0  0  0  0  0
   -0.1726   -3.7316    3.6193 C   0  0  0  0  0  0  0  0  0  0  0  0
    1.0428   -3.1435    3.9420 C   0  0  0  0  0  0  0  0  0  0  0  0
    2.2076   -3.8796    3.9700 C   0  0  0  0  0  0  0  0  0  0  0  0
    1.2476  -11.0149    1.4882 N   0  0  0  0  0  0  0  0  0  0  0  0
  1  2  1  0
  2  3  1  6
  1  4  1  0
  4  5  1  0
  2  7  1  0
  6  7  1  0
  4  8  1  0
  7  9  2  0
  8 10  2  0
  5 16  1  6
  5  6  1  0
  3 11  2  0
 11 13  1  0
 13 14  2  0
 14 15  1  0
 12 15  2  0
  3 12  1  0
M  END

$$$$
No_3522-/export/home/yangzhenyu/potential_scad_32_flow//YTHDC2/2024-12-06-03-22-00/
     RDKit          3D

 20 21  0  0  0  0  0  0  0  0999 V2000
    1.1787   -8.0297    3.5154 C   0  0  0  0  0  0  0  0  0  0  0  0
    1.0491   -6.8434    2.9820 C   0  0  0  0  0  0  0  0  0  0  0  0
    1.9985   -8.9840    2.8958 C   0  0  0  0  0  0  0  0  0  0  0  0
    1.9135  -10.3404    3.6266 C   0  0  0  0  0  0  0  0  0  0  0  0
    0.9460  -10.6347    4.5748 C   0  0  0  0  0  0  0  0  0  0  0  0
    0.6380  -11.9069    4.8264 C   0  0  0  0  0  0  0  0  0  0  0  0
    1.7863   -5.8237    3.2808 N   0  0  0  0  0  0  0  0  0  0  0  0
    1.4613   -4.6474    2.6242 C   0  0  0  0  0  0  0  0  0  0  0  0
    0.5888   -4.7145    1.6595 C   0  0  0  0  0  0  0  0  0  0  0  0
   -0.0143   -6.0064    1.4112 N   0  0  0  0  0  0  0  0  0  0  0  0
    0.2261   -7.0034    1.9512 C   0  0  0  0  0  0  0  0  0  0  0  0
   -0.4088   -8.1734    1.7747 C   0  0  0  0  0  0  0  0  0  0  0  0
    1.3630  -12.7314    3.9040 N   0  0  0  0  0  0  0  0  0  0  0  0
   -1.5169   -8.4452    2.5622 O   0  0  0  0  0  0  0  0  0  0  0  0
    0.7636  -13.9386    3.5224 C   0  0  0  0  0  0  0  0  0  0  0  0
   -0.1672  -14.5491    3.6422 C   0  0  0  0  0  0  0  0  0  0  0  0
    1.9632  -14.5592    2.6689 C   0  0  0  0  0  0  0  0  0  0  0  0
    1.7987  -15.7868    2.1274 C   0  0  0  0  0  0  0  0  0  0  0  0
    0.7082  -16.5015    2.4067 C   0  0  0  0  0  0  0  0  0  0  0  0
   -0.2851  -15.9611    3.1279 C   0  0  0  0  0  0  0  0  0  0  0  0
  1  2  1  0
  1  3  1  0
  3  4  2  3
  4  5  1  0
  5  6  1  0
 11 12  1  0
  6 13  1  0
 12 14  1  0
 13 15  1  0
  2  7  2  0
  7  8  1  0
  8  9  2  0
  9 10  1  0
 10 11  2  0
  2 11  1  0
 15 16  2  0
 16 20  1  0
 19 20  2  0
 18 19  1  0
 17 18  2  0
 15 17  1  0
M  END

$$$$
No_3523-/export/home/yangzhenyu/potential_scad_32_flow//YTHDC2/2024-12-06-03-22-00/
     RDKit          3D

 19 19  0  0  0  0  0  0  0  0999 V2000
    1.1787   -8.0297    3.5154 C   0  0  0  0  0  0  0  0  0  0  0  0
    1.0491   -6.8434    2.9820 C   0  0  0  0  0  0  0  0  0  0  0  0
    0.0950   -8.8404    3.2292 C   0  0  0  0  0  0  0  0  0  0  0  0
    0.0602  -10.1764    3.8231 C   0  0  0  0  0  0  0  0  0  0  0  0
    0.2248   -6.3830    2.0648 C   0  0  0  0  0  0  0  0  0  0  0  0
   -0.6745   -7.2322    1.6857 C   0  0  0  0  0  0  0  0  0  0  0  0
   -0.7374   -8.4992    2.1291 C   0  0  0  0  0  0  0  0  0  0  0  0
    1.0201  -10.8960    4.1038 C   0  0  0  0  0  0  0  0  0  0  0  0
    2.3488  -10.7084    3.6077 C   0  0  0  0  0  0  0  0  0  0  0  0
    0.3489   -5.1069    1.4213 C   0  0  0  0  0  0  0  0  0  0  0  0
   -0.4025   -4.0698    1.8218 C   0  0  0  0  0  0  0  0  0  0  0  0
    2.4759  -10.6471    2.2286 C   0  0  0  0  0  0  0  0  0  0  0  0
   -1.5533   -6.8939    0.6779 F   0  0  0  0  0  0  0  0  0  0  0  0
   -0.4340   -3.0296    1.3255 C   0  0  0  0  0  0  0  0  0  0  0  0
    0.4816   -2.7161    0.1847 C   0  0  0  0  0  0  0  0  0  0  0  0
    1.9261  -11.4368    1.3471 C   0  0  0  0  0  0  0  0  0  0  0  0
    1.2819  -10.9038    0.2909 O   0  0  0  0  0  0  0  0  0  0  0  0
    2.0073  -12.6689    1.5990 O   0  0  0  0  0  0  0  0  0  0  0  0
    1.1857   -3.7121   -0.3198 C   0  0  0  0  0  0  0  0  0  0  0  0
  3  4  1  0
  4  8  2  3
  8  9  1  0
  5 10  1  0
 10 11  1  0
  9 12  1  0
  6 13  1  0
 11 14  2  3
 14 15  1  0
 12 16  1  0
 16 17  2  0
 16 18  1  0
 15 19  2  0
  1  2  2  0
  2  5  1  0
  5  6  2  0
  6  7  1  0
  3  7  2  0
  1  3  1  0
M  END

$$$$
No_3524-/export/home/yangzhenyu/potential_scad_32_flow//YTHDC2/2024-12-06-03-22-00/
     RDKit          3D

 19 21  0  0  1  0  0  0  0  0999 V2000
    1.1787   -8.0297    3.5154 C   0  0  0  0  0  0  0  0  0  0  0  0
    1.1048   -9.2215    3.2892 C   0  0  0  0  0  0  0  0  0  0  0  0
    1.2339   -9.7611    2.0189 C   0  0  0  0  0  0  0  0  0  0  0  0
    1.1954  -11.2312    1.8661 C   0  0  0  0  0  0  0  0  0  0  0  0
    1.2996  -11.5815    0.5387 C   0  0  0  0  0  0  0  0  0  0  0  0
    1.3263   -7.1208    2.3229 C   0  0  0  0  0  0  0  0  0  0  0  0
    1.3693   -7.6408    1.0625 C   0  0  0  0  0  0  0  0  0  0  0  0
    1.4358   -8.9950    0.8622 C   0  0  0  0  0  0  0  0  0  0  0  0
    1.6034  -10.8414   -0.4738 N   0  0  0  0  0  0  0  0  0  0  0  0
    1.5828   -9.5016   -0.3437 N   0  0  0  0  0  0  0  0  0  0  0  0
    1.1367  -12.0593    2.8670 C   0  0  0  0  0  0  0  0  0  0  0  0
    0.0932  -12.7117    3.1093 C   0  0  0  0  0  0  0  0  0  0  0  0
    0.1127  -13.9451    3.7089 C   0  0  0  0  0  0  0  0  0  0  0  0
    0.4576  -15.1064    3.0045 C   0  0  1  0  0  0  0  0  0  0  0  0
    1.4908  -14.9266    1.9748 C   0  0  0  0  0  0  0  0  0  0  0  0
    2.2478  -16.1599    1.9307 C   0  0  0  0  0  0  0  0  0  0  0  0
    1.6687  -17.2301    2.7286 C   0  0  0  0  0  0  0  0  0  0  0  0
    0.5532  -16.7656    3.6414 C   0  0  0  0  0  0  0  0  0  0  0  0
    1.2983   -5.6441    2.5600 C   0  0  0  0  0  0  0  0  0  0  0  0
  4 11  1  0
 11 12  2  3
 12 13  1  0
 14 13  1  1
 14 15  1  0
 15 16  2  0
 16 17  1  0
 14 18  1  0
 17 18  1  0
  6 19  1  0
  1  2  2  0
  2  3  1  0
  7  8  1  0
  6  7  2  0
  1  6  1  0
  3  4  2  0
  4  5  1  0
  5  9  2  0
  9 10  1  0
  8 10  2  0
  3  8  1  0
M  END

$$$$
No_3525-/export/home/yangzhenyu/potential_scad_32_flow//YTHDC2/2024-12-06-03-22-00/
     RDKit          3D

 17 17  0  0  1  0  0  0  0  0999 V2000
    1.1787   -8.0297    3.5154 C   0  0  0  0  0  0  0  0  0  0  0  0
    1.0491   -6.8434    2.9820 C   0  0  0  0  0  0  0  0  0  0  0  0
    0.9905   -9.0774    2.6527 C   0  0  0  0  0  0  0  0  0  0  0  0
    0.7897   -8.9519    1.3691 C   0  0  0  0  0  0  0  0  0  0  0  0
    0.7018   -7.7198    0.7892 C   0  0  0  0  0  0  0  0  0  0  0  0
    0.8918   -6.5957    1.6117 C   0  0  0  0  0  0  0  0  0  0  0  0
    1.0711  -10.4814    3.2282 C   0  0  2  0  0  0  0  0  0  0  0  0
    2.1432  -11.0138    3.5962 C   0  0  0  0  0  0  0  0  0  0  0  0
   -0.0553  -11.2345    3.2841 C   0  0  0  0  0  0  0  0  0  0  0  0
   -0.1131  -12.4857    3.1636 O   0  0  0  0  0  0  0  0  0  0  0  0
    2.0803  -11.8790    4.8867 N   0  0  0  0  0  0  0  0  0  0  0  0
   -1.2838  -10.6238    3.5865 O   0  0  0  0  0  0  0  0  0  0  0  0
    0.8570   -5.2769    1.1235 O   0  0  0  0  0  0  0  0  0  0  0  0
   -0.2392   -4.4607    1.2483 C   0  0  0  0  0  0  0  0  0  0  0  0
   -0.0277   -3.2549    1.3919 C   0  0  0  0  0  0  0  0  0  0  0  0
    0.7003   -2.8285    2.4714 O   0  0  0  0  0  0  0  0  0  0  0  0
   -1.4935   -4.9972    1.1607 C   0  0  0  0  0  0  0  0  0  0  0  0
  3  7  1  0
  7  8  1  6
  7  9  1  0
  9 10  1  0
  8 11  1  0
  9 12  2  0
  6 13  1  0
 13 14  1  0
 14 15  1  0
 15 16  1  0
 14 17  1  0
  1  2  2  0
  2  6  1  0
  5  6  2  0
  4  5  1  0
  3  4  2  0
  1  3  1  0
M  END

$$$$
No_3526-/export/home/yangzhenyu/potential_scad_32_flow//YTHDC2/2024-12-06-03-22-00/
     RDKit          3D

 16 17  0  0  0  0  0  0  0  0999 V2000
    1.1787   -8.0297    3.5154 C   0  0  0  0  0  0  0  0  0  0  0  0
    1.1048   -9.2215    3.2892 C   0  0  0  0  0  0  0  0  0  0  0  0
    1.2339   -9.7611    2.0189 C   0  0  0  0  0  0  0  0  0  0  0  0
    1.3583   -9.0036    0.9764 C   0  0  0  0  0  0  0  0  0  0  0  0
    1.5996   -7.6362    1.1311 C   0  0  0  0  0  0  0  0  0  0  0  0
    1.4830   -7.0928    2.3626 C   0  0  0  0  0  0  0  0  0  0  0  0
    1.1171  -11.3311    1.8661 C   0  0  0  0  0  0  0  0  0  0  0  0
    1.9975  -12.1095    2.2478 C   0  0  0  0  0  0  0  0  0  0  0  0
    1.7697  -13.4418    1.9079 C   0  0  0  0  0  0  0  0  0  0  0  0
    0.8824  -13.8563    1.1154 C   0  0  0  0  0  0  0  0  0  0  0  0
   -0.0664  -12.9335    0.5986 C   0  0  0  0  0  0  0  0  0  0  0  0
    0.1158  -11.5559    0.9634 C   0  0  0  0  0  0  0  0  0  0  0  0
    1.5514   -5.6395    2.6394 I   0  0  0  0  0  0  0  0  0  0  0  0
   -0.8052  -10.6813    0.4489 C   0  0  0  0  0  0  0  0  0  0  0  0
   -1.9341  -10.4164    1.1321 N   0  0  0  0  0  0  0  0  0  0  0  0
   -2.7994   -9.4487    0.8946 O   0  0  0  0  0  0  0  0  0  0  0  0
  3  7  1  0
  6 13  1  0
 12 14  1  0
 14 15  1  0
 15 16  2  0
  1  2  2  0
  2  3  1  0
  3  4  2  0
  4  5  1  0
  5  6  2  0
  1  6  1  0
  7  8  2  0
  8  9  1  0
  9 10  2  0
 10 11  1  0
 11 12  2  0
  7 12  1  0
M  END

$$$$
No_3527-/export/home/yangzhenyu/potential_scad_32_flow//YTHDC2/2024-12-06-03-22-00/
     RDKit          3D

 20 21  0  0  1  0  0  0  0  0999 V2000
    1.1787   -8.0297    3.5154 C   0  0  0  0  0  0  0  0  0  0  0  0
    1.0491   -6.8434    2.9820 C   0  0  0  0  0  0  0  0  0  0  0  0
    0.0950   -8.8404    3.2292 C   0  0  0  0  0  0  0  0  0  0  0  0
   -0.9173   -8.4596    2.5152 C   0  0  0  0  0  0  0  0  0  0  0  0
   -1.0331   -7.2162    2.0653 C   0  0  0  0  0  0  0  0  0  0  0  0
   -0.0105   -6.3168    2.3081 C   0  0  0  0  0  0  0  0  0  0  0  0
    0.1465  -10.2446    3.6981 C   0  0  0  0  0  0  0  0  0  0  0  0
    1.2433  -10.8239    4.0166 F   0  0  0  0  0  0  0  0  0  0  0  0
   -0.6727  -10.2462    5.0165 F   0  0  0  0  0  0  0  0  0  0  0  0
   -0.4415  -11.1022    2.9965 F   0  0  0  0  0  0  0  0  0  0  0  0
   -0.0410   -4.9785    1.8858 C   0  0  2  0  0  0  0  0  0  0  0  0
    0.8395   -4.0606    2.3204 N   0  0  0  0  0  0  0  0  0  0  0  0
   -1.2759   -4.3484    1.6305 C   0  0  2  0  0  0  0  0  0  0  0  0
   -2.0698   -4.2084    2.3733 C   0  0  0  0  0  0  0  0  0  0  0  0
   -3.3772   -4.5005    2.3499 C   0  0  0  0  0  0  0  0  0  0  0  0
   -3.8891   -4.5947    1.0648 C   0  0  0  0  0  0  0  0  0  0  0  0
   -3.0391   -4.8097    0.0299 C   0  0  0  0  0  0  0  0  0  0  0  0
   -1.6485   -4.7864    0.2935 C   0  0  0  0  0  0  0  0  0  0  0  0
   -0.8375   -4.8355   -0.7014 O   0  0  0  0  0  0  0  0  0  0  0  0
    2.0530   -3.7977    1.5766 O   0  0  0  0  0  0  0  0  0  0  0  0
  3  7  1  0
  7  8  1  0
  7  9  1  0
  7 10  1  0
  6 11  1  0
 11 12  1  1
 11 13  1  0
 13 14  1  1
 15 16  1  0
 13 18  1  0
 17 18  1  0
 18 19  2  0
 12 20  2  0
 14 15  1  0
 16 17  1  0
  1  2  2  0
  2  6  1  0
  5  6  2  0
  4  5  1  0
  3  4  2  0
  1  3  1  0
M  END

$$$$
No_3528-/export/home/yangzhenyu/potential_scad_32_flow//YTHDC2/2024-12-06-03-22-00/
     RDKit          3D

 18 20  0  0  0  0  0  0  0  0999 V2000
    1.1787   -8.0297    3.5154 C   0  0  0  0  0  0  0  0  0  0  0  0
    1.1048   -9.2215    3.2892 C   0  0  0  0  0  0  0  0  0  0  0  0
    1.3627  -10.1721    4.3044 C   0  0  0  0  0  0  0  0  0  0  0  0
    1.0682  -11.5187    4.0618 C   0  0  0  0  0  0  0  0  0  0  0  0
    0.6332  -11.9655    2.9682 C   0  0  0  0  0  0  0  0  0  0  0  0
    0.4776  -11.1308    1.9203 C   0  0  0  0  0  0  0  0  0  0  0  0
    0.7470   -9.8274    2.0368 C   0  0  0  0  0  0  0  0  0  0  0  0
    0.5536   -7.1314    2.6860 C   0  0  0  0  0  0  0  0  0  0  0  0
    0.2951   -7.6000    1.3275 C   0  0  0  0  0  0  0  0  0  0  0  0
    0.2693   -8.8631    1.0973 C   0  0  0  0  0  0  0  0  0  0  0  0
    0.4787  -13.3960    2.7088 C   0  0  0  0  0  0  0  0  0  0  0  0
    1.3658  -14.3257    3.1313 C   0  0  0  0  0  0  0  0  0  0  0  0
    1.0430  -15.6728    2.9500 C   0  0  0  0  0  0  0  0  0  0  0  0
    0.0902  -16.1323    2.2732 C   0  0  0  0  0  0  0  0  0  0  0  0
   -0.7321  -15.2698    1.7119 C   0  0  0  0  0  0  0  0  0  0  0  0
   -0.4953  -13.9031    1.8966 C   0  0  0  0  0  0  0  0  0  0  0  0
   -0.1319   -9.2821   -0.3205 C   0  0  0  0  0  0  0  0  0  0  0  0
    0.6116   -9.2227   -1.2559 O   0  0  0  0  0  0  0  0  0  0  0  0
  5 11  1  0
 10 17  1  0
 17 18  2  0
 11 12  2  0
 12 13  1  0
 13 14  2  0
 14 15  1  0
 15 16  2  0
 11 16  1  0
  2  3  1  0
  3  4  2  0
  4  5  1  0
  5  6  2  0
  6  7  1  0
  1  2  2  0
  2  7  1  0
  7 10  2  0
  9 10  1  0
  8  9  2  0
  1  8  1  0
M  END

$$$$
No_3529-/export/home/yangzhenyu/potential_scad_32_flow//YTHDC2/2024-12-06-03-22-00/
     RDKit          3D

 19 20  0  0  0  0  0  0  0  0999 V2000
    1.1787   -8.0297    3.5154 C   0  0  0  0  0  0  0  0  0  0  0  0
    1.0491   -6.8434    2.9820 C   0  0  0  0  0  0  0  0  0  0  0  0
    0.0950   -8.8404    3.2292 C   0  0  0  0  0  0  0  0  0  0  0  0
   -0.9173   -8.4596    2.5152 C   0  0  0  0  0  0  0  0  0  0  0  0
   -1.0331   -7.2162    2.0653 C   0  0  0  0  0  0  0  0  0  0  0  0
   -0.0105   -6.3168    2.3081 C   0  0  0  0  0  0  0  0  0  0  0  0
    0.0485   -4.9783    1.8782 C   0  0  0  0  0  0  0  0  0  0  0  0
   -0.4744   -4.1559    2.2381 O   0  0  0  0  0  0  0  0  0  0  0  0
    1.2121   -4.5911    1.0362 Cl  0  0  0  0  0  0  0  0  0  0  0  0
    0.1785  -10.2921    3.6589 C   0  0  0  0  0  0  0  0  0  0  0  0
    0.3173  -11.3475    2.8098 C   0  0  0  0  0  0  0  0  0  0  0  0
    1.2595  -11.8521    2.6518 C   0  0  0  0  0  0  0  0  0  0  0  0
    1.5357  -12.9446    1.7081 C   0  0  0  0  0  0  0  0  0  0  0  0
    0.6418  -13.3040    0.9168 C   0  0  0  0  0  0  0  0  0  0  0  0
   -0.5418  -12.7220    0.9090 C   0  0  0  0  0  0  0  0  0  0  0  0
   -0.7985  -11.7912    1.9600 C   0  0  0  0  0  0  0  0  0  0  0  0
   -0.0730  -10.4821    4.9615 O   0  0  0  0  0  0  0  0  0  0  0  0
   -1.6235  -13.1228    0.0729 O   0  0  0  0  0  0  0  0  0  0  0  0
   -2.0428  -11.8690    2.4613 C   0  0  0  0  0  0  0  0  0  0  0  0
  6  7  1  0
  7  8  2  0
  7  9  1  0
  3 10  1  0
 10 11  1  0
 10 17  2  0
 15 18  1  0
 16 19  1  0
 11 12  2  0
 12 13  1  0
 13 14  2  0
 14 15  1  0
 15 16  2  0
 11 16  1  0
  1  2  2  0
  2  6  1  0
  5  6  2  0
  4  5  1  0
  3  4  2  0
  1  3  1  0
M  END

$$$$
No_3530-/export/home/yangzhenyu/potential_scad_32_flow//YTHDC2/2024-12-06-03-22-00/
     RDKit          3D

 18 19  0  0  1  0  0  0  0  0999 V2000
    1.1787   -8.0297    3.5154 N   0  0  0  0  0  0  0  0  0  0  0  0
    1.0818   -9.0751    3.2053 C   0  0  0  0  0  0  0  0  0  0  0  0
    0.7576   -9.3725    1.9159 C   0  0  0  0  0  0  0  0  0  0  0  0
    0.8823   -8.4917    1.0547 C   0  0  2  0  0  0  0  0  0  0  0  0
    0.9679   -8.9061   -0.3794 C   0  0  0  0  0  0  0  0  0  0  0  0
    1.2776   -7.1993    2.1927 C   0  0  1  0  0  0  0  0  0  0  0  0
   -0.1659   -8.9621   -0.8541 O   0  0  0  0  0  0  0  0  0  0  0  0
    2.0119   -8.7105   -1.0150 O   0  0  0  0  0  0  0  0  0  0  0  0
    1.3322   -6.0188    1.8283 C   0  0  0  0  0  0  0  0  0  0  0  0
    0.9982  -10.0571    4.3519 C   0  0  0  0  0  0  0  0  0  0  0  0
    1.9188  -11.1842    4.2647 C   0  0  0  0  0  0  0  0  0  0  0  0
    1.4272  -12.2982    3.5634 C   0  0  1  0  0  0  0  0  0  0  0  0
    0.1301  -12.7431    3.8317 N   0  0  0  0  0  0  0  0  0  0  0  0
   -0.1030  -13.8276    3.0290 C   0  0  0  0  0  0  0  0  0  0  0  0
    0.9390  -14.0176    2.2296 N   0  0  0  0  0  0  0  0  0  0  0  0
    1.8444  -13.0617    2.5615 C   0  0  0  0  0  0  0  0  0  0  0  0
    1.1971  -15.0655    1.3386 C   0  0  0  0  0  0  0  0  0  0  0  0
    0.3515  -14.8841    0.2756 C   0  0  0  0  0  0  0  0  0  0  0  0
  1  2  1  0
  2  3  2  0
  3  4  1  0
  4  5  1  6
  1  6  1  0
  4  6  1  0
  5  7  1  0
  5  8  2  0
  6  9  1  1
  2 10  1  0
 10 11  1  0
 12 11  1  6
 12 13  1  0
 13 14  2  0
 14 15  1  0
 12 16  1  0
 15 16  1  0
 15 17  1  0
 17 18  1  0
M  END

$$$$
No_3531-/export/home/yangzhenyu/potential_scad_32_flow//YTHDC2/2024-12-06-03-22-00/
     RDKit          3D

 21 23  0  0  1  0  0  0  0  0999 V2000
    1.1787   -8.0297    3.5154 C   0  0  0  0  0  0  0  0  0  0  0  0
    1.1048   -9.2215    3.2892 C   0  0  0  0  0  0  0  0  0  0  0  0
    1.3627  -10.1721    4.3044 C   0  0  0  0  0  0  0  0  0  0  0  0
    1.0682  -11.5187    4.0618 C   0  0  0  0  0  0  0  0  0  0  0  0
    0.6332  -11.9655    2.9682 C   0  0  0  0  0  0  0  0  0  0  0  0
    0.4776  -11.1308    1.9203 C   0  0  0  0  0  0  0  0  0  0  0  0
    0.7470   -9.8274    2.0368 C   0  0  0  0  0  0  0  0  0  0  0  0
    0.5535   -7.1314    2.6861 C   0  0  2  0  0  0  0  0  0  0  0  0
    0.2950   -7.6000    1.3275 C   0  0  0  0  0  0  0  0  0  0  0  0
    0.2692   -8.8631    1.0973 C   0  0  1  0  0  0  0  0  0  0  0  0
   -0.0069   -6.7080    0.3888 O   0  0  0  0  0  0  0  0  0  0  0  0
    0.4773  -13.6209    2.7227 C   0  0  0  0  0  0  0  0  0  0  0  0
   -0.6029  -14.0051    2.5513 C   0  0  0  0  0  0  0  0  0  0  0  0
   -0.7102  -15.4445    2.4490 C   0  0  0  0  0  0  0  0  0  0  0  0
    0.3691  -16.2679    2.6503 C   0  0  0  0  0  0  0  0  0  0  0  0
    1.6467  -15.6971    2.8829 C   0  0  0  0  0  0  0  0  0  0  0  0
    1.7257  -14.2980    3.0207 C   0  0  0  0  0  0  0  0  0  0  0  0
    0.0208   -9.3242   -0.1677 C   0  0  0  0  0  0  0  0  0  0  0  0
    0.8354   -9.2491   -1.2393 O   0  0  0  0  0  0  0  0  0  0  0  0
   -1.3250   -9.5105   -0.4452 O   0  0  0  0  0  0  0  0  0  0  0  0
    0.7147   -5.4963    2.9562 Cl  0  0  0  0  0  0  0  0  0  0  0  0
  1  2  1  0
  8  9  1  0
  7 10  1  0
  9 10  1  0
  9 11  2  0
  5 12  1  0
 10 18  1  6
 18 19  1  0
 18 20  2  0
  8 21  1  6
  1  8  1  0
 12 13  2  0
 13 14  1  0
 14 15  2  0
 15 16  1  0
 16 17  2  0
 12 17  1  0
  2  3  2  0
  3  4  1  0
  4  5  2  0
  5  6  1  0
  6  7  2  0
  2  7  1  0
M  END

$$$$
No_3532-/export/home/yangzhenyu/potential_scad_32_flow//YTHDC2/2024-12-06-03-22-00/
     RDKit          3D

 18 19  0  0  1  0  0  0  0  0999 V2000
    1.1787   -8.0297    3.5154 C   0  0  0  0  0  0  0  0  0  0  0  0
    1.0491   -6.8434    2.9820 C   0  0  0  0  0  0  0  0  0  0  0  0
    0.0950   -8.8404    3.2292 C   0  0  0  0  0  0  0  0  0  0  0  0
   -0.9173   -8.4596    2.5152 C   0  0  0  0  0  0  0  0  0  0  0  0
   -1.0331   -7.2162    2.0653 C   0  0  0  0  0  0  0  0  0  0  0  0
   -0.0105   -6.3168    2.3081 C   0  0  0  0  0  0  0  0  0  0  0  0
    0.1150   -4.9910    1.8495 C   0  0  0  0  0  0  0  0  0  0  0  0
   -0.5774   -4.1593    2.0596 Cl  0  0  0  0  0  0  0  0  0  0  0  0
    0.1954  -10.4607    3.7742 Cl  0  0  0  0  0  0  0  0  0  0  0  0
    1.1595   -4.7608    0.8807 O   0  0  0  0  0  0  0  0  0  0  0  0
   -2.0984   -9.2696    2.4365 C   0  0  1  0  0  0  0  0  0  0  0  0
   -2.1846  -10.1279    1.4295 C   0  0  0  0  0  0  0  0  0  0  0  0
   -3.1033  -11.1022    1.5091 N   0  0  0  0  0  0  0  0  0  0  0  0
   -3.8210  -10.9581    2.5741 C   0  0  0  0  0  0  0  0  0  0  0  0
   -3.0890   -9.7236    3.2129 C   0  0  0  0  0  0  0  0  0  0  0  0
   -4.7383  -11.6643    3.2566 C   0  0  0  0  0  0  0  0  0  0  0  0
   -4.4906  -13.1128    3.2097 C   0  0  0  0  0  0  0  0  0  0  0  0
   -5.3801  -13.8981    4.0285 C   0  0  0  0  0  0  0  0  0  0  0  0
  6  7  1  0
  7  8  1  0
  3  9  1  0
  7 10  2  0
 11  4  1  1
 11 12  1  0
 12 13  2  0
 13 14  1  0
 11 15  1  0
 14 15  2  0
 14 16  1  0
 16 17  1  0
 17 18  2  0
  1  2  2  0
  2  6  1  0
  5  6  2  0
  4  5  1  0
  3  4  2  0
  1  3  1  0
M  END

$$$$
No_3533-/export/home/yangzhenyu/potential_scad_32_flow//YTHDC2/2024-12-06-03-22-00/
     RDKit          3D

 18 19  0  0  1  0  0  0  0  0999 V2000
    1.1787   -8.0297    3.5154 C   0  0  0  0  0  0  0  0  0  0  0  0
    1.1048   -9.2215    3.2892 C   0  0  0  0  0  0  0  0  0  0  0  0
    1.2339   -9.7611    2.0189 C   0  0  0  0  0  0  0  0  0  0  0  0
    1.3583   -9.0036    0.9764 C   0  0  0  0  0  0  0  0  0  0  0  0
    1.5996   -7.6362    1.1311 C   0  0  0  0  0  0  0  0  0  0  0  0
    1.4830   -7.0928    2.3626 C   0  0  0  0  0  0  0  0  0  0  0  0
    1.5395   -5.7300    2.6182 C   0  0  0  0  0  0  0  0  0  0  0  0
    1.1969  -11.3760    1.8433 N   0  0  0  0  0  0  0  0  0  0  0  0
    0.5940  -11.7269    0.7274 C   0  0  0  0  0  0  0  0  0  0  0  0
   -0.2370  -11.1068    0.0612 C   0  0  0  0  0  0  0  0  0  0  0  0
   -0.9325  -11.7482   -0.9702 N   0  0  0  0  0  0  0  0  0  0  0  0
   -0.7329  -13.0151   -1.0027 C   0  0  0  0  0  0  0  0  0  0  0  0
    0.3008  -13.2269    0.3577 C   0  0  1  0  0  0  0  0  0  0  0  0
    1.5960   -5.1766    3.8517 N   0  0  0  0  0  0  0  0  0  0  0  0
    1.4209   -4.8680    1.6047 O   0  0  0  0  0  0  0  0  0  0  0  0
   -1.0238  -14.2187   -1.5404 C   0  0  0  0  0  0  0  0  0  0  0  0
    0.9187  -14.2712    0.8494 C   0  0  0  0  0  0  0  0  0  0  0  0
    1.0427  -14.4798    1.9769 C   0  0  0  0  0  0  0  0  0  0  0  0
  6  7  1  0
  3  8  1  0
  8  9  1  0
  9 10  2  0
 10 11  1  0
 11 12  2  0
  9 13  1  0
 12 13  1  0
  7 14  1  0
  7 15  2  0
 12 16  1  0
 13 17  1  6
 17 18  2  0
  1  2  2  0
  2  3  1  0
  3  4  2  0
  4  5  1  0
  5  6  2  0
  1  6  1  0
M  END

$$$$
No_3534-/export/home/yangzhenyu/potential_scad_32_flow//YTHDC2/2024-12-06-03-22-00/
     RDKit          3D

 19 20  0  0  0  0  0  0  0  0999 V2000
    1.1787   -8.0297    3.5154 C   0  0  0  0  0  0  0  0  0  0  0  0
    1.0491   -6.8434    2.9820 C   0  0  0  0  0  0  0  0  0  0  0  0
    0.9905   -9.0774    2.6527 C   0  0  0  0  0  0  0  0  0  0  0  0
    0.7897   -8.9519    1.3691 C   0  0  0  0  0  0  0  0  0  0  0  0
    0.7018   -7.7198    0.7892 C   0  0  0  0  0  0  0  0  0  0  0  0
    0.8918   -6.5957    1.6117 C   0  0  0  0  0  0  0  0  0  0  0  0
    1.0998  -10.4710    3.2437 C   0  0  0  0  0  0  0  0  0  0  0  0
    0.0472  -11.2546    3.3963 C   0  0  0  0  0  0  0  0  0  0  0  0
    0.1622  -12.5732    3.4140 C   0  0  0  0  0  0  0  0  0  0  0  0
    1.4182  -13.1957    3.4048 C   0  0  0  0  0  0  0  0  0  0  0  0
    2.5550  -12.3947    3.0877 C   0  0  0  0  0  0  0  0  0  0  0  0
    2.4166  -11.0849    2.9699 C   0  0  0  0  0  0  0  0  0  0  0  0
    0.8666   -5.2662    1.1708 C   0  0  0  0  0  0  0  0  0  0  0  0
    1.4169  -14.5629    3.3676 O   0  0  0  0  0  0  0  0  0  0  0  0
    0.2036   -4.2248    1.9144 C   0  0  0  0  0  0  0  0  0  0  0  0
   -1.1533   -4.3366    1.8691 C   0  0  0  0  0  0  0  0  0  0  0  0
   -1.8516   -4.5042    0.8927 C   0  0  0  0  0  0  0  0  0  0  0  0
   -1.7078   -3.7722   -0.2668 N   0  0  0  0  0  0  0  0  0  0  0  0
   -1.9137   -4.2877   -1.4582 C   0  0  0  0  0  0  0  0  0  0  0  0
  3  7  1  0
  6 13  1  0
 10 14  1  0
 13 15  1  0
 15 16  1  0
 16 17  1  0
 17 18  1  0
 18 19  1  0
  1  2  2  0
  2  6  1  0
  5  6  2  0
  4  5  1  0
  3  4  2  0
  1  3  1  0
  7  8  2  0
  8  9  1  0
  9 10  2  0
 10 11  1  0
 11 12  2  0
  7 12  1  0
M  END

$$$$
No_3535-/export/home/yangzhenyu/potential_scad_32_flow//YTHDC2/2024-12-06-03-22-00/
     RDKit          3D

 19 20  0  0  1  0  0  0  0  0999 V2000
    1.1787   -8.0297    3.5154 C   0  0  0  0  0  0  0  0  0  0  0  0
    1.1048   -9.2215    3.2892 C   0  0  0  0  0  0  0  0  0  0  0  0
    1.2339   -9.7611    2.0189 C   0  0  1  0  0  0  0  0  0  0  0  0
    1.1954  -11.2312    1.8661 C   0  0  0  0  0  0  0  0  0  0  0  0
    1.5546  -12.1691    2.7931 C   0  0  0  0  0  0  0  0  0  0  0  0
    0.5849   -7.0929    2.5729 C   0  0  2  0  0  0  0  0  0  0  0  0
    0.5567   -7.6699    1.1955 C   0  0  0  0  0  0  0  0  0  0  0  0
    0.7903   -8.9699    0.9209 C   0  0  0  0  0  0  0  0  0  0  0  0
    1.5521  -13.4960    2.3485 C   0  0  0  0  0  0  0  0  0  0  0  0
    1.2403  -13.8919    1.1557 C   0  0  0  0  0  0  0  0  0  0  0  0
    1.0311  -12.9707    0.1488 C   0  0  0  0  0  0  0  0  0  0  0  0
    0.9678  -11.6394    0.4949 C   0  0  0  0  0  0  0  0  0  0  0  0
    0.6235   -5.6335    2.6368 C   0  0  0  0  0  0  0  0  0  0  0  0
    0.3286   -6.8520    0.1792 O   0  0  0  0  0  0  0  0  0  0  0  0
    1.7682   -4.9032    2.9572 C   0  0  0  0  0  0  0  0  0  0  0  0
    1.9499  -14.4178    3.3898 Br  0  0  0  0  0  0  0  0  0  0  0  0
    1.4943   -3.4466    2.9450 C   0  0  0  0  0  0  0  0  0  0  0  0
    0.1495   -2.9998    2.8714 C   0  0  0  0  0  0  0  0  0  0  0  0
   -0.8607   -3.7560    2.6089 C   0  0  0  0  0  0  0  0  0  0  0  0
  1  2  1  0
  3  4  1  1
  6  7  1  0
  3  8  1  0
  7  8  1  0
  6 13  1  6
  7 14  2  0
 13 15  1  0
  9 16  1  0
 15 17  2  3
 17 18  1  0
 18 19  2  0
  1  6  1  0
  2  3  1  0
  4  5  2  0
  5  9  1  0
  9 10  2  0
 10 11  1  0
 11 12  2  0
  4 12  1  0
M  END

$$$$
No_3536-/export/home/yangzhenyu/potential_scad_32_flow//YTHDC2/2024-12-06-03-22-00/
     RDKit          3D

 18 19  0  0  1  0  0  0  0  0999 V2000
    1.1787   -8.0297    3.5154 C   0  0  0  0  0  0  0  0  0  0  0  0
    1.0491   -6.8434    2.9820 C   0  0  0  0  0  0  0  0  0  0  0  0
    0.9905   -9.0774    2.6527 C   0  0  0  0  0  0  0  0  0  0  0  0
    0.7897   -8.9519    1.3691 C   0  0  0  0  0  0  0  0  0  0  0  0
    0.7018   -7.7198    0.7892 C   0  0  0  0  0  0  0  0  0  0  0  0
    0.8918   -6.5957    1.6117 C   0  0  0  0  0  0  0  0  0  0  0  0
    1.0711  -10.4814    3.2282 C   0  0  0  0  0  0  0  0  0  0  0  0
    1.1227  -11.5770    2.4616 C   0  0  0  0  0  0  0  0  0  0  0  0
    1.1500  -12.9052    3.0782 C   0  0  0  0  0  0  0  0  0  0  0  0
    0.6701  -13.9897    2.4998 C   0  0  2  0  0  0  0  0  0  0  0  0
   -0.3775  -14.0361    1.8374 C   0  0  0  0  0  0  0  0  0  0  0  0
    0.8115  -15.2766    3.3975 C   0  0  0  0  0  0  0  0  0  0  0  0
    0.8403   -5.2755    1.1579 Cl  0  0  0  0  0  0  0  0  0  0  0  0
    1.0523  -16.4908    2.7188 C   0  0  0  0  0  0  0  0  0  0  0  0
    1.8970  -16.5643    1.6624 C   0  0  0  0  0  0  0  0  0  0  0  0
    1.9691  -17.8747    1.2628 C   0  0  0  0  0  0  0  0  0  0  0  0
    1.3298  -18.9529    1.8345 C   0  0  0  0  0  0  0  0  0  0  0  0
    0.5669  -18.1927    2.9322 C   0  0  0  0  0  0  0  0  0  0  0  0
  3  7  1  0
  7  8  2  3
  8  9  1  0
  9 10  1  0
 10 11  1  1
 10 12  1  0
  6 13  1  0
 12 14  1  0
 14 15  1  0
 15 16  2  0
 16 17  1  0
 14 18  1  0
 17 18  2  0
  1  2  2  0
  2  6  1  0
  5  6  2  0
  4  5  1  0
  3  4  2  0
  1  3  1  0
M  END

$$$$
No_3537-/export/home/yangzhenyu/potential_scad_32_flow//YTHDC2/2024-12-06-03-22-00/
     RDKit          3D

 18 19  0  0  1  0  0  0  0  0999 V2000
    1.1787   -8.0297    3.5154 C   0  0  0  0  0  0  0  0  0  0  0  0
    1.0491   -6.8434    2.9820 C   0  0  0  0  0  0  0  0  0  0  0  0
    1.9985   -8.9840    2.8958 C   0  0  0  0  0  0  0  0  0  0  0  0
    1.7297   -9.2108    1.6335 C   0  0  0  0  0  0  0  0  0  0  0  0
    1.7343   -8.0566    0.8408 C   0  0  0  0  0  0  0  0  0  0  0  0
    1.0269   -6.8892    1.4456 C   0  0  0  0  0  0  0  0  0  0  0  0
    2.4114   -7.8399   -0.2028 O   0  0  0  0  0  0  0  0  0  0  0  0
    1.9528  -10.3635    3.5860 C   0  0  0  0  0  0  0  0  0  0  0  0
    1.7371  -11.3267    3.3968 C   0  0  0  0  0  0  0  0  0  0  0  0
    2.0234  -12.4771    4.2830 N   0  0  0  0  0  0  0  0  0  0  0  0
    1.1699  -11.8034    2.1308 C   0  0  1  0  0  0  0  0  0  0  0  0
    1.6896  -12.9881    1.5130 C   0  0  0  0  0  0  0  0  0  0  0  0
    1.1994  -13.3749    0.3858 N   0  0  0  0  0  0  0  0  0  0  0  0
    0.1130  -12.6642    0.0748 C   0  0  0  0  0  0  0  0  0  0  0  0
   -0.3011  -11.6902    1.1236 C   0  0  0  0  0  0  0  0  0  0  0  0
    0.8301   -5.6197    3.4437 O   0  0  0  0  0  0  0  0  0  0  0  0
   -0.9039  -12.6851   -0.8559 F   0  0  0  0  0  0  0  0  0  0  0  0
   -1.0946  -10.7544    1.3183 C   0  0  0  0  0  0  0  0  0  0  0  0
  1  2  1  0
  1  3  1  0
  3  4  1  0
  4  5  1  0
  2  6  1  0
  5  6  1  0
  5  7  2  0
  3  8  1  0
  8  9  2  3
  9 10  1  0
 11  9  1  1
 11 12  1  0
 12 13  2  0
 13 14  1  0
 11 15  1  0
 14 15  2  0
  2 16  2  0
 14 17  1  0
 15 18  1  0
M  END

$$$$
No_3538-/export/home/yangzhenyu/potential_scad_32_flow//YTHDC2/2024-12-06-03-22-00/
     RDKit          3D

 17 18  0  0  0  0  0  0  0  0999 V2000
    1.1787   -8.0297    3.5154 C   0  0  0  0  0  0  0  0  0  0  0  0
    1.1048   -9.2215    3.2892 C   0  0  0  0  0  0  0  0  0  0  0  0
    1.3627  -10.1721    4.3044 C   0  0  0  0  0  0  0  0  0  0  0  0
    2.3720  -10.8948    4.2468 C   0  0  0  0  0  0  0  0  0  0  0  0
    1.0579   -7.0441    2.4219 C   0  0  0  0  0  0  0  0  0  0  0  0
    0.8578   -7.4970    1.1686 C   0  0  0  0  0  0  0  0  0  0  0  0
    0.7382   -8.7683    0.8754 C   0  0  0  0  0  0  0  0  0  0  0  0
    0.8882   -9.7347    1.9238 C   0  0  0  0  0  0  0  0  0  0  0  0
    0.9437  -11.0299    1.7005 C   0  0  0  0  0  0  0  0  0  0  0  0
   -0.0869  -11.8512    1.8957 C   0  0  0  0  0  0  0  0  0  0  0  0
   -1.3063  -11.4679    2.1781 C   0  0  0  0  0  0  0  0  0  0  0  0
   -2.3546  -12.3223    2.3666 C   0  0  0  0  0  0  0  0  0  0  0  0
   -2.2100  -13.6712    2.3561 C   0  0  0  0  0  0  0  0  0  0  0  0
   -0.9016  -14.1529    1.9943 C   0  0  0  0  0  0  0  0  0  0  0  0
    0.1556  -13.2463    1.8067 C   0  0  0  0  0  0  0  0  0  0  0  0
   -0.6186  -15.5124    2.1940 C   0  0  0  0  0  0  0  0  0  0  0  0
   -1.3513  -16.4514    1.8272 C   0  0  0  0  0  0  0  0  0  0  0  0
  2  3  1  0
  3  4  1  0
  8  9  1  0
  9 10  1  0
 14 16  1  0
 16 17  2  0
  1  2  2  0
  2  8  1  0
  7  8  2  0
  6  7  1  0
  5  6  2  0
  1  5  1  0
 10 11  2  0
 11 12  1  0
 12 13  2  0
 13 14  1  0
 14 15  2  0
 10 15  1  0
M  END

$$$$
No_3539-/export/home/yangzhenyu/potential_scad_32_flow//YTHDC2/2024-12-06-03-22-00/
     RDKit          3D

 19 21  0  0  1  0  0  0  0  0999 V2000
    1.1787   -8.0297    3.5154 C   0  0  0  0  0  0  0  0  0  0  0  0
    1.0491   -6.8434    2.9820 C   0  0  0  0  0  0  0  0  0  0  0  0
    0.0950   -8.8404    3.2292 C   0  0  0  0  0  0  0  0  0  0  0  0
   -0.9173   -8.4596    2.5152 C   0  0  0  0  0  0  0  0  0  0  0  0
   -1.0331   -7.2162    2.0653 C   0  0  0  0  0  0  0  0  0  0  0  0
   -0.0105   -6.3168    2.3081 C   0  0  0  0  0  0  0  0  0  0  0  0
    0.1465  -10.2446    3.6981 C   0  0  0  0  0  0  0  0  0  0  0  0
   -1.0337  -10.8619    3.9439 C   0  0  0  0  0  0  0  0  0  0  0  0
   -0.8576  -12.3101    4.1964 C   0  0  0  0  0  0  0  0  0  0  0  0
    0.0650  -12.9349    3.4153 C   0  0  0  0  0  0  0  0  0  0  0  0
    1.2506  -12.1869    3.0109 C   0  0  0  0  0  0  0  0  0  0  0  0
    1.2382  -10.8590    3.0650 C   0  0  0  0  0  0  0  0  0  0  0  0
    0.0316  -14.4440    2.9765 O   0  0  0  0  0  0  0  0  0  0  0  0
    1.2524  -14.9498    2.6346 C   0  0  2  0  0  0  0  0  0  0  0  0
   -0.0352   -4.9850    1.8314 Cl  0  0  0  0  0  0  0  0  0  0  0  0
    1.9567  -14.5005    1.8349 C   0  0  0  0  0  0  0  0  0  0  0  0
    2.1853  -12.8987    2.1345 C   0  0  0  0  0  0  0  0  0  0  0  0
    0.9495  -16.3616    2.3575 C   0  0  0  0  0  0  0  0  0  0  0  0
    0.5705  -17.0592    3.0816 C   0  0  0  0  0  0  0  0  0  0  0  0
  3  7  1  0
 10 13  1  0
 13 14  1  0
  6 15  1  0
 14 16  1  0
 11 17  1  0
 16 17  1  0
 14 18  1  6
 18 19  1  0
  1  2  2  0
  2  6  1  0
  5  6  2  0
  4  5  1  0
  3  4  2  0
  1  3  1  0
  7  8  2  0
  8  9  1  0
  9 10  2  0
 10 11  1  0
 11 12  2  0
  7 12  1  0
M  END

$$$$
No_3540-/export/home/yangzhenyu/potential_scad_32_flow//YTHDC2/2024-12-06-03-22-00/
     RDKit          3D

 18 19  0  0  0  0  0  0  0  0999 V2000
    1.1787   -8.0297    3.5154 C   0  0  0  0  0  0  0  0  0  0  0  0
    1.0491   -6.8434    2.9820 C   0  0  0  0  0  0  0  0  0  0  0  0
    0.0950   -8.8404    3.2292 N   0  0  0  0  0  0  0  0  0  0  0  0
    0.7571   -6.7649    1.5728 C   0  0  0  0  0  0  0  0  0  0  0  0
    0.4712   -5.5285    1.1100 C   0  0  0  0  0  0  0  0  0  0  0  0
    0.7858   -4.3046    1.8642 C   0  0  0  0  0  0  0  0  0  0  0  0
    1.3778   -4.4723    3.1874 C   0  0  0  0  0  0  0  0  0  0  0  0
    1.5829   -5.7170    3.6647 C   0  0  0  0  0  0  0  0  0  0  0  0
    0.2523  -10.0797    2.7932 C   0  0  0  0  0  0  0  0  0  0  0  0
    1.5617  -10.5185    2.4349 C   0  0  0  0  0  0  0  0  0  0  0  0
    1.8497  -11.5703    1.9139 C   0  0  0  0  0  0  0  0  0  0  0  0
    0.9226  -12.3403    1.4128 C   0  0  0  0  0  0  0  0  0  0  0  0
   -0.3801  -12.0325    1.5355 C   0  0  0  0  0  0  0  0  0  0  0  0
   -0.6870  -10.9385    2.2884 C   0  0  0  0  0  0  0  0  0  0  0  0
    1.2495  -13.6021    0.6699 Cl  0  0  0  0  0  0  0  0  0  0  0  0
    0.5984   -3.0222    1.3337 Cl  0  0  0  0  0  0  0  0  0  0  0  0
   -1.2354   -8.4309    3.7171 C   0  0  0  0  0  0  0  0  0  0  0  0
   -2.0334   -7.5718    3.1610 O   0  0  0  0  0  0  0  0  0  0  0  0
  1  2  1  0
  1  3  1  0
  3  9  1  0
 12 15  1  0
  6 16  1  0
  3 17  1  0
 17 18  2  0
  9 10  2  0
 10 11  1  0
 11 12  2  0
 12 13  1  0
 13 14  2  0
  9 14  1  0
  2  4  2  0
  4  5  1  0
  5  6  2  0
  6  7  1  0
  7  8  2  0
  2  8  1  0
M  END

$$$$
No_3541-/export/home/yangzhenyu/potential_scad_32_flow//YTHDC2/2024-12-06-03-22-00/
     RDKit          3D

 20 21  0  0  0  0  0  0  0  0999 V2000
    1.1787   -8.0297    3.5154 C   0  0  0  0  0  0  0  0  0  0  0  0
    1.1048   -9.2215    3.2892 C   0  0  0  0  0  0  0  0  0  0  0  0
    1.2339   -9.7611    2.0189 C   0  0  0  0  0  0  0  0  0  0  0  0
    1.3583   -9.0036    0.9764 C   0  0  0  0  0  0  0  0  0  0  0  0
    1.5996   -7.6362    1.1311 C   0  0  0  0  0  0  0  0  0  0  0  0
    1.4830   -7.0928    2.3626 C   0  0  0  0  0  0  0  0  0  0  0  0
    1.4898   -5.7274    2.6199 C   0  0  0  0  0  0  0  0  0  0  0  0
    1.1681  -11.2222    1.8390 C   0  0  0  0  0  0  0  0  0  0  0  0
    0.7145  -11.5870    0.5424 C   0  0  0  0  0  0  0  0  0  0  0  0
    0.5927  -13.0110    0.4510 C   0  0  0  0  0  0  0  0  0  0  0  0
    0.0172  -13.6315   -0.4096 C   0  0  0  0  0  0  0  0  0  0  0  0
    1.7679  -12.0299    2.6831 C   0  0  0  0  0  0  0  0  0  0  0  0
    1.7337  -13.3434    2.6164 N   0  0  0  0  0  0  0  0  0  0  0  0
    1.1995  -13.9423    1.5947 C   0  0  0  0  0  0  0  0  0  0  0  0
    1.2855  -15.2156    1.4904 C   0  0  0  0  0  0  0  0  0  0  0  0
    2.0164  -15.9421    2.4816 C   0  0  0  0  0  0  0  0  0  0  0  0
    2.2650  -17.2817    2.4969 C   0  0  0  0  0  0  0  0  0  0  0  0
    1.2335   -4.8692    1.6228 Cl  0  0  0  0  0  0  0  0  0  0  0  0
    1.5005  -18.3140    2.5068 N   0  0  0  0  0  0  0  0  0  0  0  0
    3.7215  -17.5757    2.6305 O   0  0  0  0  0  0  0  0  0  0  0  0
  6  7  1  0
  3  8  1  0
 10 11  1  0
 14 15  1  0
 15 16  2  3
 16 17  1  0
  7 18  1  0
 17 19  1  0
 17 20  2  0
  8  9  2  0
  9 10  1  0
 10 14  2  0
 13 14  1  0
 12 13  2  0
  8 12  1  0
  1  2  2  0
  2  3  1  0
  3  4  2  0
  4  5  1  0
  5  6  2  0
  1  6  1  0
M  END

$$$$
No_3542-/export/home/yangzhenyu/potential_scad_32_flow//YTHDC2/2024-12-06-03-22-00/
     RDKit          3D

 18 20  0  0  0  0  0  0  0  0999 V2000
    1.1787   -8.0297    3.5154 C   0  0  0  0  0  0  0  0  0  0  0  0
    1.0491   -6.8434    2.9820 C   0  0  0  0  0  0  0  0  0  0  0  0
    1.0690   -9.1150    2.7206 C   0  0  0  0  0  0  0  0  0  0  0  0
    0.9922   -6.9198    1.5405 C   0  0  0  0  0  0  0  0  0  0  0  0
    1.0882   -9.1996    1.4643 C   0  0  0  0  0  0  0  0  0  0  0  0
    1.0023   -8.0062    0.7959 C   0  0  0  0  0  0  0  0  0  0  0  0
    1.2376  -10.5054    3.4969 C   0  0  0  0  0  0  0  0  0  0  0  0
    1.4658  -11.6673    2.7538 C   0  0  0  0  0  0  0  0  0  0  0  0
    1.6486  -11.7112    1.3978 C   0  0  0  0  0  0  0  0  0  0  0  0
    1.4421  -10.4377    0.6849 C   0  0  0  0  0  0  0  0  0  0  0  0
    1.6894  -13.1478    3.4759 C   0  0  0  0  0  0  0  0  0  0  0  0
    1.1812  -14.1709    2.5128 C   0  0  0  0  0  0  0  0  0  0  0  0
    1.1066  -15.2751    3.1442 C   0  0  0  0  0  0  0  0  0  0  0  0
    0.9039  -16.5034    2.4666 C   0  0  0  0  0  0  0  0  0  0  0  0
    1.1850  -15.8509    0.9720 C   0  0  0  0  0  0  0  0  0  0  0  0
    1.3881  -14.4823    1.2294 C   0  0  0  0  0  0  0  0  0  0  0  0
    0.8789   -5.6317    0.8577 O   0  0  0  0  0  0  0  0  0  0  0  0
    0.4006   -4.5076    1.5446 C   0  0  0  0  0  0  0  0  0  0  0  0
  8 11  1  0
 11 12  1  0
 12 13  1  0
 13 14  2  0
 14 15  1  0
 12 16  1  0
 15 16  2  0
  4 17  1  0
 17 18  1  0
  5 10  2  0
  9 10  1  0
  8  9  2  0
  7  8  1  0
  3  7  2  0
  1  2  2  0
  2  4  1  0
  4  6  2  0
  5  6  1  0
  3  5  1  0
  1  3  1  0
M  END

$$$$
No_3543-/export/home/yangzhenyu/potential_scad_32_flow//YTHDC2/2024-12-06-03-22-00/
     RDKit          3D

 19 20  0  0  0  0  0  0  0  0999 V2000
    1.1787   -8.0297    3.5154 C   0  0  0  0  0  0  0  0  0  0  0  0
    1.0491   -6.8434    2.9820 C   0  0  0  0  0  0  0  0  0  0  0  0
    0.9905   -9.0774    2.6527 C   0  0  0  0  0  0  0  0  0  0  0  0
    0.7897   -8.9519    1.3691 C   0  0  0  0  0  0  0  0  0  0  0  0
    0.7018   -7.7198    0.7892 C   0  0  0  0  0  0  0  0  0  0  0  0
    0.8918   -6.5957    1.6117 C   0  0  0  0  0  0  0  0  0  0  0  0
    1.0600  -10.5680    3.3321 C   0  0  0  0  0  0  0  0  0  0  0  0
   -0.1041  -11.1772    3.5150 C   0  0  0  0  0  0  0  0  0  0  0  0
   -0.6926  -11.6099    2.5612 N   0  0  0  0  0  0  0  0  0  0  0  0
    0.9436   -5.2665    1.1531 C   0  0  0  0  0  0  0  0  0  0  0  0
   -0.0713  -12.6503    1.9074 C   0  0  0  0  0  0  0  0  0  0  0  0
   -0.4524  -13.0239    0.7054 C   0  0  0  0  0  0  0  0  0  0  0  0
    0.1548  -14.1515    0.0835 C   0  0  0  0  0  0  0  0  0  0  0  0
    1.1890  -13.1878    2.5942 C   0  0  0  0  0  0  0  0  0  0  0  0
    1.7076  -14.3513    1.9330 C   0  0  0  0  0  0  0  0  0  0  0  0
    1.3430  -14.7240    0.6781 C   0  0  0  0  0  0  0  0  0  0  0  0
   -2.0119  -11.2327    2.3451 C   0  0  0  0  0  0  0  0  0  0  0  0
   -2.9838  -12.2338    2.4039 C   0  0  0  0  0  0  0  0  0  0  0  0
   -4.1877  -12.0198    1.8812 O   0  0  0  0  0  0  0  0  0  0  0  0
  3  7  1  0
  7  8  1  0
  8  9  1  0
  6 10  1  0
  9 11  1  0
  9 17  1  0
 17 18  1  0
 18 19  2  0
  1  2  2  0
  2  6  1  0
  5  6  2  0
  4  5  1  0
  3  4  2  0
  1  3  1  0
 11 12  2  0
 12 13  1  0
 13 16  2  0
 15 16  1  0
 14 15  2  0
 11 14  1  0
M  END

$$$$
No_3544-/export/home/yangzhenyu/potential_scad_32_flow//YTHDC2/2024-12-06-03-22-00/
     RDKit          3D

 19 21  0  0  1  0  0  0  0  0999 V2000
    1.1787   -8.0297    3.5154 C   0  0  0  0  0  0  0  0  0  0  0  0
    1.1048   -9.2215    3.2892 C   0  0  0  0  0  0  0  0  0  0  0  0
    1.3627  -10.1721    4.3044 C   0  0  0  0  0  0  0  0  0  0  0  0
    1.0682  -11.5187    4.0618 C   0  0  0  0  0  0  0  0  0  0  0  0
    0.6332  -11.9655    2.9682 C   0  0  0  0  0  0  0  0  0  0  0  0
    0.4776  -11.1308    1.9203 C   0  0  0  0  0  0  0  0  0  0  0  0
    0.7470   -9.8274    2.0368 C   0  0  0  0  0  0  0  0  0  0  0  0
    0.5535   -7.1314    2.6861 C   0  0  0  0  0  0  0  0  0  0  0  0
    0.2950   -7.6000    1.3275 C   0  0  0  0  0  0  0  0  0  0  0  0
    0.2693   -8.8631    1.0973 C   0  0  1  0  0  0  0  0  0  0  0  0
   -0.0069   -6.7080    0.3888 O   0  0  0  0  0  0  0  0  0  0  0  0
    0.4919  -13.3974    2.7286 C   0  0  0  0  0  0  0  0  0  0  0  0
    1.3232  -14.3394    3.2226 C   0  0  0  0  0  0  0  0  0  0  0  0
    1.1286  -15.6926    3.0184 C   0  0  0  0  0  0  0  0  0  0  0  0
    0.1669  -16.1463    2.2661 C   0  0  0  0  0  0  0  0  0  0  0  0
   -0.6291  -15.2807    1.6620 C   0  0  0  0  0  0  0  0  0  0  0  0
   -0.4293  -13.9274    1.8406 C   0  0  0  0  0  0  0  0  0  0  0  0
    0.8414   -9.1344   -0.1819 C   0  0  0  0  0  0  0  0  0  0  0  0
   -0.2820   -9.4483   -1.0763 Cl  0  0  0  0  0  0  0  0  0  0  0  0
  1  2  1  0
  8  9  1  0
  7 10  1  0
  9 10  1  0
  9 11  2  0
  5 12  1  0
 10 18  1  6
 18 19  1  0
  1  8  1  0
 12 13  2  0
 13 14  1  0
 14 15  2  0
 15 16  1  0
 16 17  2  0
 12 17  1  0
  2  3  2  0
  3  4  1  0
  4  5  2  0
  5  6  1  0
  6  7  2  0
  2  7  1  0
M  END

$$$$
No_3545-/export/home/yangzhenyu/potential_scad_32_flow//YTHDC2/2024-12-06-03-22-00/
     RDKit          3D

 16 17  0  0  0  0  0  0  0  0999 V2000
    1.1787   -8.0297    3.5154 C   0  0  0  0  0  0  0  0  0  0  0  0
    1.0491   -6.8434    2.9820 C   0  0  0  0  0  0  0  0  0  0  0  0
    0.9905   -9.0774    2.6527 C   0  0  0  0  0  0  0  0  0  0  0  0
    1.1655  -10.4663    3.1286 C   0  0  0  0  0  0  0  0  0  0  0  0
    1.2197  -11.4898    2.5831 C   0  0  0  0  0  0  0  0  0  0  0  0
    1.0589  -11.4458    1.1293 C   0  0  0  0  0  0  0  0  0  0  0  0
    0.9638  -10.3069    0.4651 C   0  0  0  0  0  0  0  0  0  0  0  0
    0.9191   -9.0789    1.1942 C   0  0  0  0  0  0  0  0  0  0  0  0
    0.9198   -7.8339    0.6158 C   0  0  0  0  0  0  0  0  0  0  0  0
    1.3243   -5.6377    3.5910 O   0  0  0  0  0  0  0  0  0  0  0  0
    1.0734   -6.6334    1.4854 C   0  0  0  0  0  0  0  0  0  0  0  0
    1.3968  -13.0161    3.2329 C   0  0  0  0  0  0  0  0  0  0  0  0
    0.2197  -13.8376    3.0329 C   0  0  0  0  0  0  0  0  0  0  0  0
    0.6151  -15.2124    3.1463 C   0  0  0  0  0  0  0  0  0  0  0  0
   -0.2352  -16.2069    3.1904 C   0  0  0  0  0  0  0  0  0  0  0  0
   -1.5628  -15.8359    2.9599 C   0  0  0  0  0  0  0  0  0  0  0  0
  2 10  1  0
  5 12  1  0
 12 13  1  0
 13 14  1  0
 14 15  2  3
 15 16  1  0
  1  2  2  0
  2 11  1  0
  9 11  2  0
  8  9  1  0
  1  3  1  0
  3  4  2  0
  4  5  1  0
  5  6  2  0
  6  7  1  0
  7  8  2  0
  3  8  1  0
M  END

$$$$
No_3546-/export/home/yangzhenyu/potential_scad_32_flow//YTHDC2/2024-12-06-03-22-00/
     RDKit          3D

 17 17  0  0  0  0  0  0  0  0999 V2000
    1.1787   -8.0297    3.5154 C   0  0  0  0  0  0  0  0  0  0  0  0
    1.0491   -6.8434    2.9820 C   0  0  0  0  0  0  0  0  0  0  0  0
    0.2462   -8.9560    3.0873 C   0  0  0  0  0  0  0  0  0  0  0  0
    0.3295   -6.5187    1.9069 C   0  0  0  0  0  0  0  0  0  0  0  0
   -0.5260   -8.7862    2.1368 C   0  0  0  0  0  0  0  0  0  0  0  0
   -1.4132   -9.8266    1.7693 C   0  0  0  0  0  0  0  0  0  0  0  0
   -0.5153   -7.5320    1.5099 C   0  0  0  0  0  0  0  0  0  0  0  0
   -0.9852  -10.8166    1.0374 C   0  0  0  0  0  0  0  0  0  0  0  0
    0.4501  -10.8053    0.4571 C   0  0  0  0  0  0  0  0  0  0  0  0
    0.7316   -9.8149   -0.4853 O   0  0  0  0  0  0  0  0  0  0  0  0
    1.4016  -11.5151    0.8386 O   0  0  0  0  0  0  0  0  0  0  0  0
    0.2700   -5.3070    1.2993 O   0  0  0  0  0  0  0  0  0  0  0  0
    1.1118   -4.3784    1.9118 C   0  0  0  0  0  0  0  0  0  0  0  0
    0.2676  -10.2029    3.9498 N   0  0  0  0  0  0  0  0  0  0  0  0
    1.2682  -11.0236    4.0896 C   0  0  0  0  0  0  0  0  0  0  0  0
    1.0895  -12.3375    3.9809 O   0  0  0  0  0  0  0  0  0  0  0  0
    2.2245  -10.8660    5.2977 O   0  0  0  0  0  0  0  0  0  0  0  0
  5  6  1  0
  6  8  2  3
  8  9  1  0
  9 10  1  0
  9 11  2  0
  4 12  1  0
 12 13  1  0
  3 14  1  0
 14 15  1  0
 15 16  1  0
 15 17  2  0
  1  2  2  0
  2  4  1  0
  4  7  2  0
  5  7  1  0
  3  5  2  0
  1  3  1  0
M  END

$$$$
No_3547-/export/home/yangzhenyu/potential_scad_32_flow//YTHDC2/2024-12-06-03-22-00/
     RDKit          3D

 19 20  0  0  0  0  0  0  0  0999 V2000
    1.1787   -8.0297    3.5154 C   0  0  0  0  0  0  0  0  0  0  0  0
    1.0491   -6.8434    2.9820 C   0  0  0  0  0  0  0  0  0  0  0  0
    0.9905   -9.0774    2.6527 C   0  0  0  0  0  0  0  0  0  0  0  0
    0.7897   -8.9519    1.3691 C   0  0  0  0  0  0  0  0  0  0  0  0
    0.7018   -7.7198    0.7892 C   0  0  0  0  0  0  0  0  0  0  0  0
    0.8918   -6.5957    1.6117 C   0  0  0  0  0  0  0  0  0  0  0  0
    1.0600  -10.5680    3.3321 C   0  0  0  0  0  0  0  0  0  0  0  0
    2.1422  -11.0089    3.6867 C   0  0  0  0  0  0  0  0  0  0  0  0
    0.8986   -5.2530    1.1685 C   0  0  0  0  0  0  0  0  0  0  0  0
   -0.0562  -11.2191    3.4645 C   0  0  0  0  0  0  0  0  0  0  0  0
   -1.1678  -10.4923    4.0287 C   0  0  0  0  0  0  0  0  0  0  0  0
    2.1571  -11.9455    4.7244 O   0  0  0  0  0  0  0  0  0  0  0  0
   -2.4637  -10.7629    3.7643 C   0  0  0  0  0  0  0  0  0  0  0  0
   -2.7198  -11.8838    3.0157 C   0  0  0  0  0  0  0  0  0  0  0  0
   -1.6920  -12.6387    2.4155 C   0  0  0  0  0  0  0  0  0  0  0  0
   -0.3581  -12.3265    2.6367 C   0  0  0  0  0  0  0  0  0  0  0  0
   -0.2097   -4.7512    0.7242 C   0  0  0  0  0  0  0  0  0  0  0  0
   -0.3057   -3.4000    0.3188 C   0  0  0  0  0  0  0  0  0  0  0  0
   -0.8666   -3.0038   -0.7572 C   0  0  0  0  0  0  0  0  0  0  0  0
  3  7  1  0
  7  8  1  0
  6  9  1  0
  7 10  1  0
  8 12  2  0
  9 17  2  3
 17 18  1  0
 18 19  1  0
  1  2  2  0
  2  6  1  0
  5  6  2  0
  4  5  1  0
  3  4  2  0
  1  3  1  0
 10 11  2  0
 11 13  1  0
 13 14  2  0
 14 15  1  0
 15 16  2  0
 10 16  1  0
M  END

$$$$
No_3548-/export/home/yangzhenyu/potential_scad_32_flow//YTHDC2/2024-12-06-03-22-00/
     RDKit          3D

 19 20  0  0  1  0  0  0  0  0999 V2000
    1.1787   -8.0297    3.5154 C   0  0  0  0  0  0  0  0  0  0  0  0
    1.1048   -9.2215    3.2892 C   0  0  0  0  0  0  0  0  0  0  0  0
    1.3627  -10.1721    4.3044 Br  0  0  0  0  0  0  0  0  0  0  0  0
    0.9334   -6.8883    2.5517 C   0  0  0  0  0  0  0  0  0  0  0  0
    0.7773   -7.3570    1.2473 C   0  0  0  0  0  0  0  0  0  0  0  0
    0.6692   -8.6268    0.9370 C   0  0  0  0  0  0  0  0  0  0  0  0
    0.8664   -9.6065    1.8721 C   0  0  0  0  0  0  0  0  0  0  0  0
    0.7853  -10.9445    1.6470 C   0  0  2  0  0  0  0  0  0  0  0  0
    1.8817  -11.7075    1.3962 C   0  0  0  0  0  0  0  0  0  0  0  0
    1.8691  -12.9047    1.5176 C   0  0  0  0  0  0  0  0  0  0  0  0
    0.7006  -13.6591    1.3149 C   0  0  0  0  0  0  0  0  0  0  0  0
   -0.4788  -13.0571    1.2840 C   0  0  0  0  0  0  0  0  0  0  0  0
   -0.4358  -11.6427    1.4366 C   0  0  0  0  0  0  0  0  0  0  0  0
    1.1569   -5.5257    2.9054 Cl  0  0  0  0  0  0  0  0  0  0  0  0
   -1.6165  -10.9102    1.4532 O   0  0  0  0  0  0  0  0  0  0  0  0
    0.6784  -15.0620    1.1410 C   0  0  0  0  0  0  0  0  0  0  0  0
    1.6919  -15.7595    1.8977 C   0  0  0  0  0  0  0  0  0  0  0  0
    1.4358  -16.6662    2.5810 C   0  0  0  0  0  0  0  0  0  0  0  0
    0.2903  -17.4478    2.2604 C   0  0  0  0  0  0  0  0  0  0  0  0
  2  3  1  0
  8  7  1  6
  8  9  1  0
 10 11  1  0
  8 13  1  0
 12 13  1  0
  4 14  1  0
 13 15  2  0
 11 16  1  0
 16 17  1  0
 17 18  2  3
 18 19  1  0
  9 10  1  0
 11 12  1  0
  1  2  2  0
  2  7  1  0
  6  7  2  0
  5  6  1  0
  4  5  2  0
  1  4  1  0
M  END

$$$$
No_3549-/export/home/yangzhenyu/potential_scad_32_flow//YTHDC2/2024-12-06-03-22-00/
     RDKit          3D

 19 20  0  0  0  0  0  0  0  0999 V2000
    1.1787   -8.0297    3.5154 C   0  0  0  0  0  0  0  0  0  0  0  0
    1.1048   -9.2215    3.2892 C   0  0  0  0  0  0  0  0  0  0  0  0
    1.2339   -9.7611    2.0189 C   0  0  0  0  0  0  0  0  0  0  0  0
    1.3583   -9.0036    0.9764 C   0  0  0  0  0  0  0  0  0  0  0  0
    1.5996   -7.6362    1.1311 C   0  0  0  0  0  0  0  0  0  0  0  0
    1.4830   -7.0928    2.3626 C   0  0  0  0  0  0  0  0  0  0  0  0
    1.1008  -11.2372    1.8542 C   0  0  0  0  0  0  0  0  0  0  0  0
    1.9749  -12.0938    2.2342 C   0  0  0  0  0  0  0  0  0  0  0  0
    1.5180  -13.3509    2.5910 C   0  0  0  0  0  0  0  0  0  0  0  0
    0.4120  -13.9272    2.2191 C   0  0  0  0  0  0  0  0  0  0  0  0
   -0.5860  -13.0563    1.8308 C   0  0  0  0  0  0  0  0  0  0  0  0
   -0.2264  -11.7453    1.4928 C   0  0  0  0  0  0  0  0  0  0  0  0
    1.5759   -5.6593    2.6277 C   0  0  0  0  0  0  0  0  0  0  0  0
    0.0964  -15.2149    2.5390 N   0  0  0  0  0  0  0  0  0  0  0  0
   -1.0622  -15.7827    2.3932 C   0  0  0  0  0  0  0  0  0  0  0  0
   -2.0948  -15.5380    2.6549 N   0  0  0  0  0  0  0  0  0  0  0  0
   -0.7501  -17.3156    2.1401 C   0  0  0  0  0  0  0  0  0  0  0  0
    1.2555   -4.7880    1.6469 O   0  0  0  0  0  0  0  0  0  0  0  0
    1.5968   -5.0978    3.8487 O   0  0  0  0  0  0  0  0  0  0  0  0
  3  7  1  0
  6 13  1  0
 10 14  1  0
 14 15  2  3
 15 16  1  0
 15 17  1  0
 13 18  2  0
 13 19  1  0
  1  2  2  0
  2  3  1  0
  3  4  2  0
  4  5  1  0
  5  6  2  0
  1  6  1  0
  7  8  2  0
  8  9  1  0
  9 10  2  0
 10 11  1  0
 11 12  2  0
  7 12  1  0
M  END

$$$$
No_3550-/export/home/yangzhenyu/potential_scad_32_flow//YTHDC2/2024-12-06-03-22-00/
     RDKit          3D

 18 18  0  0  1  0  0  0  0  0999 V2000
    1.1787   -8.0297    3.5154 C   0  0  0  0  0  0  0  0  0  0  0  0
    1.0491   -6.8434    2.9820 C   0  0  0  0  0  0  0  0  0  0  0  0
    0.0950   -8.8404    3.2292 C   0  0  0  0  0  0  0  0  0  0  0  0
   -0.9173   -8.4596    2.5152 C   0  0  0  0  0  0  0  0  0  0  0  0
   -1.0331   -7.2162    2.0653 C   0  0  0  0  0  0  0  0  0  0  0  0
   -0.0105   -6.3168    2.3081 C   0  0  0  0  0  0  0  0  0  0  0  0
    0.1465  -10.2446    3.6981 C   0  0  0  0  0  0  0  0  0  0  0  0
    0.1907  -11.3369    2.8651 N   0  0  0  0  0  0  0  0  0  0  0  0
    0.0122  -11.3647    1.7514 C   0  0  1  0  0  0  0  0  0  0  0  0
    1.0815  -10.9473    0.7934 C   0  0  0  0  0  0  0  0  0  0  0  0
    2.3898  -11.3486    1.2069 N   0  0  0  0  0  0  0  0  0  0  0  0
    0.9125  -10.2153   -0.2561 Cl  0  0  0  0  0  0  0  0  0  0  0  0
   -0.0300   -4.9880    1.8172 O   0  0  0  0  0  0  0  0  0  0  0  0
    0.0263  -10.3184    5.0930 O   0  0  0  0  0  0  0  0  0  0  0  0
   -0.9893  -12.1760    1.1918 C   0  0  0  0  0  0  0  0  0  0  0  0
   -0.2079   -3.9851    2.3882 C   0  0  0  0  0  0  0  0  0  0  0  0
   -2.0523  -11.6175    0.7179 C   0  0  0  0  0  0  0  0  0  0  0  0
    2.5089  -11.8887    2.0520 H   0  0  0  0  0  0  0  0  0  0  0  0
  3  7  1  0
  7  8  1  0
  8  9  1  0
  9 10  1  0
 10 11  2  0
 10 12  1  0
  6 13  1  0
  7 14  2  0
  9 15  1  6
 13 16  1  0
 15 17  1  0
  1  2  2  0
  2  6  1  0
  5  6  2  0
  4  5  1  0
  3  4  2  0
  1  3  1  0
 11 18  1  0
M  END

$$$$
No_3551-/export/home/yangzhenyu/potential_scad_32_flow//YTHDC2/2024-12-06-03-22-00/
     RDKit          3D

 20 21  0  0  1  0  0  0  0  0999 V2000
    1.1787   -8.0297    3.5154 N   0  0  0  0  0  0  0  0  0  0  0  0
    1.0818   -9.0751    3.2053 C   0  0  0  0  0  0  0  0  0  0  0  0
    0.7576   -9.3725    1.9159 C   0  0  0  0  0  0  0  0  0  0  0  0
    0.7445  -10.8746    1.6491 C   0  0  0  0  0  0  0  0  0  0  0  0
    0.9910  -11.7526    2.6067 C   0  0  0  0  0  0  0  0  0  0  0  0
    1.4405  -11.4331    3.8064 C   0  0  0  0  0  0  0  0  0  0  0  0
    1.4304  -10.0463    4.1669 C   0  0  0  0  0  0  0  0  0  0  0  0
    1.1048   -6.8241    2.6625 C   0  0  0  0  0  0  0  0  0  0  0  0
    1.1656   -5.5118    3.0248 N   0  0  0  0  0  0  0  0  0  0  0  0
    0.8165   -6.9603    1.2102 O   0  0  0  0  0  0  0  0  0  0  0  0
    0.9751  -13.2038    2.3486 N   0  0  0  0  0  0  0  0  0  0  0  0
    1.6920  -14.0830    2.7940 C   0  0  0  0  0  0  0  0  0  0  0  0
    1.3010  -15.4621    2.5586 C   0  0  2  0  0  0  0  0  0  0  0  0
    0.1505  -15.8306    3.0268 C   0  0  0  0  0  0  0  0  0  0  0  0
   -0.1883  -17.2249    2.9297 C   0  0  0  0  0  0  0  0  0  0  0  0
    0.6284  -18.1053    2.3330 C   0  0  0  0  0  0  0  0  0  0  0  0
    1.9421  -17.6861    1.9798 C   0  0  0  0  0  0  0  0  0  0  0  0
    2.2935  -16.3388    2.1033 C   0  0  0  0  0  0  0  0  0  0  0  0
    3.4282  -15.9506    1.7397 O   0  0  0  0  0  0  0  0  0  0  0  0
    1.6161   -5.1571    4.2117 C   0  0  0  0  0  0  0  0  0  0  0  0
  1  2  1  0
  1  8  2  3
  8  9  1  0
  8 10  1  0
  5 11  1  0
 11 12  1  0
 13 12  1  1
 13 14  1  0
 15 16  1  0
 13 18  1  0
 17 18  1  0
 18 19  2  0
  9 20  1  0
 14 15  1  0
 16 17  1  0
  2  3  2  0
  3  4  1  0
  4  5  2  0
  5  6  1  0
  6  7  2  0
  2  7  1  0
M  END

$$$$
No_3552-/export/home/yangzhenyu/potential_scad_32_flow//YTHDC2/2024-12-06-03-22-00/
     RDKit          3D

 19 19  0  0  0  0  0  0  0  0999 V2000
    1.1787   -8.0297    3.5154 N   0  0  0  0  0  0  0  0  0  0  0  0
    1.0818   -9.0751    3.2053 C   0  0  0  0  0  0  0  0  0  0  0  0
    0.7576   -9.3725    1.9159 C   0  0  0  0  0  0  0  0  0  0  0  0
    0.8823   -8.4917    1.0547 C   0  0  0  0  0  0  0  0  0  0  0  0
    1.4631   -7.3107    1.2451 C   0  0  0  0  0  0  0  0  0  0  0  0
    1.6470   -6.9326    2.5669 C   0  0  0  0  0  0  0  0  0  0  0  0
    0.8161  -10.1250    4.2446 C   0  0  0  0  0  0  0  0  0  0  0  0
   -0.4877  -10.6098    4.4191 C   0  0  0  0  0  0  0  0  0  0  0  0
    1.9151  -10.7236    4.7966 C   0  0  0  0  0  0  0  0  0  0  0  0
    2.8187  -11.2330    4.6234 C   0  0  0  0  0  0  0  0  0  0  0  0
    3.9125  -11.1426    5.5467 C   0  0  0  0  0  0  0  0  0  0  0  0
    0.8710   -8.8918   -0.4105 C   0  0  0  0  0  0  0  0  0  0  0  0
   -0.4701   -9.0450   -0.7464 O   0  0  0  0  0  0  0  0  0  0  0  0
    1.6615   -8.8957   -1.2574 O   0  0  0  0  0  0  0  0  0  0  0  0
    3.9737  -10.4414    6.6553 O   0  0  0  0  0  0  0  0  0  0  0  0
    5.2266  -11.4519    5.2042 N   0  0  0  0  0  0  0  0  0  0  0  0
   -1.5931   -9.9616    3.9159 C   0  0  0  0  0  0  0  0  0  0  0  0
   -2.1951   -8.8940    4.6574 C   0  0  0  0  0  0  0  0  0  0  0  0
   -1.7308   -8.3977    5.7473 C   0  0  0  0  0  0  0  0  0  0  0  0
  2  7  1  0
  7  8  2  3
  7  9  1  0
  9 10  2  3
 10 11  1  0
  4 12  1  0
 12 13  2  0
 12 14  1  0
 11 15  2  0
 11 16  1  0
  8 17  1  0
 17 18  1  0
 18 19  1  0
  1  2  2  0
  2  3  1  0
  3  4  2  0
  4  5  1  0
  5  6  2  0
  1  6  1  0
M  END

$$$$
No_3553-/export/home/yangzhenyu/potential_scad_32_flow//YTHDC2/2024-12-06-03-22-00/
     RDKit          3D

 19 20  0  0  1  0  0  0  0  0999 V2000
    1.1787   -8.0297    3.5154 C   0  0  0  0  0  0  0  0  0  0  0  0
    1.0491   -6.8434    2.9820 C   0  0  0  0  0  0  0  0  0  0  0  0
    0.0950   -8.8404    3.2292 N   0  0  0  0  0  0  0  0  0  0  0  0
    0.7571   -6.7649    1.5728 C   0  0  0  0  0  0  0  0  0  0  0  0
   -0.1535   -7.5901    1.1767 C   0  0  0  0  0  0  0  0  0  0  0  0
   -0.0410   -8.8994    1.6454 C   0  0  2  0  0  0  0  0  0  0  0  0
   -0.3245   -9.8371    4.0301 C   0  0  0  0  0  0  0  0  0  0  0  0
   -1.5629  -10.3291    4.0324 C   0  0  0  0  0  0  0  0  0  0  0  0
    1.0523   -5.5940    0.9732 O   0  0  0  0  0  0  0  0  0  0  0  0
   -0.3556   -9.9604    1.1379 C   0  0  0  0  0  0  0  0  0  0  0  0
    0.0800  -10.9697    1.0456 C   0  0  0  0  0  0  0  0  0  0  0  0
    1.4372  -11.2443    1.8861 C   0  0  0  0  0  0  0  0  0  0  0  0
    1.7129  -12.4173    2.3735 C   0  0  0  0  0  0  0  0  0  0  0  0
    0.8428  -13.5725    2.0821 C   0  0  0  0  0  0  0  0  0  0  0  0
    1.1275  -14.8154    2.8525 C   0  0  0  0  0  0  0  0  0  0  0  0
    1.0950  -15.8819    2.4085 C   0  0  0  0  0  0  0  0  0  0  0  0
    0.5217  -16.0872    1.2251 C   0  0  0  0  0  0  0  0  0  0  0  0
    0.1818  -15.0788    0.4763 C   0  0  0  0  0  0  0  0  0  0  0  0
    0.3566  -13.7598    0.9081 C   0  0  0  0  0  0  0  0  0  0  0  0
  1  2  1  0
  1  3  1  0
  2  4  1  0
  4  5  1  0
  3  6  1  0
  6  5  1  1
  3  7  1  0
  7  8  2  0
  4  9  2  0
  6 10  1  0
 10 11  2  3
 11 12  1  0
 12 13  2  3
 13 14  1  0
 14 15  2  0
 15 16  1  0
 16 17  2  0
 17 18  1  0
 18 19  2  0
 14 19  1  0
M  END

$$$$
No_3554-/export/home/yangzhenyu/potential_scad_32_flow//YTHDC2/2024-12-06-03-22-00/
     RDKit          3D

 20 21  0  0  0  0  0  0  0  0999 V2000
    1.1787   -8.0297    3.5154 C   0  0  0  0  0  0  0  0  0  0  0  0
    1.0491   -6.8434    2.9820 C   0  0  0  0  0  0  0  0  0  0  0  0
    0.0950   -8.8404    3.2292 C   0  0  0  0  0  0  0  0  0  0  0  0
   -0.9173   -8.4596    2.5152 C   0  0  0  0  0  0  0  0  0  0  0  0
   -1.0331   -7.2162    2.0653 C   0  0  0  0  0  0  0  0  0  0  0  0
   -0.0105   -6.3168    2.3081 C   0  0  0  0  0  0  0  0  0  0  0  0
    0.1465  -10.2446    3.6981 N   0  0  0  0  0  0  0  0  0  0  0  0
    1.1832  -10.8652    3.9851 C   0  0  0  0  0  0  0  0  0  0  0  0
    1.6719  -11.7411    3.1417 C   0  0  0  0  0  0  0  0  0  0  0  0
    0.7132  -12.3900    2.3257 C   0  0  0  0  0  0  0  0  0  0  0  0
    0.9920  -13.7186    2.0254 C   0  0  0  0  0  0  0  0  0  0  0  0
    0.0502  -14.4624    1.3572 C   0  0  0  0  0  0  0  0  0  0  0  0
   -1.1122  -13.9679    1.0343 C   0  0  0  0  0  0  0  0  0  0  0  0
   -1.3686  -12.6128    1.2186 C   0  0  0  0  0  0  0  0  0  0  0  0
   -0.4963  -11.8574    1.9801 C   0  0  0  0  0  0  0  0  0  0  0  0
   -0.0966   -5.0414    1.8342 C   0  0  0  0  0  0  0  0  0  0  0  0
   -0.7487   -4.1630    2.2720 C   0  0  0  0  0  0  0  0  0  0  0  0
   -0.7308   -3.0405    2.0805 C   0  0  0  0  0  0  0  0  0  0  0  0
    0.1029   -2.5721    0.9116 C   0  0  0  0  0  0  0  0  0  0  0  0
    0.8314   -3.3916    0.2302 C   0  0  0  0  0  0  0  0  0  0  0  0
  3  7  1  0
  7  8  1  0
  8  9  1  0
  9 10  1  0
  6 16  1  0
 16 17  1  0
 17 18  2  3
 18 19  1  0
 19 20  2  0
  1  2  2  0
  2  6  1  0
  5  6  2  0
  4  5  1  0
  3  4  2  0
  1  3  1  0
 10 11  2  0
 11 12  1  0
 12 13  2  0
 13 14  1  0
 14 15  2  0
 10 15  1  0
M  END

$$$$
No_3555-/export/home/yangzhenyu/potential_scad_32_flow//YTHDC2/2024-12-06-03-22-00/
     RDKit          3D

 17 18  0  0  1  0  0  0  0  0999 V2000
    1.1787   -8.0297    3.5154 C   0  0  0  0  0  0  0  0  0  0  0  0
    1.0491   -6.8434    2.9820 C   0  0  0  0  0  0  0  0  0  0  0  0
    0.0950   -8.8404    3.2292 C   0  0  0  0  0  0  0  0  0  0  0  0
    0.0602  -10.1764    3.8231 C   0  0  0  0  0  0  0  0  0  0  0  0
    0.2248   -6.3830    2.0648 C   0  0  0  0  0  0  0  0  0  0  0  0
   -0.6745   -7.2322    1.6857 C   0  0  0  0  0  0  0  0  0  0  0  0
   -0.7374   -8.4992    2.1291 C   0  0  0  0  0  0  0  0  0  0  0  0
   -0.0634  -11.3436    3.0594 C   0  0  1  0  0  0  0  0  0  0  0  0
    1.1680  -12.2553    3.1335 C   0  0  0  0  0  0  0  0  0  0  0  0
    1.0829  -13.4805    2.5593 C   0  0  0  0  0  0  0  0  0  0  0  0
   -0.0285  -13.9314    2.0450 C   0  0  0  0  0  0  0  0  0  0  0  0
   -1.1302  -13.1818    1.9575 C   0  0  0  0  0  0  0  0  0  0  0  0
   -1.1471  -11.9271    2.5039 C   0  0  0  0  0  0  0  0  0  0  0  0
    0.4302   -5.0702    1.4673 O   0  0  0  0  0  0  0  0  0  0  0  0
    2.3010  -14.2631    2.5637 C   0  0  0  0  0  0  0  0  0  0  0  0
   -2.3999  -11.2974    2.6447 O   0  0  0  0  0  0  0  0  0  0  0  0
    0.1611   -3.9319    2.0278 C   0  0  0  0  0  0  0  0  0  0  0  0
  3  4  1  0
  8  4  1  1
  8  9  1  0
 10 11  1  0
  8 13  1  0
 12 13  1  0
  5 14  1  0
 10 15  1  0
 13 16  2  0
 14 17  1  0
  9 10  1  0
 11 12  1  0
  1  2  2  0
  2  5  1  0
  5  6  2  0
  6  7  1  0
  3  7  2  0
  1  3  1  0
M  END

$$$$
No_3556-/export/home/yangzhenyu/potential_scad_32_flow//YTHDC2/2024-12-06-03-22-00/
     RDKit          3D

 17 18  0  0  0  0  0  0  0  0999 V2000
    1.1787   -8.0297    3.5154 C   0  0  0  0  0  0  0  0  0  0  0  0
    1.1048   -9.2215    3.2892 C   0  0  0  0  0  0  0  0  0  0  0  0
    1.3627  -10.1721    4.3044 C   0  0  0  0  0  0  0  0  0  0  0  0
    1.0682  -11.5187    4.0618 C   0  0  0  0  0  0  0  0  0  0  0  0
    0.6332  -11.9655    2.9682 C   0  0  0  0  0  0  0  0  0  0  0  0
    0.4776  -11.1308    1.9203 C   0  0  0  0  0  0  0  0  0  0  0  0
    0.7470   -9.8274    2.0368 C   0  0  0  0  0  0  0  0  0  0  0  0
    1.0387   -7.0301    2.5175 O   0  0  0  0  0  0  0  0  0  0  0  0
    0.4220  -13.4291    2.8032 C   0  0  0  0  0  0  0  0  0  0  0  0
   -0.7524  -13.9320    2.4107 C   0  0  0  0  0  0  0  0  0  0  0  0
   -0.8455  -15.3465    2.3278 C   0  0  0  0  0  0  0  0  0  0  0  0
   -0.0885  -16.1314    2.6028 C   0  0  0  0  0  0  0  0  0  0  0  0
    1.2743  -15.7039    3.0798 C   0  0  0  0  0  0  0  0  0  0  0  0
    1.5375  -14.3062    3.1771 C   0  0  0  0  0  0  0  0  0  0  0  0
    2.3321  -16.5846    3.3513 C   0  0  0  0  0  0  0  0  0  0  0  0
    2.5878  -17.6137    2.5465 O   0  0  0  0  0  0  0  0  0  0  0  0
    0.1501   -8.9856    1.1858 C   0  0  0  0  0  0  0  0  0  0  0  0
  1  2  1  0
  1  8  2  0
  5  9  1  0
 13 15  1  0
 15 16  2  0
  7 17  1  0
  2  3  2  0
  3  4  1  0
  4  5  2  0
  5  6  1  0
  6  7  2  0
  2  7  1  0
  9 10  2  0
 10 11  1  0
 11 12  2  0
 12 13  1  0
 13 14  2  0
  9 14  1  0
M  END

$$$$
No_3557-/export/home/yangzhenyu/potential_scad_32_flow//YTHDC2/2024-12-06-03-22-00/
     RDKit          3D

 17 17  0  0  1  0  0  0  0  0999 V2000
    1.1787   -8.0297    3.5154 C   0  0  0  0  0  0  0  0  0  0  0  0
    1.1048   -9.2215    3.2892 C   0  0  0  0  0  0  0  0  0  0  0  0
    1.2339   -9.7611    2.0189 C   0  0  0  0  0  0  0  0  0  0  0  0
    1.3583   -9.0036    0.9764 C   0  0  0  0  0  0  0  0  0  0  0  0
    1.5996   -7.6362    1.1311 C   0  0  0  0  0  0  0  0  0  0  0  0
    1.4830   -7.0928    2.3626 C   0  0  0  0  0  0  0  0  0  0  0  0
    1.4898   -5.7274    2.6199 C   0  0  0  0  0  0  0  0  0  0  0  0
    1.1681  -11.2222    1.8390 C   0  0  0  0  0  0  0  0  0  0  0  0
    0.5014  -11.9760    2.2068 C   0  0  0  0  0  0  0  0  0  0  0  0
    0.4167  -13.3685    2.0527 C   0  0  2  0  0  0  0  0  0  0  0  0
   -0.6161  -14.0718    1.8701 C   0  0  0  0  0  0  0  0  0  0  0  0
   -1.8327  -13.5577    1.6008 C   0  0  0  0  0  0  0  0  0  0  0  0
   -2.9645  -14.4441    1.4367 C   0  0  0  0  0  0  0  0  0  0  0  0
    1.7005  -14.0233    2.4713 C   0  0  0  0  0  0  0  0  0  0  0  0
   -4.1212  -14.0175    1.8407 C   0  0  0  0  0  0  0  0  0  0  0  0
   -5.1321  -14.9549    1.8417 C   0  0  0  0  0  0  0  0  0  0  0  0
    1.6979   -5.1730    3.8644 O   0  0  0  0  0  0  0  0  0  0  0  0
  6  7  1  0
  3  8  1  0
  8  9  2  3
  9 10  1  0
 10 11  1  0
 11 12  2  3
 12 13  1  0
 10 14  1  1
 13 15  2  3
 15 16  1  0
  7 17  1  0
  1  2  2  0
  2  3  1  0
  3  4  2  0
  4  5  1  0
  5  6  2  0
  1  6  1  0
M  END

$$$$
No_3558-/export/home/yangzhenyu/potential_scad_32_flow//YTHDC2/2024-12-06-03-22-00/
     RDKit          3D

 18 20  0  0  1  0  0  0  0  0999 V2000
    1.1787   -8.0297    3.5154 C   0  0  0  0  0  0  0  0  0  0  0  0
    1.1048   -9.2215    3.2892 C   0  0  0  0  0  0  0  0  0  0  0  0
    1.3627  -10.1721    4.3044 C   0  0  0  0  0  0  0  0  0  0  0  0
    1.0682  -11.5187    4.0618 C   0  0  0  0  0  0  0  0  0  0  0  0
    0.6332  -11.9655    2.9682 C   0  0  0  0  0  0  0  0  0  0  0  0
    0.4776  -11.1308    1.9203 C   0  0  0  0  0  0  0  0  0  0  0  0
    0.7470   -9.8274    2.0368 C   0  0  0  0  0  0  0  0  0  0  0  0
    0.5536   -7.1314    2.6860 C   0  0  0  0  0  0  0  0  0  0  0  0
    0.2951   -7.6000    1.3275 C   0  0  0  0  0  0  0  0  0  0  0  0
    0.2693   -8.8631    1.0973 C   0  0  1  0  0  0  0  0  0  0  0  0
   -0.0512   -6.7125    0.4241 O   0  0  0  0  0  0  0  0  0  0  0  0
    0.4918  -13.3974    2.7285 C   0  0  0  0  0  0  0  0  0  0  0  0
   -0.5879  -13.8015    2.2394 N   0  0  0  0  0  0  0  0  0  0  0  0
    1.5400  -14.2662    3.0412 C   0  0  0  0  0  0  0  0  0  0  0  0
    1.2713  -15.6329    2.8433 C   0  0  0  0  0  0  0  0  0  0  0  0
    0.2171  -16.0919    2.3556 N   0  0  0  0  0  0  0  0  0  0  0  0
   -0.7383  -15.1511    2.0915 C   0  0  0  0  0  0  0  0  0  0  0  0
    0.0309   -9.2933   -0.1794 C   0  0  0  0  0  0  0  0  0  0  0  0
  1  2  1  0
  8  9  1  0
  7 10  1  0
  9 10  1  0
  9 11  2  0
  5 12  1  0
 10 18  1  6
  1  8  1  0
  2  3  2  0
  3  4  1  0
  4  5  2  0
  5  6  1  0
  6  7  2  0
  2  7  1  0
 12 13  2  0
 13 17  1  0
 16 17  2  0
 15 16  1  0
 14 15  2  0
 12 14  1  0
M  END

$$$$
No_3559-/export/home/yangzhenyu/potential_scad_32_flow//YTHDC2/2024-12-06-03-22-00/
     RDKit          3D

 19 19  0  0  1  0  0  0  0  0999 V2000
    1.1787   -8.0297    3.5154 C   0  0  0  0  0  0  0  0  0  0  0  0
    1.1048   -9.2215    3.2892 C   0  0  0  0  0  0  0  0  0  0  0  0
    1.2339   -9.7611    2.0189 C   0  0  0  0  0  0  0  0  0  0  0  0
    1.3583   -9.0036    0.9764 C   0  0  0  0  0  0  0  0  0  0  0  0
    1.5996   -7.6362    1.1311 C   0  0  0  0  0  0  0  0  0  0  0  0
    1.4830   -7.0928    2.3626 C   0  0  0  0  0  0  0  0  0  0  0  0
    1.1008  -11.2372    1.8542 C   0  0  0  0  0  0  0  0  0  0  0  0
    0.5178  -11.9759    2.3445 O   0  0  0  0  0  0  0  0  0  0  0  0
    2.1218  -11.7217    1.0036 N   0  0  0  0  0  0  0  0  0  0  0  0
    1.5422   -5.4646    2.6895 Cl  0  0  0  0  0  0  0  0  0  0  0  0
    1.5920   -9.4240   -0.3463 C   0  0  0  0  0  0  0  0  0  0  0  0
    2.6933   -9.2671   -0.9812 Cl  0  0  0  0  0  0  0  0  0  0  0  0
    0.4646   -9.7405   -0.9815 O   0  0  0  0  0  0  0  0  0  0  0  0
    2.0768  -13.2107    0.8582 C   0  0  0  0  0  0  0  0  0  0  0  0
    1.5695  -13.8623    1.8568 C   0  0  0  0  0  0  0  0  0  0  0  0
    0.7659  -14.8360    1.6522 C   0  0  1  0  0  0  0  0  0  0  0  0
   -0.0905  -15.0767    0.8481 C   0  0  0  0  0  0  0  0  0  0  0  0
    1.2364  -16.2765    2.2348 C   0  0  0  0  0  0  0  0  0  0  0  0
    0.5162  -17.2710    2.5274 C   0  0  0  0  0  0  0  0  0  0  0  0
  3  7  1  0
  7  8  2  0
  7  9  1  0
  6 10  1  0
  4 11  1  0
 11 12  1  0
 11 13  2  0
  9 14  1  0
 14 15  1  0
 15 16  1  0
 16 17  1  6
 16 18  1  0
 18 19  2  0
  1  2  2  0
  2  3  1  0
  3  4  2  0
  4  5  1  0
  5  6  2  0
  1  6  1  0
M  END

$$$$
No_3560-/export/home/yangzhenyu/potential_scad_32_flow//YTHDC2/2024-12-06-03-22-00/
     RDKit          3D

 18 19  0  0  1  0  0  0  0  0999 V2000
    1.1787   -8.0297    3.5154 C   0  0  0  0  0  0  0  0  0  0  0  0
    1.0491   -6.8434    2.9820 C   0  0  0  0  0  0  0  0  0  0  0  0
    0.9905   -9.0774    2.6527 C   0  0  0  0  0  0  0  0  0  0  0  0
    0.7897   -8.9519    1.3691 C   0  0  0  0  0  0  0  0  0  0  0  0
    0.7018   -7.7198    0.7892 C   0  0  0  0  0  0  0  0  0  0  0  0
    0.8918   -6.5957    1.6117 C   0  0  0  0  0  0  0  0  0  0  0  0
    1.0998  -10.4710    3.2437 C   0  0  0  0  0  0  0  0  0  0  0  0
    1.3102  -11.5554    2.5214 C   0  0  0  0  0  0  0  0  0  0  0  0
    1.3598  -12.8243    3.2502 C   0  0  0  0  0  0  0  0  0  0  0  0
    0.8660  -13.9599    2.3836 C   0  0  2  0  0  0  0  0  0  0  0  0
    1.2766  -15.2713    2.8498 Cl  0  0  0  0  0  0  0  0  0  0  0  0
    0.8582   -5.2557    1.2379 O   0  0  0  0  0  0  0  0  0  0  0  0
    1.1942  -10.5386    4.6329 O   0  0  0  0  0  0  0  0  0  0  0  0
    1.0210  -13.8053    0.9479 C   0  0  0  0  0  0  0  0  0  0  0  0
   -0.1124  -13.5653    0.3180 C   0  0  0  0  0  0  0  0  0  0  0  0
   -1.2805  -13.7403    0.7979 C   0  0  0  0  0  0  0  0  0  0  0  0
   -1.3731  -14.0409    2.2334 C   0  0  0  0  0  0  0  0  0  0  0  0
   -0.3897  -14.1148    2.9983 C   0  0  0  0  0  0  0  0  0  0  0  0
  1  2  1  0
  3  4  1  0
  2  6  1  0
  5  6  1  0
  3  7  1  0
  7  8  1  0
  8  9  1  0
  9 10  1  0
 10 11  1  1
  6 12  2  0
  7 13  2  0
 10 14  1  0
 14 15  2  0
 15 16  1  0
 16 17  2  0
 10 18  1  0
 17 18  1  0
  1  3  1  0
  4  5  1  0
M  END

$$$$
No_3561-/export/home/yangzhenyu/potential_scad_32_flow//YTHDC2/2024-12-06-03-22-00/
     RDKit          3D

 19 21  0  0  1  0  0  0  0  0999 V2000
    1.1787   -8.0297    3.5154 C   0  0  0  0  0  0  0  0  0  0  0  0
    1.0491   -6.8434    2.9820 C   0  0  0  0  0  0  0  0  0  0  0  0
    0.9905   -9.0774    2.6527 C   0  0  0  0  0  0  0  0  0  0  0  0
    0.7897   -8.9519    1.3691 C   0  0  0  0  0  0  0  0  0  0  0  0
    0.7018   -7.7198    0.7892 C   0  0  0  0  0  0  0  0  0  0  0  0
    0.8918   -6.5957    1.6117 C   0  0  0  0  0  0  0  0  0  0  0  0
    1.0711  -10.4814    3.2282 C   0  0  0  0  0  0  0  0  0  0  0  0
   -0.1055  -11.1328    3.5223 C   0  0  0  0  0  0  0  0  0  0  0  0
   -0.1824  -12.4513    3.3816 N   0  0  0  0  0  0  0  0  0  0  0  0
    0.9364  -13.1235    3.1787 C   0  0  0  0  0  0  0  0  0  0  0  0
    0.8460  -14.6065    2.9659 C   0  0  0  0  0  0  0  0  0  0  0  0
    0.9196  -15.1229    1.9805 C   0  0  1  0  0  0  0  0  0  0  0  0
    1.3851  -14.3070    0.8856 C   0  0  0  0  0  0  0  0  0  0  0  0
    1.4084  -12.8759    1.0063 C   0  0  0  0  0  0  0  0  0  0  0  0
    1.2167  -12.2860    2.1631 C   0  0  0  0  0  0  0  0  0  0  0  0
    1.8706  -11.4177    2.5291 N   0  0  0  0  0  0  0  0  0  0  0  0
    0.9296  -16.4501    1.7724 C   0  0  0  0  0  0  0  0  0  0  0  0
    0.4977  -17.2156    2.5595 C   0  0  0  0  0  0  0  0  0  0  0  0
    0.8908   -5.2713    1.1214 Cl  0  0  0  0  0  0  0  0  0  0  0  0
  3  7  1  0
 10 11  1  0
 11 12  1  0
 12 13  1  0
 13 14  1  0
 14 15  1  0
 12 17  1  1
 17 18  2  0
  6 19  1  0
  7  8  2  0
  8  9  1  0
  9 10  2  0
 10 15  1  0
 15 16  2  0
  7 16  1  0
  1  2  2  0
  2  6  1  0
  5  6  2  0
  4  5  1  0
  3  4  2  0
  1  3  1  0
M  END

$$$$
No_3562-/export/home/yangzhenyu/potential_scad_32_flow//YTHDC2/2024-12-06-03-22-00/
     RDKit          3D

 18 18  0  0  0  0  0  0  0  0999 V2000
    1.1787   -8.0297    3.5154 N   0  0  0  0  0  0  0  0  0  0  0  0
    0.8669   -7.0905    2.8589 C   0  0  0  0  0  0  0  0  0  0  0  0
    1.0447   -7.3244    1.4123 O   0  0  0  0  0  0  0  0  0  0  0  0
    0.5552   -5.7612    3.3303 C   0  0  0  0  0  0  0  0  0  0  0  0
    1.4870   -9.3768    3.0242 C   0  0  0  0  0  0  0  0  0  0  0  0
    0.6692  -10.2214    3.0040 C   0  0  0  0  0  0  0  0  0  0  0  0
   -0.5419  -10.2322    3.3780 C   0  0  0  0  0  0  0  0  0  0  0  0
   -1.3348  -10.8972    3.3432 C   0  0  0  0  0  0  0  0  0  0  0  0
   -1.2073  -12.2351    2.7858 C   0  0  0  0  0  0  0  0  0  0  0  0
    0.0741  -12.5402    2.3715 C   0  0  0  0  0  0  0  0  0  0  0  0
    1.0731  -11.5665    2.4703 C   0  0  0  0  0  0  0  0  0  0  0  0
    0.6212   -4.6263    2.4351 C   0  0  0  0  0  0  0  0  0  0  0  0
    0.1147   -3.4892    2.8940 C   0  0  0  0  0  0  0  0  0  0  0  0
    0.5536  -13.7656    1.8247 C   0  0  0  0  0  0  0  0  0  0  0  0
   -0.2023  -14.3169    0.9532 C   0  0  0  0  0  0  0  0  0  0  0  0
    0.0260  -15.6954    0.6047 C   0  0  0  0  0  0  0  0  0  0  0  0
    1.0604  -16.3407    1.0714 C   0  0  0  0  0  0  0  0  0  0  0  0
    1.7249  -15.8307    2.2374 C   0  0  0  0  0  0  0  0  0  0  0  0
  1  2  1  0
  2  3  2  0
  2  4  1  0
  1  5  1  0
  5  6  1  0
  4 12  1  0
 12 13  1  0
 10 14  1  0
 14 15  2  3
 15 16  1  0
 16 17  2  3
 17 18  1  0
  6  7  2  0
  7  8  1  0
  8  9  2  0
  9 10  1  0
 10 11  2  0
  6 11  1  0
M  END

$$$$
No_3563-/export/home/yangzhenyu/potential_scad_32_flow//YTHDC2/2024-12-06-03-22-00/
     RDKit          3D

 18 20  0  0  1  0  0  0  0  0999 V2000
    1.1787   -8.0297    3.5154 C   0  0  0  0  0  0  0  0  0  0  0  0
    1.0491   -6.8434    2.9820 N   0  0  0  0  0  0  0  0  0  0  0  0
    0.1476   -8.8697    3.1493 C   0  0  0  0  0  0  0  0  0  0  0  0
   -0.7634   -8.3679    2.4311 C   0  0  2  0  0  0  0  0  0  0  0  0
   -0.1709   -6.9105    2.2426 C   0  0  0  0  0  0  0  0  0  0  0  0
    0.1600  -10.2773    3.5999 C   0  0  0  0  0  0  0  0  0  0  0  0
   -0.9060  -10.9979    3.4307 C   0  0  0  0  0  0  0  0  0  0  0  0
   -2.0067  -10.4047    2.6639 C   0  0  0  0  0  0  0  0  0  0  0  0
   -1.8668   -9.0638    2.2281 C   0  0  0  0  0  0  0  0  0  0  0  0
   -0.7979   -5.8168    1.6023 C   0  0  0  0  0  0  0  0  0  0  0  0
   -0.2438   -4.6068    1.6796 C   0  0  0  0  0  0  0  0  0  0  0  0
   -0.8092   -3.5734    0.8542 C   0  0  0  0  0  0  0  0  0  0  0  0
   -0.6055   -3.7146   -0.5223 C   0  0  0  0  0  0  0  0  0  0  0  0
   -1.3977   -4.5462   -1.0187 C   0  0  0  0  0  0  0  0  0  0  0  0
   -1.7006   -5.8339   -0.8797 C   0  0  0  0  0  0  0  0  0  0  0  0
   -1.4385   -6.4803    0.4138 C   0  0  0  0  0  0  0  0  0  0  0  0
   -3.1217  -11.1179    2.4669 O   0  0  0  0  0  0  0  0  0  0  0  0
   -0.7922   -2.2842   -1.1113 O   0  0  0  0  0  0  0  0  0  0  0  0
  1  2  1  0
  3  4  1  0
  2  5  2  0
  4  5  1  0
  3  6  1  0
  7  8  1  0
  4  9  1  1
  8  9  1  0
  5 10  1  0
 10 11  2  0
 11 12  1  0
 12 13  1  0
 13 14  2  0
 14 15  1  0
 10 16  1  0
 15 16  2  0
  8 17  2  0
 13 18  1  0
  1  3  1  0
  6  7  1  0
M  END

$$$$
No_3564-/export/home/yangzhenyu/potential_scad_32_flow//YTHDC2/2024-12-06-03-22-00/
     RDKit          3D

 19 21  0  0  0  0  0  0  0  0999 V2000
    1.1787   -8.0297    3.5154 C   0  0  0  0  0  0  0  0  0  0  0  0
    1.1048   -9.2215    3.2892 C   0  0  0  0  0  0  0  0  0  0  0  0
    1.3627  -10.1721    4.3044 C   0  0  0  0  0  0  0  0  0  0  0  0
    1.0682  -11.5187    4.0618 C   0  0  0  0  0  0  0  0  0  0  0  0
    0.6332  -11.9655    2.9682 C   0  0  0  0  0  0  0  0  0  0  0  0
    0.4776  -11.1308    1.9203 C   0  0  0  0  0  0  0  0  0  0  0  0
    0.7470   -9.8274    2.0368 C   0  0  0  0  0  0  0  0  0  0  0  0
    1.0387   -7.0301    2.5175 C   0  0  0  0  0  0  0  0  0  0  0  0
    0.9130   -7.5288    1.2013 C   0  0  0  0  0  0  0  0  0  0  0  0
    0.7893   -8.7979    0.9542 C   0  0  0  0  0  0  0  0  0  0  0  0
    0.5241   -9.2578   -0.2817 C   0  0  0  0  0  0  0  0  0  0  0  0
   -0.1121   -8.6523   -1.0898 O   0  0  0  0  0  0  0  0  0  0  0  0
    0.5417  -10.4376   -0.6145 O   0  0  0  0  0  0  0  0  0  0  0  0
    0.5213  -13.6498    2.7373 C   0  0  0  0  0  0  0  0  0  0  0  0
    1.5888  -14.3478    3.1720 C   0  0  0  0  0  0  0  0  0  0  0  0
    1.2609  -15.7250    3.0129 C   0  0  0  0  0  0  0  0  0  0  0  0
    0.2823  -16.1809    2.3679 C   0  0  0  0  0  0  0  0  0  0  0  0
   -0.6251  -15.3470    1.8025 C   0  0  0  0  0  0  0  0  0  0  0  0
   -0.4580  -14.0115    2.0396 C   0  0  0  0  0  0  0  0  0  0  0  0
 10 11  1  0
 11 12  1  0
 11 13  2  0
  5 14  1  0
  2  3  1  0
  3  4  2  0
  4  5  1  0
  5  6  2  0
  6  7  1  0
  1  2  2  0
  2  7  1  0
  7 10  2  0
  9 10  1  0
  8  9  2  0
  1  8  1  0
 14 15  2  0
 15 16  1  0
 16 17  2  0
 17 18  1  0
 18 19  2  0
 14 19  1  0
M  END

$$$$
No_3565-/export/home/yangzhenyu/potential_scad_32_flow//YTHDC2/2024-12-06-03-22-00/
     RDKit          3D

 18 19  0  0  0  0  0  0  0  0999 V2000
    1.1787   -8.0297    3.5154 C   0  0  0  0  0  0  0  0  0  0  0  0
    1.1048   -9.2215    3.2892 C   0  0  0  0  0  0  0  0  0  0  0  0
    1.2339   -9.7611    2.0189 C   0  0  0  0  0  0  0  0  0  0  0  0
    1.3583   -9.0036    0.9764 C   0  0  0  0  0  0  0  0  0  0  0  0
    1.5996   -7.6362    1.1311 C   0  0  0  0  0  0  0  0  0  0  0  0
    1.4830   -7.0928    2.3626 C   0  0  0  0  0  0  0  0  0  0  0  0
    1.4898   -5.7274    2.6199 C   0  0  0  0  0  0  0  0  0  0  0  0
    1.1882  -11.3736    1.8424 C   0  0  0  0  0  0  0  0  0  0  0  0
    1.7911  -12.1283    2.5447 C   0  0  0  0  0  0  0  0  0  0  0  0
    1.6235  -13.4929    2.1108 C   0  0  0  0  0  0  0  0  0  0  0  0
    0.9130  -13.8662    1.0879 C   0  0  0  0  0  0  0  0  0  0  0  0
    0.2981  -12.8588    0.2798 C   0  0  0  0  0  0  0  0  0  0  0  0
    0.4407  -11.5560    0.6364 C   0  0  0  0  0  0  0  0  0  0  0  0
    1.2457   -4.8685    1.6168 C   0  0  0  0  0  0  0  0  0  0  0  0
    0.5580   -3.7692    1.8300 C   0  0  0  0  0  0  0  0  0  0  0  0
    2.2706  -14.5043    2.9500 O   0  0  0  0  0  0  0  0  0  0  0  0
    0.5269   -2.7298    1.0063 C   0  0  0  0  0  0  0  0  0  0  0  0
   -0.0809   -1.5006    1.3781 C   0  0  0  0  0  0  0  0  0  0  0  0
  6  7  1  0
  3  8  1  0
  7 14  2  3
 14 15  1  0
 10 16  1  0
 15 17  2  3
 17 18  1  0
  1  2  2  0
  2  3  1  0
  3  4  2  0
  4  5  1  0
  5  6  2  0
  1  6  1  0
  8  9  2  0
  9 10  1  0
 10 11  2  0
 11 12  1  0
 12 13  2  0
  8 13  1  0
M  END

$$$$
No_3566-/export/home/yangzhenyu/potential_scad_32_flow//YTHDC2/2024-12-06-03-22-00/
     RDKit          3D

 19 19  0  0  1  0  0  0  0  0999 V2000
    1.1787   -8.0297    3.5154 C   0  0  0  0  0  0  0  0  0  0  0  0
    1.0491   -6.8434    2.9820 C   0  0  0  0  0  0  0  0  0  0  0  0
    0.9905   -9.0774    2.6527 C   0  0  0  0  0  0  0  0  0  0  0  0
    0.7897   -8.9519    1.3691 C   0  0  0  0  0  0  0  0  0  0  0  0
    0.7018   -7.7198    0.7892 C   0  0  0  0  0  0  0  0  0  0  0  0
    0.8918   -6.5957    1.6117 C   0  0  0  0  0  0  0  0  0  0  0  0
    1.0774  -10.6059    3.3145 C   0  0  0  0  0  0  0  0  0  0  0  0
   -0.1032  -11.1934    3.4585 C   0  0  0  0  0  0  0  0  0  0  0  0
   -0.6526  -11.6596    2.5137 C   0  0  0  0  0  0  0  0  0  0  0  0
    0.0371  -12.7476    1.9228 C   0  0  2  0  0  0  0  0  0  0  0  0
    1.2831  -13.1659    2.4440 C   0  0  0  0  0  0  0  0  0  0  0  0
    1.8086  -14.3947    1.8044 C   0  0  0  0  0  0  0  0  0  0  0  0
    2.5274  -15.0817    2.5674 C   0  0  0  0  0  0  0  0  0  0  0  0
    0.8464   -5.2939    1.0964 O   0  0  0  0  0  0  0  0  0  0  0  0
   -0.4062  -13.4122    0.7991 C   0  0  0  0  0  0  0  0  0  0  0  0
   -1.5247  -12.8432    0.1140 C   0  0  0  0  0  0  0  0  0  0  0  0
   -1.4713  -11.5454   -0.4265 C   0  0  0  0  0  0  0  0  0  0  0  0
   -2.4593  -10.7852   -0.8037 O   0  0  0  0  0  0  0  0  0  0  0  0
   -0.3070  -10.8161   -0.6004 O   0  0  0  0  0  0  0  0  0  0  0  0
  3  7  1  0
  7  8  1  0
  8  9  1  0
 10  9  1  6
 10 11  1  0
 11 12  1  0
 12 13  1  0
  6 14  1  0
 10 15  1  0
 15 16  1  0
 16 17  1  0
 17 18  2  0
 17 19  1  0
  1  2  2  0
  2  6  1  0
  5  6  2  0
  4  5  1  0
  3  4  2  0
  1  3  1  0
M  END

$$$$
No_3567-/export/home/yangzhenyu/potential_scad_32_flow//YTHDC2/2024-12-06-03-22-00/
     RDKit          3D

 20 22  0  0  0  0  0  0  0  0999 V2000
    1.1787   -8.0297    3.5154 C   0  0  0  0  0  0  0  0  0  0  0  0
    1.1048   -9.2215    3.2892 C   0  0  0  0  0  0  0  0  0  0  0  0
    1.3627  -10.1721    4.3044 C   0  0  0  0  0  0  0  0  0  0  0  0
    1.0682  -11.5187    4.0618 C   0  0  0  0  0  0  0  0  0  0  0  0
    0.6332  -11.9655    2.9682 C   0  0  0  0  0  0  0  0  0  0  0  0
    0.4776  -11.1308    1.9203 C   0  0  0  0  0  0  0  0  0  0  0  0
    0.7470   -9.8274    2.0368 C   0  0  0  0  0  0  0  0  0  0  0  0
    1.0387   -7.0301    2.5175 C   0  0  0  0  0  0  0  0  0  0  0  0
    0.9130   -7.5288    1.2013 C   0  0  0  0  0  0  0  0  0  0  0  0
    0.7893   -8.7979    0.9542 C   0  0  0  0  0  0  0  0  0  0  0  0
    0.5241   -9.2578   -0.2817 C   0  0  0  0  0  0  0  0  0  0  0  0
    1.2450   -9.2169   -1.2769 O   0  0  0  0  0  0  0  0  0  0  0  0
   -0.8706   -9.3448   -0.6392 O   0  0  0  0  0  0  0  0  0  0  0  0
    0.5164  -13.3827    2.7090 C   0  0  0  0  0  0  0  0  0  0  0  0
    1.4534  -14.3432    3.2591 C   0  0  0  0  0  0  0  0  0  0  0  0
    1.2127  -15.6816    3.0183 C   0  0  0  0  0  0  0  0  0  0  0  0
    0.3717  -16.1290    2.2085 C   0  0  0  0  0  0  0  0  0  0  0  0
   -0.4791  -15.2846    1.5922 C   0  0  0  0  0  0  0  0  0  0  0  0
   -0.3334  -13.9230    1.8279 C   0  0  0  0  0  0  0  0  0  0  0  0
    1.3285   -5.6085    2.6984 C   0  0  0  0  0  0  0  0  0  0  0  0
 10 11  1  0
 11 12  2  0
 11 13  1  0
  5 14  1  0
  8 20  1  0
  2  3  1  0
  3  4  2  0
  4  5  1  0
  5  6  2  0
  6  7  1  0
  1  2  2  0
  2  7  1  0
  7 10  2  0
  9 10  1  0
  8  9  2  0
  1  8  1  0
 14 15  2  0
 15 16  1  0
 16 17  2  0
 17 18  1  0
 18 19  2  0
 14 19  1  0
M  END

$$$$
No_3568-/export/home/yangzhenyu/potential_scad_32_flow//YTHDC2/2024-12-06-03-22-00/
     RDKit          3D

 20 20  0  0  0  0  0  0  0  0999 V2000
    1.1787   -8.0297    3.5154 C   0  0  0  0  0  0  0  0  0  0  0  0
    1.0491   -6.8434    2.9820 O   0  0  0  0  0  0  0  0  0  0  0  0
    1.9898   -8.9833    2.9120 C   0  0  0  0  0  0  0  0  0  0  0  0
    1.8213   -9.1557    1.6419 C   0  0  0  0  0  0  0  0  0  0  0  0
    0.8800   -9.3513    1.1078 C   0  0  0  0  0  0  0  0  0  0  0  0
   -0.1264  -10.1466    1.5148 C   0  0  0  0  0  0  0  0  0  0  0  0
    0.2361  -11.4055    1.9487 C   0  0  0  0  0  0  0  0  0  0  0  0
    1.0231  -12.2853    1.2097 C   0  0  0  0  0  0  0  0  0  0  0  0
    1.5756  -13.4894    1.7136 C   0  0  0  0  0  0  0  0  0  0  0  0
    1.1936  -13.8324    2.9659 C   0  0  0  0  0  0  0  0  0  0  0  0
    0.3205  -13.1996    3.6625 C   0  0  0  0  0  0  0  0  0  0  0  0
   -0.0781  -11.9939    3.2502 C   0  0  0  0  0  0  0  0  0  0  0  0
    0.5322   -8.6891   -0.1899 C   0  0  0  0  0  0  0  0  0  0  0  0
   -0.6430   -8.8048   -0.7922 O   0  0  0  0  0  0  0  0  0  0  0  0
    1.4688   -8.1990   -0.9731 O   0  0  0  0  0  0  0  0  0  0  0  0
    1.6723  -15.2034    3.3554 O   0  0  0  0  0  0  0  0  0  0  0  0
   -0.0834   -8.3774    4.0277 O   0  0  0  0  0  0  0  0  0  0  0  0
    0.8375  -16.2972    3.2712 C   0  0  0  0  0  0  0  0  0  0  0  0
    1.5247  -17.4343    3.5881 C   0  0  0  0  0  0  0  0  0  0  0  0
    2.8707  -17.5241    3.0627 C   0  0  0  0  0  0  0  0  0  0  0  0
  1  2  1  0
  1  3  1  0
  3  4  1  0
  4  5  1  0
  5  6  1  0
  6  7  1  0
  5 13  1  0
 13 14  2  0
 13 15  1  0
 10 16  1  0
  1 17  2  0
 16 18  1  0
 18 19  1  0
 19 20  1  0
  7  8  2  0
  8  9  1  0
  9 10  2  0
 10 11  1  0
 11 12  2  0
  7 12  1  0
M  END

$$$$
No_3569-/export/home/yangzhenyu/potential_scad_32_flow//YTHDC2/2024-12-06-03-22-00/
     RDKit          3D

 18 19  0  0  0  0  0  0  0  0999 V2000
    1.1787   -8.0297    3.5154 C   0  0  0  0  0  0  0  0  0  0  0  0
    1.0491   -6.8434    2.9820 C   0  0  0  0  0  0  0  0  0  0  0  0
    0.0950   -8.8404    3.2292 C   0  0  0  0  0  0  0  0  0  0  0  0
    0.0602  -10.1764    3.8231 C   0  0  0  0  0  0  0  0  0  0  0  0
    0.2248   -6.3830    2.0648 C   0  0  0  0  0  0  0  0  0  0  0  0
   -0.6745   -7.2322    1.6857 C   0  0  0  0  0  0  0  0  0  0  0  0
   -0.7374   -8.4992    2.1291 C   0  0  0  0  0  0  0  0  0  0  0  0
    1.0517  -10.8728    4.0967 C   0  0  0  0  0  0  0  0  0  0  0  0
    0.8765  -12.2762    4.4635 C   0  0  0  0  0  0  0  0  0  0  0  0
    0.6277  -12.9704    3.4124 C   0  0  0  0  0  0  0  0  0  0  0  0
   -0.4286  -12.5621    2.6485 C   0  0  0  0  0  0  0  0  0  0  0  0
   -0.7232  -11.0847    2.7698 C   0  0  0  0  0  0  0  0  0  0  0  0
    0.7490  -14.4138    3.5014 C   0  0  0  0  0  0  0  0  0  0  0  0
    1.9715  -14.8188    2.8262 C   0  0  0  0  0  0  0  0  0  0  0  0
    0.4263   -4.8726    1.3956 Cl  0  0  0  0  0  0  0  0  0  0  0  0
    2.2549  -16.1529    2.6337 C   0  0  0  0  0  0  0  0  0  0  0  0
    1.5549  -17.0931    2.9211 C   0  0  0  0  0  0  0  0  0  0  0  0
    0.3904  -16.8375    3.6700 C   0  0  0  0  0  0  0  0  0  0  0  0
  3  4  1  0
 10 13  1  0
 13 14  1  0
  5 15  1  0
 14 16  2  3
 16 17  1  0
 17 18  2  0
  4  8  2  0
  8  9  1  0
  9 10  2  0
 10 11  1  0
 11 12  2  0
  4 12  1  0
  1  2  2  0
  2  5  1  0
  5  6  2  0
  6  7  1  0
  3  7  2  0
  1  3  1  0
M  END

$$$$
No_3570-/export/home/yangzhenyu/potential_scad_32_flow//YTHDC2/2024-12-06-03-22-00/
     RDKit          3D

 18 19  0  0  0  0  0  0  0  0999 V2000
    1.1787   -8.0297    3.5154 C   0  0  0  0  0  0  0  0  0  0  0  0
    1.1048   -9.2215    3.2892 C   0  0  0  0  0  0  0  0  0  0  0  0
    1.2339   -9.7611    2.0189 C   0  0  0  0  0  0  0  0  0  0  0  0
    1.3583   -9.0036    0.9764 C   0  0  0  0  0  0  0  0  0  0  0  0
    1.5996   -7.6362    1.1311 C   0  0  0  0  0  0  0  0  0  0  0  0
    1.4830   -7.0928    2.3626 C   0  0  0  0  0  0  0  0  0  0  0  0
    1.5395   -5.7300    2.6182 C   0  0  0  0  0  0  0  0  0  0  0  0
    1.1775  -11.2233    1.8407 C   0  0  0  0  0  0  0  0  0  0  0  0
    0.5085  -11.9762    2.1989 C   0  0  0  0  0  0  0  0  0  0  0  0
   -0.6094  -11.4837    3.2079 C   0  0  0  0  0  0  0  0  0  0  0  0
    0.4345  -13.3944    1.9228 C   0  0  0  0  0  0  0  0  0  0  0  0
    1.5586  -14.1738    2.3978 C   0  0  0  0  0  0  0  0  0  0  0  0
    2.1399  -14.9890    1.6014 N   0  0  0  0  0  0  0  0  0  0  0  0
    2.0053  -15.9398    1.3053 C   0  0  0  0  0  0  0  0  0  0  0  0
    0.9046  -16.5572    2.0877 C   0  0  0  0  0  0  0  0  0  0  0  0
    0.2856  -15.8548    3.0434 C   0  0  0  0  0  0  0  0  0  0  0  0
    0.5370  -14.6299    3.1737 C   0  0  0  0  0  0  0  0  0  0  0  0
    1.3330   -4.7934    1.6687 C   0  0  0  0  0  0  0  0  0  0  0  0
  6  7  1  0
  3  8  1  0
  8  9  2  3
  9 10  1  0
  9 11  1  0
 11 12  1  0
  7 18  2  0
 12 13  2  0
 13 14  1  0
 14 15  2  0
 15 16  1  0
 16 17  2  0
 12 17  1  0
  1  2  2  0
  2  3  1  0
  3  4  2  0
  4  5  1  0
  5  6  2  0
  1  6  1  0
M  END

$$$$
No_3571-/export/home/yangzhenyu/potential_scad_32_flow//YTHDC2/2024-12-06-03-22-00/
     RDKit          3D

 18 18  0  0  0  0  0  0  0  0999 V2000
    1.1787   -8.0297    3.5154 C   0  0  0  0  0  0  0  0  0  0  0  0
    1.1048   -9.2215    3.2892 C   0  0  0  0  0  0  0  0  0  0  0  0
    1.3627  -10.1721    4.3044 C   0  0  0  0  0  0  0  0  0  0  0  0
    1.7354  -11.4730    3.9023 C   0  0  0  0  0  0  0  0  0  0  0  0
    1.8080  -11.8127    2.7216 C   0  0  0  0  0  0  0  0  0  0  0  0
    1.5854  -11.0021    1.7249 C   0  0  0  0  0  0  0  0  0  0  0  0
    1.3573   -9.7389    1.9287 C   0  0  0  0  0  0  0  0  0  0  0  0
    1.2865   -8.8078    0.9161 C   0  0  0  0  0  0  0  0  0  0  0  0
    0.9210   -7.5140    1.1674 O   0  0  0  0  0  0  0  0  0  0  0  0
    1.5321   -9.1645   -0.3432 N   0  0  0  0  0  0  0  0  0  0  0  0
    2.1331  -13.3851    2.2873 C   0  0  0  0  0  0  0  0  0  0  0  0
    1.9802  -14.3044    3.1195 O   0  0  0  0  0  0  0  0  0  0  0  0
    2.4824  -13.5900    1.0804 O   0  0  0  0  0  0  0  0  0  0  0  0
    2.4691   -7.3285    3.6558 O   0  0  0  0  0  0  0  0  0  0  0  0
    0.1561   -7.2758    3.7414 O   0  0  0  0  0  0  0  0  0  0  0  0
    1.9073   -8.5093   -1.3776 O   0  0  0  0  0  0  0  0  0  0  0  0
    1.4811  -15.5544    2.6725 C   0  0  0  0  0  0  0  0  0  0  0  0
    2.3158  -16.4278    2.6865 C   0  0  0  0  0  0  0  0  0  0  0  0
  1  2  1  0
  7  8  1  0
  8  9  2  0
  8 10  1  0
  5 11  1  0
 11 12  1  0
 11 13  2  0
  1 14  1  0
  1 15  2  0
 10 16  2  0
 12 17  1  0
 17 18  1  0
  2  3  2  0
  3  4  1  0
  4  5  2  0
  5  6  1  0
  6  7  2  0
  2  7  1  0
M  END

$$$$
No_3572-/export/home/yangzhenyu/potential_scad_32_flow//YTHDC2/2024-12-06-03-22-00/
     RDKit          3D

 20 22  0  0  1  0  0  0  0  0999 V2000
    1.1787   -8.0297    3.5154 C   0  0  0  0  0  0  0  0  0  0  0  0
    1.1048   -9.2215    3.2892 C   0  0  0  0  0  0  0  0  0  0  0  0
    1.2339   -9.7611    2.0189 C   0  0  1  0  0  0  0  0  0  0  0  0
    1.1954  -11.2312    1.8661 C   0  0  0  0  0  0  0  0  0  0  0  0
    1.5546  -12.1691    2.7931 C   0  0  0  0  0  0  0  0  0  0  0  0
    0.9527   -7.0669    2.3918 C   0  0  2  0  0  0  0  0  0  0  0  0
    1.0618   -7.6392    1.0692 C   0  0  0  0  0  0  0  0  0  0  0  0
    1.2060   -8.9530    0.8578 C   0  0  0  0  0  0  0  0  0  0  0  0
    1.5159  -13.5011    2.3738 C   0  0  0  0  0  0  0  0  0  0  0  0
    1.1409  -13.8990    1.1908 C   0  0  0  0  0  0  0  0  0  0  0  0
    0.9249  -13.0546    0.2183 C   0  0  0  0  0  0  0  0  0  0  0  0
    0.9227  -11.6707    0.5316 C   0  0  0  0  0  0  0  0  0  0  0  0
    1.0078   -5.6071    2.4628 C   0  0  0  0  0  0  0  0  0  0  0  0
    1.2033   -9.3963   -0.3819 O   0  0  0  0  0  0  0  0  0  0  0  0
    1.7687   -5.1228    3.4359 C   0  0  0  0  0  0  0  0  0  0  0  0
    1.5228   -3.6513    3.4969 N   0  0  0  0  0  0  0  0  0  0  0  0
    0.4634   -4.8096    1.5521 N   0  0  0  0  0  0  0  0  0  0  0  0
    0.4062   -3.5761    1.6393 C   0  0  0  0  0  0  0  0  0  0  0  0
    0.9227   -2.9272    2.7309 C   0  0  0  0  0  0  0  0  0  0  0  0
    1.9395  -14.5190    3.6395 P   0  0  0  0  0  0  0  0  0  0  0  0
  1  2  1  0
  3  4  1  6
  6  7  1  0
  3  8  1  0
  7  8  1  0
  6 13  1  6
  8 14  2  0
  9 20  1  0
  2  3  1  0
  1  6  1  0
 13 15  2  0
 15 16  1  0
 16 19  2  0
 18 19  1  0
 17 18  2  0
 13 17  1  0
  4  5  2  0
  5  9  1  0
  9 10  2  0
 10 11  1  0
 11 12  2  0
  4 12  1  0
M  END

$$$$
No_3573-/export/home/yangzhenyu/potential_scad_32_flow//YTHDC2/2024-12-06-03-22-00/
     RDKit          3D

 18 18  0  0  1  0  0  0  0  0999 V2000
    1.1787   -8.0297    3.5154 C   0  0  0  0  0  0  0  0  0  0  0  0
    1.0491   -6.8434    2.9820 N   0  0  0  0  0  0  0  0  0  0  0  0
    1.0164   -9.0814    2.6596 C   0  0  0  0  0  0  0  0  0  0  0  0
    0.8420   -8.8183    1.4191 C   0  0  0  0  0  0  0  0  0  0  0  0
    0.8257   -7.4377    1.2233 C   0  0  0  0  0  0  0  0  0  0  0  0
    0.9947   -6.4434    1.9274 C   0  0  0  0  0  0  0  0  0  0  0  0
    0.9888   -5.1011    1.4900 C   0  0  0  0  0  0  0  0  0  0  0  0
    1.1310  -10.6585    3.2396 C   0  0  2  0  0  0  0  0  0  0  0  0
    2.0621  -10.9945    3.8983 C   0  0  0  0  0  0  0  0  0  0  0  0
    0.8990  -11.5752    2.1207 C   0  0  0  0  0  0  0  0  0  0  0  0
    0.6636  -12.8460    2.7092 C   0  0  0  0  0  0  0  0  0  0  0  0
    0.6175  -13.9180    1.7852 C   0  0  0  0  0  0  0  0  0  0  0  0
    1.5052  -14.9848    1.8970 C   0  0  0  0  0  0  0  0  0  0  0  0
    1.4556  -15.8667    2.4038 C   0  0  0  0  0  0  0  0  0  0  0  0
    0.5614  -15.9691    3.5951 O   0  0  0  0  0  0  0  0  0  0  0  0
    2.1556  -17.0538    2.3607 O   0  0  0  0  0  0  0  0  0  0  0  0
    0.0419   -4.6662    0.7641 O   0  0  0  0  0  0  0  0  0  0  0  0
    1.7885   -4.2214    2.0627 O   0  0  0  0  0  0  0  0  0  0  0  0
  6  7  1  0
  3  8  1  0
  8  9  1  6
  8 10  1  0
 10 11  1  0
 11 12  1  0
 12 13  1  0
 13 14  1  0
 14 15  1  0
 14 16  2  0
  7 17  2  0
  7 18  1  0
  1  2  2  0
  2  6  1  0
  5  6  2  0
  4  5  1  0
  3  4  2  0
  1  3  1  0
M  END

$$$$
No_3574-/export/home/yangzhenyu/potential_scad_32_flow//YTHDC2/2024-12-06-03-22-00/
     RDKit          3D

 18 19  0  0  1  0  0  0  0  0999 V2000
    1.1787   -8.0297    3.5154 C   0  0  0  0  0  0  0  0  0  0  0  0
    1.1048   -9.2215    3.2892 C   0  0  0  0  0  0  0  0  0  0  0  0
    1.3627  -10.1721    4.3044 C   0  0  0  0  0  0  0  0  0  0  0  0
    1.0682  -11.5187    4.0618 C   0  0  0  0  0  0  0  0  0  0  0  0
    0.6332  -11.9655    2.9682 C   0  0  0  0  0  0  0  0  0  0  0  0
    0.4776  -11.1308    1.9203 C   0  0  0  0  0  0  0  0  0  0  0  0
    0.7470   -9.8274    2.0368 C   0  0  0  0  0  0  0  0  0  0  0  0
    1.0387   -7.0301    2.5175 C   0  0  2  0  0  0  0  0  0  0  0  0
    0.9130   -7.5288    1.2013 C   0  0  0  0  0  0  0  0  0  0  0  0
    0.7893   -8.7979    0.9542 C   0  0  2  0  0  0  0  0  0  0  0  0
    0.5241   -9.2578   -0.2817 C   0  0  0  0  0  0  0  0  0  0  0  0
   -0.1121   -8.6523   -1.0898 F   0  0  0  0  0  0  0  0  0  0  0  0
    1.0186  -10.0772   -0.7512 F   0  0  0  0  0  0  0  0  0  0  0  0
    0.5251  -13.3888    2.7397 O   0  0  0  0  0  0  0  0  0  0  0  0
   -0.3845  -13.9033    2.1086 C   0  0  0  0  0  0  0  0  0  0  0  0
    1.2855   -5.6113    2.7257 C   0  0  0  0  0  0  0  0  0  0  0  0
    0.8190   -6.6774    0.3118 O   0  0  0  0  0  0  0  0  0  0  0  0
    0.5191   -4.8376    3.2018 O   0  0  0  0  0  0  0  0  0  0  0  0
  1  2  1  0
  8  9  1  0
  7 10  1  0
  9 10  1  0
 10 11  1  1
 11 12  1  0
 11 13  1  0
  5 14  1  0
 14 15  1  0
  8 16  1  6
  9 17  2  0
 16 18  2  0
  1  8  1  0
  2  3  2  0
  3  4  1  0
  4  5  2  0
  5  6  1  0
  6  7  2  0
  2  7  1  0
M  END

$$$$
No_3575-/export/home/yangzhenyu/potential_scad_32_flow//YTHDC2/2024-12-06-03-22-00/
     RDKit          3D

 19 20  0  0  1  0  0  0  0  0999 V2000
    1.1787   -8.0297    3.5154 N   0  0  0  0  0  0  0  0  0  0  0  0
    1.0818   -9.0751    3.2053 C   0  0  0  0  0  0  0  0  0  0  0  0
    0.7576   -9.3725    1.9159 C   0  0  0  0  0  0  0  0  0  0  0  0
    0.8823   -8.4917    1.0547 C   0  0  2  0  0  0  0  0  0  0  0  0
    0.9679   -8.9061   -0.3794 C   0  0  0  0  0  0  0  0  0  0  0  0
    1.2776   -7.1993    2.1927 C   0  0  1  0  0  0  0  0  0  0  0  0
    2.1442   -8.7663   -0.9174 O   0  0  0  0  0  0  0  0  0  0  0  0
    0.0121   -8.9181   -1.0108 O   0  0  0  0  0  0  0  0  0  0  0  0
    1.3286   -6.0231    1.8212 C   0  0  0  0  0  0  0  0  0  0  0  0
    1.0683  -10.1125    4.3809 C   0  0  0  0  0  0  0  0  0  0  0  0
   -0.1355  -10.9829    4.4639 C   0  0  1  0  0  0  0  0  0  0  0  0
   -1.3305  -10.3335    4.2671 C   0  0  0  0  0  0  0  0  0  0  0  0
   -2.3891  -10.8967    3.6733 C   0  0  0  0  0  0  0  0  0  0  0  0
   -2.1838  -12.1633    3.1814 C   0  0  0  0  0  0  0  0  0  0  0  0
   -0.9659  -12.8532    3.2880 C   0  0  0  0  0  0  0  0  0  0  0  0
    0.1199  -12.2284    3.8686 C   0  0  0  0  0  0  0  0  0  0  0  0
    1.2937  -12.7671    4.0498 O   0  0  0  0  0  0  0  0  0  0  0  0
    1.0508   -5.4995    0.6687 C   0  0  0  0  0  0  0  0  0  0  0  0
    1.8792   -5.1694    2.9358 C   0  0  0  0  0  0  0  0  0  0  0  0
  1  2  1  0
  2  3  2  0
  3  4  1  0
  4  5  1  6
  1  6  1  0
  4  6  1  0
  5  7  1  0
  5  8  2  0
  6  9  1  1
  2 10  1  0
 11 10  1  6
 11 12  1  0
 13 14  1  0
 11 16  1  0
 15 16  1  0
 16 17  2  0
  9 18  2  0
  9 19  1  0
 12 13  1  0
 14 15  1  0
M  END

$$$$
No_3576-/export/home/yangzhenyu/potential_scad_32_flow//YTHDC2/2024-12-06-03-22-00/
     RDKit          3D

 18 18  0  0  0  0  0  0  0  0999 V2000
    1.1787   -8.0297    3.5154 C   0  0  0  0  0  0  0  0  0  0  0  0
    1.1048   -9.2215    3.2892 C   0  0  0  0  0  0  0  0  0  0  0  0
    1.2339   -9.7611    2.0189 C   0  0  0  0  0  0  0  0  0  0  0  0
    1.3583   -9.0036    0.9764 C   0  0  0  0  0  0  0  0  0  0  0  0
    1.5996   -7.6362    1.1311 C   0  0  0  0  0  0  0  0  0  0  0  0
    1.4830   -7.0928    2.3626 C   0  0  0  0  0  0  0  0  0  0  0  0
    1.5395   -5.7300    2.6182 C   0  0  0  0  0  0  0  0  0  0  0  0
    1.1775  -11.2233    1.8407 C   0  0  0  0  0  0  0  0  0  0  0  0
    0.7252  -11.5870    0.5412 O   0  0  0  0  0  0  0  0  0  0  0  0
    2.0095  -12.0297    2.4291 N   0  0  0  0  0  0  0  0  0  0  0  0
    1.9179  -13.3987    2.2402 C   0  0  0  0  0  0  0  0  0  0  0  0
    0.8734  -13.9780    2.6307 C   0  0  0  0  0  0  0  0  0  0  0  0
    0.8609  -15.5278    2.7248 O   0  0  0  0  0  0  0  0  0  0  0  0
   -0.1019  -16.1092    3.1880 C   0  0  0  0  0  0  0  0  0  0  0  0
    1.6500   -5.1760    3.8786 O   0  0  0  0  0  0  0  0  0  0  0  0
    1.0412   -4.8468    1.6976 O   0  0  0  0  0  0  0  0  0  0  0  0
   -1.3637  -15.6895    2.7133 C   0  0  0  0  0  0  0  0  0  0  0  0
   -1.5109  -14.3640    2.3678 C   0  0  0  0  0  0  0  0  0  0  0  0
  6  7  1  0
  3  8  1  0
  8  9  2  0
  8 10  1  0
 10 11  1  0
 11 12  1  0
 12 13  1  0
 13 14  1  0
  7 15  1  0
  7 16  2  0
 14 17  2  3
 17 18  1  0
  1  2  2  0
  2  3  1  0
  3  4  2  0
  4  5  1  0
  5  6  2  0
  1  6  1  0
M  END

$$$$
No_3577-/export/home/yangzhenyu/potential_scad_32_flow//YTHDC2/2024-12-06-03-22-00/
     RDKit          3D

 19 20  0  0  0  0  0  0  0  0999 V2000
    1.1787   -8.0297    3.5154 C   0  0  0  0  0  0  0  0  0  0  0  0
    1.0491   -6.8434    2.9820 C   0  0  0  0  0  0  0  0  0  0  0  0
    1.9985   -8.9840    2.8958 C   0  0  0  0  0  0  0  0  0  0  0  0
    1.9135  -10.3404    3.6266 N   0  0  0  0  0  0  0  0  0  0  0  0
    0.6179   -6.7382    1.6818 C   0  0  0  0  0  0  0  0  0  0  0  0
    1.1755   -7.4461    0.7986 C   0  0  0  0  0  0  0  0  0  0  0  0
    0.7298   -7.7225   -0.3479 C   0  0  0  0  0  0  0  0  0  0  0  0
   -0.6275   -7.3340   -0.6034 C   0  0  0  0  0  0  0  0  0  0  0  0
   -1.3119   -6.6459    0.3352 C   0  0  0  0  0  0  0  0  0  0  0  0
   -0.7143   -6.3566    1.5515 C   0  0  0  0  0  0  0  0  0  0  0  0
    1.7039  -10.3401    4.8200 C   0  0  0  0  0  0  0  0  0  0  0  0
   -1.3497   -7.6997   -1.8582 C   0  0  0  0  0  0  0  0  0  0  0  0
   -1.6732   -6.7763   -2.5924 C   0  0  0  0  0  0  0  0  0  0  0  0
   -2.2929   -7.2324   -3.8295 C   0  0  0  0  0  0  0  0  0  0  0  0
   -2.1996   -8.5882   -4.1496 C   0  0  0  0  0  0  0  0  0  0  0  0
   -1.6769   -9.5288   -3.4243 C   0  0  0  0  0  0  0  0  0  0  0  0
   -1.1848   -9.1180   -2.1710 C   0  0  0  0  0  0  0  0  0  0  0  0
    2.2422  -11.3702    2.6770 C   0  0  0  0  0  0  0  0  0  0  0  0
    1.9865  -12.6260    3.1130 C   0  0  0  0  0  0  0  0  0  0  0  0
  1  2  1  0
  1  3  1  0
  3  4  1  0
  2  5  1  0
  4 11  1  0
  8 12  1  0
  4 18  1  0
 18 19  1  0
 12 13  2  0
 13 14  1  0
 14 15  2  0
 15 16  1  0
 16 17  2  0
 12 17  1  0
  5  6  2  0
  6  7  1  0
  7  8  2  0
  8  9  1  0
  9 10  2  0
  5 10  1  0
M  END

$$$$
No_3578-/export/home/yangzhenyu/potential_scad_32_flow//YTHDC2/2024-12-06-03-22-00/
     RDKit          3D

 20 22  0  0  0  0  0  0  0  0999 V2000
    1.1787   -8.0297    3.5154 C   0  0  0  0  0  0  0  0  0  0  0  0
    1.1048   -9.2215    3.2892 C   0  0  0  0  0  0  0  0  0  0  0  0
    1.3627  -10.1721    4.3044 C   0  0  0  0  0  0  0  0  0  0  0  0
    1.0682  -11.5187    4.0618 C   0  0  0  0  0  0  0  0  0  0  0  0
    0.6332  -11.9655    2.9682 C   0  0  0  0  0  0  0  0  0  0  0  0
    0.4776  -11.1308    1.9203 C   0  0  0  0  0  0  0  0  0  0  0  0
    0.7470   -9.8274    2.0368 C   0  0  0  0  0  0  0  0  0  0  0  0
    1.0387   -7.0301    2.5175 C   0  0  0  0  0  0  0  0  0  0  0  0
    0.9130   -7.5288    1.2013 C   0  0  0  0  0  0  0  0  0  0  0  0
    0.7893   -8.7979    0.9542 C   0  0  0  0  0  0  0  0  0  0  0  0
    0.3998  -13.3695    2.7114 C   0  0  0  0  0  0  0  0  0  0  0  0
   -0.8069  -13.8090    2.3159 N   0  0  0  0  0  0  0  0  0  0  0  0
    1.4627  -14.2407    2.2561 C   0  0  0  0  0  0  0  0  0  0  0  0
    1.2839  -15.5715    2.2105 C   0  0  0  0  0  0  0  0  0  0  0  0
    0.0922  -16.0362    2.2528 C   0  0  0  0  0  0  0  0  0  0  0  0
   -0.9852  -15.1360    2.4436 C   0  0  0  0  0  0  0  0  0  0  0  0
    0.4489   -9.2986   -0.3496 C   0  0  0  0  0  0  0  0  0  0  0  0
   -0.8299   -9.6733   -0.6480 O   0  0  0  0  0  0  0  0  0  0  0  0
    1.3049   -9.2380   -1.2691 O   0  0  0  0  0  0  0  0  0  0  0  0
    2.3969  -16.4364    2.1151 C   0  0  0  0  0  0  0  0  0  0  0  0
  5 11  1  0
 10 17  1  0
 17 18  2  0
 17 19  1  0
 14 20  1  0
  2  3  1  0
  3  4  2  0
  4  5  1  0
  5  6  2  0
  6  7  1  0
  1  2  2  0
  2  7  1  0
  7 10  2  0
  9 10  1  0
  8  9  2  0
  1  8  1  0
 11 12  2  0
 12 16  1  0
 15 16  2  0
 14 15  1  0
 13 14  2  0
 11 13  1  0
M  END

$$$$
No_3579-/export/home/yangzhenyu/potential_scad_32_flow//YTHDC2/2024-12-06-03-22-00/
     RDKit          3D

 19 20  0  0  1  0  0  0  0  0999 V2000
    1.1787   -8.0297    3.5154 C   0  0  0  0  0  0  0  0  0  0  0  0
    1.1048   -9.2215    3.2892 C   0  0  0  0  0  0  0  0  0  0  0  0
    1.2339   -9.7611    2.0189 C   0  0  0  0  0  0  0  0  0  0  0  0
    1.3583   -9.0036    0.9764 C   0  0  0  0  0  0  0  0  0  0  0  0
    1.5996   -7.6362    1.1311 C   0  0  0  0  0  0  0  0  0  0  0  0
    1.4830   -7.0928    2.3626 C   0  0  0  0  0  0  0  0  0  0  0  0
    1.5395   -5.7300    2.6182 C   0  0  0  0  0  0  0  0  0  0  0  0
    1.1969  -11.3760    1.8433 C   0  0  2  0  0  0  0  0  0  0  0  0
    1.7910  -12.1287    2.5491 C   0  0  0  0  0  0  0  0  0  0  0  0
    1.6251  -13.4926    2.1118 C   0  0  2  0  0  0  0  0  0  0  0  0
    0.9177  -13.8665    1.0867 C   0  0  1  0  0  0  0  0  0  0  0  0
    0.3045  -12.8579    0.2778 C   0  0  0  0  0  0  0  0  0  0  0  0
    0.4464  -11.5554    0.6353 C   0  0  0  0  0  0  0  0  0  0  0  0
    2.2715  -14.5026    2.9519 Cl  0  0  0  0  0  0  0  0  0  0  0  0
    0.6140   -4.8897    2.7773 Cl  0  0  0  0  0  0  0  0  0  0  0  0
   -0.1746  -10.6878   -0.1421 O   0  0  0  0  0  0  0  0  0  0  0  0
    0.8960  -10.0794    4.4440 O   0  0  0  0  0  0  0  0  0  0  0  0
    0.7543  -15.3484    0.5856 Cl  0  0  0  0  0  0  0  0  0  0  0  0
    1.8082   -6.9404    0.0653 O   0  0  0  0  0  0  0  0  0  0  0  0
  6  7  1  0
  8  3  1  6
  8  9  1  0
 10 11  1  0
  8 13  1  0
 12 13  1  0
 10 14  1  1
  7 15  1  0
 13 16  2  0
  2 17  1  0
 11 18  1  6
  5 19  1  0
  9 10  1  0
 11 12  1  0
  1  2  2  0
  2  3  1  0
  3  4  2  0
  4  5  1  0
  5  6  2  0
  1  6  1  0
M  END

$$$$
No_3580-/export/home/yangzhenyu/potential_scad_32_flow//YTHDC2/2024-12-06-03-22-00/
     RDKit          3D

 10 10  0  0  0  0  0  0  0  0999 V2000
    1.1787   -8.0297    3.5154 O   0  0  0  0  0  0  0  0  0  0  0  0
    0.6747   -7.4019    2.7838 C   0  0  0  0  0  0  0  0  0  0  0  0
    0.5570   -6.0797    2.8560 C   0  0  0  0  0  0  0  0  0  0  0  0
   -0.2158   -5.3007    2.0284 C   0  0  0  0  0  0  0  0  0  0  0  0
   -0.8260   -5.9169    1.0290 C   0  0  0  0  0  0  0  0  0  0  0  0
   -0.6925   -7.2407    0.8216 C   0  0  0  0  0  0  0  0  0  0  0  0
    0.1645   -8.0156    1.6621 C   0  0  0  0  0  0  0  0  0  0  0  0
    0.4049   -9.3434    1.4877 C   0  0  0  0  0  0  0  0  0  0  0  0
    1.4848   -9.6364    0.5257 N   0  0  0  0  0  0  0  0  0  0  0  0
    1.8575  -10.8688    0.3408 O   0  0  0  0  0  0  0  0  0  0  0  0
  1  2  1  0
  7  8  1  0
  8  9  1  0
  9 10  2  0
  2  3  2  0
  3  4  1  0
  4  5  2  0
  5  6  1  0
  6  7  2  0
  2  7  1  0
M  END

$$$$
No_3581-/export/home/yangzhenyu/potential_scad_32_flow//YTHDC2/2024-12-06-03-22-00/
     RDKit          3D

 20 22  0  0  0  0  0  0  0  0999 V2000
    1.1787   -8.0297    3.5154 C   0  0  0  0  0  0  0  0  0  0  0  0
    1.0491   -6.8434    2.9820 C   0  0  0  0  0  0  0  0  0  0  0  0
    0.0950   -8.8404    3.2292 C   0  0  0  0  0  0  0  0  0  0  0  0
   -0.9173   -8.4596    2.5152 C   0  0  0  0  0  0  0  0  0  0  0  0
   -1.0331   -7.2162    2.0653 C   0  0  0  0  0  0  0  0  0  0  0  0
   -0.0105   -6.3168    2.3081 C   0  0  0  0  0  0  0  0  0  0  0  0
    0.1465  -10.2446    3.6981 C   0  0  0  0  0  0  0  0  0  0  0  0
   -1.0337  -10.8619    3.9439 C   0  0  0  0  0  0  0  0  0  0  0  0
   -2.1702  -10.4673    3.2991 C   0  0  0  0  0  0  0  0  0  0  0  0
   -2.1358   -9.2084    2.5791 C   0  0  0  0  0  0  0  0  0  0  0  0
   -3.3468  -11.1306    3.2649 C   0  0  0  0  0  0  0  0  0  0  0  0
   -0.0443   -4.9791    1.8066 C   0  0  0  0  0  0  0  0  0  0  0  0
   -0.8331   -4.1136    2.2002 O   0  0  0  0  0  0  0  0  0  0  0  0
   -3.2887  -12.4925    2.9780 C   0  0  0  0  0  0  0  0  0  0  0  0
   -4.3214  -13.3866    3.5500 C   0  0  0  0  0  0  0  0  0  0  0  0
   -5.4097  -12.8457    4.1307 C   0  0  0  0  0  0  0  0  0  0  0  0
   -5.4841  -11.4621    4.4616 C   0  0  0  0  0  0  0  0  0  0  0  0
   -4.4259  -10.6652    4.0367 C   0  0  0  0  0  0  0  0  0  0  0  0
    0.6722   -4.6091    0.7990 O   0  0  0  0  0  0  0  0  0  0  0  0
   -6.4112  -13.6860    4.7206 Cl  0  0  0  0  0  0  0  0  0  0  0  0
  9 11  1  0
  6 12  1  0
 12 13  1  0
 12 19  2  0
 16 20  1  0
  4 10  2  0
  9 10  1  0
  8  9  2  0
  7  8  1  0
  3  7  2  0
  1  2  2  0
  2  6  1  0
  5  6  2  0
  4  5  1  0
  3  4  1  0
  1  3  1  0
 11 14  2  0
 14 15  1  0
 15 16  2  0
 16 17  1  0
 17 18  2  0
 11 18  1  0
M  END

$$$$
No_3582-/export/home/yangzhenyu/potential_scad_32_flow//YTHDC2/2024-12-06-03-22-00/
     RDKit          3D

 18 19  0  0  1  0  0  0  0  0999 V2000
    1.1787   -8.0297    3.5154 C   0  0  0  0  0  0  0  0  0  0  0  0
    1.0491   -6.8434    2.9820 C   0  0  0  0  0  0  0  0  0  0  0  0
    0.0950   -8.8404    3.2292 C   0  0  0  0  0  0  0  0  0  0  0  0
   -0.9173   -8.4596    2.5152 C   0  0  0  0  0  0  0  0  0  0  0  0
   -1.0331   -7.2162    2.0653 C   0  0  0  0  0  0  0  0  0  0  0  0
   -0.0105   -6.3168    2.3081 C   0  0  0  0  0  0  0  0  0  0  0  0
    0.1150   -4.9910    1.8495 C   0  0  0  0  0  0  0  0  0  0  0  0
    0.9121   -4.1017    2.4010 O   0  0  0  0  0  0  0  0  0  0  0  0
   -0.4792   -4.5325    0.7806 O   0  0  0  0  0  0  0  0  0  0  0  0
    0.1711  -10.2801    3.6571 C   0  0  2  0  0  0  0  0  0  0  0  0
    1.2212  -10.9339    4.1063 C   0  0  0  0  0  0  0  0  0  0  0  0
    1.1573  -12.3206    4.0161 C   0  0  0  0  0  0  0  0  0  0  0  0
   -0.0322  -12.7027    3.3297 C   0  0  0  0  0  0  0  0  0  0  0  0
   -0.6196  -11.2954    3.1353 C   0  0  0  0  0  0  0  0  0  0  0  0
   -0.4795  -13.7687    3.0317 C   0  0  0  0  0  0  0  0  0  0  0  0
   -0.3725  -14.3407    2.0366 C   0  0  0  0  0  0  0  0  0  0  0  0
   -0.7109  -15.8729    1.9681 C   0  0  0  0  0  0  0  0  0  0  0  0
   -1.3896  -16.2796    3.0455 C   0  0  0  0  0  0  0  0  0  0  0  0
  6  7  1  0
  7  8  2  0
  7  9  1  0
 10  3  1  6
 10 11  1  0
 11 12  2  0
 12 13  1  0
 10 14  1  0
 13 14  1  0
 13 15  1  0
 15 16  2  3
 16 17  1  0
 17 18  2  0
  1  2  2  0
  2  6  1  0
  5  6  2  0
  4  5  1  0
  3  4  2  0
  1  3  1  0
M  END

$$$$
No_3583-/export/home/yangzhenyu/potential_scad_32_flow//YTHDC2/2024-12-06-03-22-00/
     RDKit          3D

 19 19  0  0  0  0  0  0  0  0999 V2000
    1.1787   -8.0297    3.5154 C   0  0  0  0  0  0  0  0  0  0  0  0
    1.1048   -9.2215    3.2892 C   0  0  0  0  0  0  0  0  0  0  0  0
    1.2339   -9.7611    2.0189 C   0  0  0  0  0  0  0  0  0  0  0  0
    1.3583   -9.0036    0.9764 C   0  0  0  0  0  0  0  0  0  0  0  0
    1.5996   -7.6362    1.1311 C   0  0  0  0  0  0  0  0  0  0  0  0
    1.4830   -7.0928    2.3626 C   0  0  0  0  0  0  0  0  0  0  0  0
    1.1008  -11.2372    1.8542 C   0  0  0  0  0  0  0  0  0  0  0  0
    0.5178  -11.9759    2.3445 C   0  0  0  0  0  0  0  0  0  0  0  0
    0.4575  -13.3705    2.1281 C   0  0  0  0  0  0  0  0  0  0  0  0
    1.1632  -14.1013    2.0451 C   0  0  0  0  0  0  0  0  0  0  0  0
    2.4646  -13.5566    1.4445 C   0  0  0  0  0  0  0  0  0  0  0  0
    1.2467  -15.5603    2.2927 C   0  0  0  0  0  0  0  0  0  0  0  0
    0.3854  -15.9779    3.1650 C   0  0  0  0  0  0  0  0  0  0  0  0
    0.2498  -17.4398    3.3485 C   0  0  0  0  0  0  0  0  0  0  0  0
    1.0784  -18.2903    2.7448 Cl  0  0  0  0  0  0  0  0  0  0  0  0
   -0.6950  -17.8836    4.4387 C   0  0  0  0  0  0  0  0  0  0  0  0
    1.5679   -5.4732    2.6761 O   0  0  0  0  0  0  0  0  0  0  0  0
   -0.2987  -18.0206    5.7037 C   0  0  0  0  0  0  0  0  0  0  0  0
    1.5266   -9.3780   -0.3644 C   0  0  0  0  0  0  0  0  0  0  0  0
  3  7  1  0
  7  8  2  3
  8  9  1  0
  9 10  2  3
 10 11  1  0
 10 12  1  0
 12 13  1  0
 13 14  2  3
 14 15  1  0
 14 16  1  0
  6 17  1  0
 16 18  1  0
  4 19  1  0
  1  2  2  0
  2  3  1  0
  3  4  2  0
  4  5  1  0
  5  6  2  0
  1  6  1  0
M  END

$$$$
No_3584-/export/home/yangzhenyu/potential_scad_32_flow//YTHDC2/2024-12-06-03-22-00/
     RDKit          3D

 19 20  0  0  0  0  0  0  0  0999 V2000
    1.1787   -8.0297    3.5154 O   0  0  0  0  0  0  0  0  0  0  0  0
    0.9969   -8.9689    3.0048 C   0  0  0  0  0  0  0  0  0  0  0  0
    1.3055  -10.1056    3.6616 C   0  0  0  0  0  0  0  0  0  0  0  0
    1.1249  -11.3503    3.0941 C   0  0  0  0  0  0  0  0  0  0  0  0
    0.6932  -11.4484    1.8586 C   0  0  0  0  0  0  0  0  0  0  0  0
    0.5498  -10.3736    1.0579 C   0  0  0  0  0  0  0  0  0  0  0  0
    0.7643   -9.1185    1.6383 C   0  0  0  0  0  0  0  0  0  0  0  0
    0.5937   -7.8467    1.0482 C   0  0  0  0  0  0  0  0  0  0  0  0
    1.5294   -7.0230    1.0749 C   0  0  0  0  0  0  0  0  0  0  0  0
    1.1940  -12.6467    3.8288 C   0  0  0  0  0  0  0  0  0  0  0  0
    1.4406  -13.7390    2.9740 C   0  0  0  0  0  0  0  0  0  0  0  0
    0.4619  -14.8711    3.2120 C   0  0  0  0  0  0  0  0  0  0  0  0
    1.0739  -16.1733    2.6196 C   0  0  0  0  0  0  0  0  0  0  0  0
    2.1216  -16.2793    1.9246 C   0  0  0  0  0  0  0  0  0  0  0  0
    3.1076  -15.1766    1.9695 C   0  0  0  0  0  0  0  0  0  0  0  0
    2.7573  -14.0169    2.4121 C   0  0  0  0  0  0  0  0  0  0  0  0
    1.0502   -5.6105    1.3612 C   0  0  0  0  0  0  0  0  0  0  0  0
   -0.2054   -5.1134    0.9373 C   0  0  0  0  0  0  0  0  0  0  0  0
   -0.4448   -3.7479    1.2491 C   0  0  0  0  0  0  0  0  0  0  0  0
  1  2  1  0
  7  8  1  0
  8  9  1  0
  4 10  1  0
 10 11  1  0
  9 17  1  0
 17 18  1  0
 18 19  2  0
 11 12  2  0
 12 13  1  0
 13 14  2  0
 14 15  1  0
 15 16  2  0
 11 16  1  0
  2  3  2  0
  3  4  1  0
  4  5  2  0
  5  6  1  0
  6  7  2  0
  2  7  1  0
M  END

$$$$
No_3585-/export/home/yangzhenyu/potential_scad_32_flow//YTHDC2/2024-12-06-03-22-00/
     RDKit          3D

 17 18  0  0  0  0  0  0  0  0999 V2000
    1.1787   -8.0297    3.5154 C   0  0  0  0  0  0  0  0  0  0  0  0
    1.1048   -9.2215    3.2892 C   0  0  0  0  0  0  0  0  0  0  0  0
    1.2339   -9.7611    2.0189 C   0  0  0  0  0  0  0  0  0  0  0  0
    1.3583   -9.0036    0.9764 C   0  0  0  0  0  0  0  0  0  0  0  0
    1.5996   -7.6362    1.1311 C   0  0  0  0  0  0  0  0  0  0  0  0
    1.4830   -7.0928    2.3626 C   0  0  0  0  0  0  0  0  0  0  0  0
    1.1008  -11.2372    1.8542 C   0  0  0  0  0  0  0  0  0  0  0  0
    0.5178  -11.9759    2.3445 C   0  0  0  0  0  0  0  0  0  0  0  0
    0.4575  -13.3705    2.1281 C   0  0  0  0  0  0  0  0  0  0  0  0
    1.1632  -14.1013    2.0451 C   0  0  0  0  0  0  0  0  0  0  0  0
    2.4646  -13.5566    1.4445 C   0  0  0  0  0  0  0  0  0  0  0  0
    1.0647  -15.5680    1.9364 C   0  0  0  0  0  0  0  0  0  0  0  0
    2.0614  -16.3120    2.5663 C   0  0  0  0  0  0  0  0  0  0  0  0
    1.9460  -17.5436    2.9283 C   0  0  0  0  0  0  0  0  0  0  0  0
    0.7433  -18.1223    2.8775 C   0  0  0  0  0  0  0  0  0  0  0  0
   -0.3092  -17.4824    2.4016 C   0  0  0  0  0  0  0  0  0  0  0  0
   -0.1631  -16.1668    2.0355 C   0  0  0  0  0  0  0  0  0  0  0  0
  3  7  1  0
  7  8  2  3
  8  9  1  0
  9 10  2  3
 10 11  1  0
 10 12  1  0
 12 13  2  0
 13 14  1  0
 14 15  2  0
 15 16  1  0
 16 17  2  0
 12 17  1  0
  1  2  2  0
  2  3  1  0
  3  4  2  0
  4  5  1  0
  5  6  2  0
  1  6  1  0
M  END

$$$$
No_3586-/export/home/yangzhenyu/potential_scad_32_flow//YTHDC2/2024-12-06-03-22-00/
     RDKit          3D

 18 18  0  0  0  0  0  0  0  0999 V2000
    1.1787   -8.0297    3.5154 C   0  0  0  0  0  0  0  0  0  0  0  0
    1.0491   -6.8434    2.9820 C   0  0  0  0  0  0  0  0  0  0  0  0
    0.9905   -9.0774    2.6527 C   0  0  0  0  0  0  0  0  0  0  0  0
    0.7897   -8.9519    1.3691 C   0  0  0  0  0  0  0  0  0  0  0  0
    0.7018   -7.7198    0.7892 C   0  0  0  0  0  0  0  0  0  0  0  0
    0.8918   -6.5957    1.6117 C   0  0  0  0  0  0  0  0  0  0  0  0
    1.0774  -10.6059    3.3145 C   0  0  0  0  0  0  0  0  0  0  0  0
    1.2215  -11.6205    2.4178 C   0  0  0  0  0  0  0  0  0  0  0  0
    1.3024  -12.9626    3.0237 C   0  0  0  0  0  0  0  0  0  0  0  0
    1.1230  -14.0798    2.1777 C   0  0  0  0  0  0  0  0  0  0  0  0
    1.7222  -15.2678    2.3788 C   0  0  0  0  0  0  0  0  0  0  0  0
    1.1165  -16.3244    2.8604 C   0  0  0  0  0  0  0  0  0  0  0  0
   -0.1037  -16.0342    3.6555 C   0  0  0  0  0  0  0  0  0  0  0  0
    0.8194   -5.0987    1.0774 O   0  0  0  0  0  0  0  0  0  0  0  0
    1.4815  -17.5870    2.7070 C   0  0  0  0  0  0  0  0  0  0  0  0
    0.8377  -18.6343    2.9629 C   0  0  0  0  0  0  0  0  0  0  0  0
    1.3432  -19.9754    2.7083 C   0  0  0  0  0  0  0  0  0  0  0  0
    3.0763  -15.2024    2.1333 O   0  0  0  0  0  0  0  0  0  0  0  0
  3  7  1  0
  7  8  2  3
  8  9  1  0
  9 10  1  0
 10 11  1  0
 11 12  1  0
 12 13  1  0
  6 14  1  0
 12 15  1  0
 15 16  2  3
 16 17  1  0
 11 18  2  0
  1  2  2  0
  2  6  1  0
  5  6  2  0
  4  5  1  0
  3  4  2  0
  1  3  1  0
M  END

$$$$
No_3587-/export/home/yangzhenyu/potential_scad_32_flow//YTHDC2/2024-12-06-03-22-00/
     RDKit          3D

 20 21  0  0  0  0  0  0  0  0999 V2000
    1.1787   -8.0297    3.5154 C   0  0  0  0  0  0  0  0  0  0  0  0
    1.0491   -6.8434    2.9820 C   0  0  0  0  0  0  0  0  0  0  0  0
    1.9985   -8.9840    2.8958 C   0  0  0  0  0  0  0  0  0  0  0  0
    1.7297   -9.2108    1.6335 C   0  0  0  0  0  0  0  0  0  0  0  0
    2.3837  -10.5083    1.0902 C   0  0  0  0  0  0  0  0  0  0  0  0
    1.2756   -8.2697    0.7856 C   0  0  0  0  0  0  0  0  0  0  0  0
    0.7556   -7.0536    1.4566 C   0  0  0  0  0  0  0  0  0  0  0  0
    2.4177  -10.7050   -0.0927 O   0  0  0  0  0  0  0  0  0  0  0  0
    2.7969  -11.4766    1.8945 F   0  0  0  0  0  0  0  0  0  0  0  0
    0.2241   -6.1207    0.7601 C   0  0  0  0  0  0  0  0  0  0  0  0
    0.3147   -4.7630    1.0414 C   0  0  0  0  0  0  0  0  0  0  0  0
   -0.4368   -3.7855    0.4393 C   0  0  0  0  0  0  0  0  0  0  0  0
   -1.4443   -3.9519   -0.3970 C   0  0  0  0  0  0  0  0  0  0  0  0
   -1.6937   -5.3416   -0.7095 C   0  0  0  0  0  0  0  0  0  0  0  0
   -0.9900   -6.3317   -0.1125 C   0  0  0  0  0  0  0  0  0  0  0  0
   -2.1190   -3.0368   -1.0843 Cl  0  0  0  0  0  0  0  0  0  0  0  0
   -2.6611   -5.7574   -1.6142 O   0  0  0  0  0  0  0  0  0  0  0  0
   -2.2333   -6.1600   -2.8992 C   0  0  0  0  0  0  0  0  0  0  0  0
   -3.1657   -6.8922   -3.4776 C   0  0  0  0  0  0  0  0  0  0  0  0
   -2.9942   -7.2991   -4.6755 C   0  0  0  0  0  0  0  0  0  0  0  0
  4  5  1  0
  5  8  2  0
  5  9  1  0
  7 10  1  0
 13 16  1  0
 14 17  1  0
 17 18  1  0
 18 19  1  0
 19 20  2  0
 10 11  2  0
 11 12  1  0
 12 13  2  0
 13 14  1  0
 14 15  2  0
 10 15  1  0
  1  2  2  0
  2  7  1  0
  6  7  2  0
  4  6  1  0
  3  4  2  0
  1  3  1  0
M  END

$$$$
No_3588-/export/home/yangzhenyu/potential_scad_32_flow//YTHDC2/2024-12-06-03-22-00/
     RDKit          3D

 18 19  0  0  0  0  0  0  0  0999 V2000
    1.1787   -8.0297    3.5154 C   0  0  0  0  0  0  0  0  0  0  0  0
    1.1048   -9.2215    3.2892 C   0  0  0  0  0  0  0  0  0  0  0  0
    1.2339   -9.7611    2.0189 C   0  0  0  0  0  0  0  0  0  0  0  0
    1.3583   -9.0036    0.9764 C   0  0  0  0  0  0  0  0  0  0  0  0
    1.5996   -7.6362    1.1311 C   0  0  0  0  0  0  0  0  0  0  0  0
    1.4830   -7.0928    2.3626 C   0  0  0  0  0  0  0  0  0  0  0  0
    1.5395   -5.7300    2.6182 C   0  0  0  0  0  0  0  0  0  0  0  0
    1.1775  -11.2233    1.8407 C   0  0  0  0  0  0  0  0  0  0  0  0
    1.9057  -12.1147    2.3397 C   0  0  0  0  0  0  0  0  0  0  0  0
    1.6867  -13.4551    2.0621 C   0  0  0  0  0  0  0  0  0  0  0  0
    0.7025  -13.8511    1.3021 C   0  0  0  0  0  0  0  0  0  0  0  0
   -0.1111  -12.9140    0.6527 C   0  0  0  0  0  0  0  0  0  0  0  0
    0.1535  -11.5434    0.9240 C   0  0  0  0  0  0  0  0  0  0  0  0
    1.2825   -4.8055    1.6933 C   0  0  0  0  0  0  0  0  0  0  0  0
    1.2263   -3.3720    1.9415 O   0  0  0  0  0  0  0  0  0  0  0  0
    2.5139  -14.4301    2.7628 Cl  0  0  0  0  0  0  0  0  0  0  0  0
   -0.6937  -10.6657    0.3295 C   0  0  0  0  0  0  0  0  0  0  0  0
   -0.6989  -10.3359   -0.9581 O   0  0  0  0  0  0  0  0  0  0  0  0
  6  7  1  0
  3  8  1  0
  7 14  2  3
 14 15  1  0
 10 16  1  0
 13 17  1  0
 17 18  2  0
  1  2  2  0
  2  3  1  0
  3  4  2  0
  4  5  1  0
  5  6  2  0
  1  6  1  0
  8  9  2  0
  9 10  1  0
 10 11  2  0
 11 12  1  0
 12 13  2  0
  8 13  1  0
M  END

$$$$
No_3589-/export/home/yangzhenyu/potential_scad_32_flow//YTHDC2/2024-12-06-03-22-00/
     RDKit          3D

 18 18  0  0  0  0  0  0  0  0999 V2000
    1.1787   -8.0297    3.5154 N   0  0  0  0  0  0  0  0  0  0  0  0
    0.8669   -7.0905    2.8589 C   0  0  0  0  0  0  0  0  0  0  0  0
    1.0447   -7.3244    1.4123 C   0  0  0  0  0  0  0  0  0  0  0  0
    1.3746   -8.4389    1.0864 C   0  0  0  0  0  0  0  0  0  0  0  0
    1.8493   -9.4093    1.8124 C   0  0  0  0  0  0  0  0  0  0  0  0
    1.7421   -9.2119    3.1541 C   0  0  0  0  0  0  0  0  0  0  0  0
    2.0608  -10.3132    4.0586 N   0  0  0  0  0  0  0  0  0  0  0  0
    1.7502   -8.6763   -0.3755 C   0  0  0  0  0  0  0  0  0  0  0  0
    2.6585   -9.4105   -0.8650 O   0  0  0  0  0  0  0  0  0  0  0  0
    0.8743   -8.3283   -1.2922 N   0  0  0  0  0  0  0  0  0  0  0  0
    0.5099   -5.8811    3.3720 C   0  0  0  0  0  0  0  0  0  0  0  0
    0.6545   -4.6801    2.6268 C   0  0  0  0  0  0  0  0  0  0  0  0
    0.1638   -3.4210    3.2335 C   0  0  0  0  0  0  0  0  0  0  0  0
    1.1813   -2.5807    3.6260 C   0  0  0  0  0  0  0  0  0  0  0  0
    0.6178   -1.6119    4.4792 C   0  0  0  0  0  0  0  0  0  0  0  0
    0.1679   -2.0075    5.7483 C   0  0  0  0  0  0  0  0  0  0  0  0
   -0.4832   -8.0977   -1.1165 C   0  0  0  0  0  0  0  0  0  0  0  0
   -1.2800   -9.2995   -0.9495 C   0  0  0  0  0  0  0  0  0  0  0  0
  4  8  1  0
  8  9  2  0
  8 10  1  0
  2 11  1  0
 11 12  2  3
 12 13  1  0
 13 14  1  0
 14 15  1  0
 15 16  1  0
 10 17  1  0
 17 18  1  0
  6  7  1  0
  1  2  2  0
  2  3  1  0
  3  4  2  0
  4  5  1  0
  5  6  2  0
  1  6  1  0
M  END

$$$$
No_3590-/export/home/yangzhenyu/potential_scad_32_flow//YTHDC2/2024-12-06-03-22-00/
     RDKit          3D

 18 19  0  0  0  0  0  0  0  0999 V2000
    1.1787   -8.0297    3.5154 C   0  0  0  0  0  0  0  0  0  0  0  0
    1.0491   -6.8434    2.9820 C   0  0  0  0  0  0  0  0  0  0  0  0
    0.0950   -8.8404    3.2292 C   0  0  0  0  0  0  0  0  0  0  0  0
   -0.9173   -8.4596    2.5152 C   0  0  0  0  0  0  0  0  0  0  0  0
   -1.0331   -7.2162    2.0653 C   0  0  0  0  0  0  0  0  0  0  0  0
   -0.0105   -6.3168    2.3081 C   0  0  0  0  0  0  0  0  0  0  0  0
    0.1465  -10.2446    3.6981 C   0  0  0  0  0  0  0  0  0  0  0  0
    1.2433  -10.8239    4.0166 C   0  0  0  0  0  0  0  0  0  0  0  0
    1.0790  -12.2885    4.3779 C   0  0  0  0  0  0  0  0  0  0  0  0
    0.0275  -12.8546    3.8829 C   0  0  0  0  0  0  0  0  0  0  0  0
   -0.9912  -12.3424    3.4171 C   0  0  0  0  0  0  0  0  0  0  0  0
   -1.0024  -10.9675    3.2748 C   0  0  0  0  0  0  0  0  0  0  0  0
   -0.1252   -5.0186    1.8241 Cl  0  0  0  0  0  0  0  0  0  0  0  0
   -2.2287   -6.7189    1.4878 O   0  0  0  0  0  0  0  0  0  0  0  0
   -2.3063   -7.0128    0.0375 C   0  0  0  0  0  0  0  0  0  0  0  0
   -2.5780   -6.0590   -0.6785 C   0  0  0  0  0  0  0  0  0  0  0  0
   -1.9963   -5.9148   -1.8518 C   0  0  0  0  0  0  0  0  0  0  0  0
   -1.8407   -7.0578   -2.6312 C   0  0  0  0  0  0  0  0  0  0  0  0
  3  7  1  0
  6 13  1  0
  5 14  1  0
 14 15  1  0
 15 16  1  0
 16 17  2  3
 17 18  1  0
  1  2  2  0
  2  6  1  0
  5  6  2  0
  4  5  1  0
  3  4  2  0
  1  3  1  0
  7  8  2  0
  8  9  1  0
  9 10  2  0
 10 11  1  0
 11 12  2  0
  7 12  1  0
M  END

$$$$
No_3591-/export/home/yangzhenyu/potential_scad_32_flow//YTHDC2/2024-12-06-03-22-00/
     RDKit          3D

 18 19  0  0  1  0  0  0  0  0999 V2000
    1.1787   -8.0297    3.5154 C   0  0  0  0  0  0  0  0  0  0  0  0
    1.0491   -6.8434    2.9820 C   0  0  0  0  0  0  0  0  0  0  0  0
    0.0950   -8.8404    3.2292 C   0  0  0  0  0  0  0  0  0  0  0  0
   -0.9173   -8.4596    2.5152 C   0  0  0  0  0  0  0  0  0  0  0  0
   -1.0331   -7.2162    2.0653 C   0  0  0  0  0  0  0  0  0  0  0  0
   -0.0105   -6.3168    2.3081 C   0  0  0  0  0  0  0  0  0  0  0  0
    0.0485   -4.9783    1.8782 C   0  0  0  0  0  0  0  0  0  0  0  0
   -0.4744   -4.1559    2.2381 C   0  0  0  0  0  0  0  0  0  0  0  0
   -0.3956   -2.6830    1.7790 C   0  0  0  0  0  0  0  0  0  0  0  0
    0.1602  -10.2743    3.6766 S   0  0  0  0  0  0  0  0  0  0  0  0
    0.2649  -11.3073    2.4796 C   0  0  1  0  0  0  0  0  0  0  0  0
    0.8258  -10.9629    1.5204 C   0  0  0  0  0  0  0  0  0  0  0  0
    0.2566  -10.9033    0.3707 C   0  0  0  0  0  0  0  0  0  0  0  0
    0.6238  -10.0136   -0.7541 C   0  0  0  0  0  0  0  0  0  0  0  0
    1.8156   -9.2683   -0.5014 C   0  0  0  0  0  0  0  0  0  0  0  0
    2.5791   -9.3664    0.6550 C   0  0  0  0  0  0  0  0  0  0  0  0
    2.1110  -10.1957    1.6395 C   0  0  0  0  0  0  0  0  0  0  0  0
    0.1067  -12.6419    2.7488 C   0  0  0  0  0  0  0  0  0  0  0  0
  6  7  1  0
  7  8  2  3
  8  9  1  0
  3 10  1  0
 10 11  1  0
 11 12  1  0
 11 18  1  1
 12 13  2  0
 13 14  1  0
 14 15  2  0
 15 16  1  0
 16 17  2  0
 12 17  1  0
  1  2  2  0
  2  6  1  0
  5  6  2  0
  4  5  1  0
  3  4  2  0
  1  3  1  0
M  END

$$$$
No_3592-/export/home/yangzhenyu/potential_scad_32_flow//YTHDC2/2024-12-06-03-22-00/
     RDKit          3D

 17 19  0  0  0  0  0  0  0  0999 V2000
    1.1787   -8.0297    3.5154 C   0  0  0  0  0  0  0  0  0  0  0  0
    1.1048   -9.2215    3.2892 C   0  0  0  0  0  0  0  0  0  0  0  0
    1.2339   -9.7611    2.0189 C   0  0  0  0  0  0  0  0  0  0  0  0
    1.3583   -9.0036    0.9764 C   0  0  0  0  0  0  0  0  0  0  0  0
    1.5996   -7.6362    1.1311 C   0  0  0  0  0  0  0  0  0  0  0  0
    1.4830   -7.0928    2.3626 C   0  0  0  0  0  0  0  0  0  0  0  0
    1.1171  -11.3311    1.8661 C   0  0  0  0  0  0  0  0  0  0  0  0
    1.9975  -12.1095    2.2478 C   0  0  0  0  0  0  0  0  0  0  0  0
    1.7697  -13.4418    1.9079 C   0  0  0  0  0  0  0  0  0  0  0  0
    0.8824  -13.8564    1.1154 C   0  0  0  0  0  0  0  0  0  0  0  0
    0.5626  -15.0695    0.5870 C   0  0  0  0  0  0  0  0  0  0  0  0
    0.0606  -12.6380    0.6461 C   0  0  0  0  0  0  0  0  0  0  0  0
    0.1573  -11.5684    0.9290 N   0  0  0  0  0  0  0  0  0  0  0  0
   -0.9545  -13.0569   -0.3147 C   0  0  0  0  0  0  0  0  0  0  0  0
   -0.2600  -15.1759   -0.4161 C   0  0  0  0  0  0  0  0  0  0  0  0
   -1.0719  -14.1684   -0.8701 C   0  0  0  0  0  0  0  0  0  0  0  0
    1.5357   -5.6373    2.6379 Cl  0  0  0  0  0  0  0  0  0  0  0  0
  3  7  1  0
  6 17  1  0
 10 11  1  0
 11 15  2  0
 15 16  1  0
 14 16  2  0
 12 14  1  0
  1  2  2  0
  2  3  1  0
  3  4  2  0
  4  5  1  0
  5  6  2  0
  1  6  1  0
  7  8  2  0
  8  9  1  0
  9 10  2  0
 10 12  1  0
 12 13  2  0
  7 13  1  0
M  END

$$$$
No_3593-/export/home/yangzhenyu/potential_scad_32_flow//YTHDC2/2024-12-06-03-22-00/
     RDKit          3D

 19 20  0  0  0  0  0  0  0  0999 V2000
    1.1787   -8.0297    3.5154 C   0  0  0  0  0  0  0  0  0  0  0  0
    1.1048   -9.2215    3.2892 C   0  0  0  0  0  0  0  0  0  0  0  0
    1.3627  -10.1721    4.3044 C   0  0  0  0  0  0  0  0  0  0  0  0
    1.0682  -11.5187    4.0618 C   0  0  0  0  0  0  0  0  0  0  0  0
    0.6332  -11.9655    2.9682 C   0  0  0  0  0  0  0  0  0  0  0  0
    0.4776  -11.1308    1.9203 C   0  0  0  0  0  0  0  0  0  0  0  0
    0.7470   -9.8274    2.0368 C   0  0  0  0  0  0  0  0  0  0  0  0
    1.8805   -7.1616    3.5538 N   0  0  0  0  0  0  0  0  0  0  0  0
    0.3734  -13.4254    2.7840 C   0  0  0  0  0  0  0  0  0  0  0  0
   -0.7886  -13.9066    2.3923 N   0  0  0  0  0  0  0  0  0  0  0  0
    1.4233  -14.3502    3.1134 C   0  0  0  0  0  0  0  0  0  0  0  0
    1.1435  -15.6734    3.0413 C   0  0  0  0  0  0  0  0  0  0  0  0
   -0.0198  -16.1330    2.6247 C   0  0  0  0  0  0  0  0  0  0  0  0
   -0.9812  -15.1567    2.3207 C   0  0  0  0  0  0  0  0  0  0  0  0
   -0.2523   -7.5334    3.6414 N   0  0  0  0  0  0  0  0  0  0  0  0
    0.5474   -8.9282    0.9944 C   0  0  0  0  0  0  0  0  0  0  0  0
    0.9517   -8.7626    0.0374 C   0  0  0  0  0  0  0  0  0  0  0  0
    2.4515   -9.3560   -0.1533 C   0  0  0  0  0  0  0  0  0  0  0  0
    2.8728   -7.3088    3.4366 H   0  0  0  0  0  0  0  0  0  0  0  0
  1  2  1  0
  1  8  2  0
  5  9  1  0
  1 15  1  0
  7 16  1  0
 16 17  2  3
 17 18  1  0
  2  3  2  0
  3  4  1  0
  4  5  2  0
  5  6  1  0
  6  7  2  0
  2  7  1  0
  9 10  2  0
 10 14  1  0
 13 14  2  0
 12 13  1  0
 11 12  2  0
  9 11  1  0
  8 19  1  0
M  END

$$$$
No_3594-/export/home/yangzhenyu/potential_scad_32_flow//YTHDC2/2024-12-06-03-22-00/
     RDKit          3D

 20 21  0  0  0  0  0  0  0  0999 V2000
    1.1787   -8.0297    3.5154 C   0  0  0  0  0  0  0  0  0  0  0  0
    1.0491   -6.8434    2.9820 C   0  0  0  0  0  0  0  0  0  0  0  0
    0.0950   -8.8404    3.2292 C   0  0  0  0  0  0  0  0  0  0  0  0
   -0.9173   -8.4596    2.5152 C   0  0  0  0  0  0  0  0  0  0  0  0
   -1.0331   -7.2162    2.0653 C   0  0  0  0  0  0  0  0  0  0  0  0
   -0.0105   -6.3168    2.3081 C   0  0  0  0  0  0  0  0  0  0  0  0
    0.0485   -4.9783    1.8782 C   0  0  0  0  0  0  0  0  0  0  0  0
   -0.4744   -4.1559    2.2381 C   0  0  0  0  0  0  0  0  0  0  0  0
   -0.3956   -2.6830    1.7790 C   0  0  0  0  0  0  0  0  0  0  0  0
    0.1602  -10.2743    3.6766 C   0  0  0  0  0  0  0  0  0  0  0  0
    1.2416  -10.8255    4.0807 C   0  0  0  0  0  0  0  0  0  0  0  0
    1.1200  -12.2414    4.4243 C   0  0  0  0  0  0  0  0  0  0  0  0
    0.6251  -12.9291    3.7551 C   0  0  0  0  0  0  0  0  0  0  0  0
   -0.4550  -12.5054    2.9786 C   0  0  0  0  0  0  0  0  0  0  0  0
   -0.7170  -11.1369    2.9652 C   0  0  0  0  0  0  0  0  0  0  0  0
   -0.7490   -1.6987    2.1636 C   0  0  0  0  0  0  0  0  0  0  0  0
    0.7021  -14.3821    3.7780 N   0  0  0  0  0  0  0  0  0  0  0  0
    0.7310  -15.1007    2.5729 C   0  0  0  0  0  0  0  0  0  0  0  0
    0.6884  -14.5739    1.4401 C   0  0  0  0  0  0  0  0  0  0  0  0
    0.6112  -15.5089    0.5544 C   0  0  0  0  0  0  0  0  0  0  0  0
  6  7  1  0
  7  8  2  3
  8  9  1  0
  3 10  1  0
  9 16  1  0
 13 17  1  0
 17 18  1  0
 18 19  1  0
 19 20  2  0
  1  2  2  0
  2  6  1  0
  5  6  2  0
  4  5  1  0
  3  4  2  0
  1  3  1  0
 10 11  2  0
 11 12  1  0
 12 13  2  0
 13 14  1  0
 14 15  2  0
 10 15  1  0
M  END

$$$$
No_3595-/export/home/yangzhenyu/potential_scad_32_flow//YTHDC2/2024-12-06-03-22-00/
     RDKit          3D

 19 20  0  0  1  0  0  0  0  0999 V2000
    1.1787   -8.0297    3.5154 C   0  0  0  0  0  0  0  0  0  0  0  0
    1.0491   -6.8434    2.9820 C   0  0  0  0  0  0  0  0  0  0  0  0
    1.0690   -9.1150    2.7206 C   0  0  1  0  0  0  0  0  0  0  0  0
    0.9689   -6.6391    1.6260 C   0  0  0  0  0  0  0  0  0  0  0  0
    0.9670   -9.0334    1.3824 C   0  0  2  0  0  0  0  0  0  0  0  0
    0.8189   -7.7113    0.8022 C   0  0  0  0  0  0  0  0  0  0  0  0
    1.2122  -10.5176    3.2445 C   0  0  0  0  0  0  0  0  0  0  0  0
    0.3325  -11.3891    3.1392 C   0  0  0  0  0  0  0  0  0  0  0  0
    0.7419  -12.7847    3.3395 C   0  0  0  0  0  0  0  0  0  0  0  0
    2.0425  -13.0868    3.8723 C   0  0  0  0  0  0  0  0  0  0  0  0
    2.4738  -10.8416    3.9089 C   0  0  0  0  0  0  0  0  0  0  0  0
    2.8510  -12.1614    4.1015 C   0  0  0  0  0  0  0  0  0  0  0  0
    0.8938   -5.3509    1.0361 O   0  0  0  0  0  0  0  0  0  0  0  0
    0.7762   -7.5990   -0.4962 O   0  0  0  0  0  0  0  0  0  0  0  0
    0.9129  -10.1183    0.4476 C   0  0  0  0  0  0  0  0  0  0  0  0
    1.9983  -10.7630    0.0672 O   0  0  0  0  0  0  0  0  0  0  0  0
   -0.2347  -10.4880   -0.0701 N   0  0  0  0  0  0  0  0  0  0  0  0
   -0.5600  -11.5906   -0.7836 C   0  0  0  0  0  0  0  0  0  0  0  0
   -1.9639  -11.9343   -0.7147 C   0  0  0  0  0  0  0  0  0  0  0  0
  1  3  1  0
  2  4  1  0
  4  6  1  0
  5  6  1  0
  3  7  1  6
  4 13  2  0
  6 14  2  0
  5 15  1  1
 15 16  2  0
 15 17  1  0
 17 18  1  0
 18 19  1  0
  1  2  1  0
  3  5  1  0
  7  8  2  0
  8  9  1  0
  9 10  2  0
 10 12  1  0
 11 12  2  0
  7 11  1  0
M  END

$$$$
No_3596-/export/home/yangzhenyu/potential_scad_32_flow//YTHDC2/2024-12-06-03-22-00/
     RDKit          3D

 18 18  0  0  0  0  0  0  0  0999 V2000
    1.1787   -8.0297    3.5154 O   0  0  0  0  0  0  0  0  0  0  0  0
    0.9969   -8.9689    3.0048 C   0  0  0  0  0  0  0  0  0  0  0  0
    1.3055  -10.1056    3.6616 C   0  0  0  0  0  0  0  0  0  0  0  0
    1.1249  -11.3503    3.0941 C   0  0  0  0  0  0  0  0  0  0  0  0
    0.6932  -11.4484    1.8586 C   0  0  0  0  0  0  0  0  0  0  0  0
    0.5498  -10.3736    1.0579 C   0  0  0  0  0  0  0  0  0  0  0  0
    0.7643   -9.1185    1.6383 C   0  0  0  0  0  0  0  0  0  0  0  0
    1.0439   -7.9969    1.0939 C   0  0  0  0  0  0  0  0  0  0  0  0
    1.0518   -6.8042    1.4063 O   0  0  0  0  0  0  0  0  0  0  0  0
    1.3960   -8.1547   -0.4222 O   0  0  0  0  0  0  0  0  0  0  0  0
    1.0725  -12.6293    3.8718 C   0  0  0  0  0  0  0  0  0  0  0  0
    1.3904  -13.7438    2.9835 N   0  0  0  0  0  0  0  0  0  0  0  0
    2.4569  -14.1149    2.4390 C   0  0  0  0  0  0  0  0  0  0  0  0
    2.4641  -15.5144    1.9800 O   0  0  0  0  0  0  0  0  0  0  0  0
    3.2994  -13.3778    1.8731 N   0  0  0  0  0  0  0  0  0  0  0  0
    1.5750  -10.1761    5.0622 Br  0  0  0  0  0  0  0  0  0  0  0  0
    0.3925  -10.4929   -0.3441 O   0  0  0  0  0  0  0  0  0  0  0  0
   -0.9991  -10.4423   -0.6841 C   0  0  0  0  0  0  0  0  0  0  0  0
  1  2  1  0
  7  8  1  0
  8  9  2  0
  8 10  1  0
  4 11  1  0
 11 12  1  0
 12 13  1  0
 13 14  2  0
 13 15  1  0
  3 16  1  0
  6 17  1  0
 17 18  1  0
  2  3  2  0
  3  4  1  0
  4  5  2  0
  5  6  1  0
  6  7  2  0
  2  7  1  0
M  END

$$$$
No_3597-/export/home/yangzhenyu/potential_scad_32_flow//YTHDC2/2024-12-06-03-22-00/
     RDKit          3D

 17 18  0  0  1  0  0  0  0  0999 V2000
    1.1787   -8.0297    3.5154 C   0  0  0  0  0  0  0  0  0  0  0  0
    1.0491   -6.8434    2.9820 C   0  0  0  0  0  0  0  0  0  0  0  0
    0.0950   -8.8404    3.2292 C   0  0  0  0  0  0  0  0  0  0  0  0
    0.0602  -10.1764    3.8231 C   0  0  0  0  0  0  0  0  0  0  0  0
    0.2248   -6.3830    2.0648 C   0  0  0  0  0  0  0  0  0  0  0  0
    0.2296   -4.9688    1.6202 O   0  0  0  0  0  0  0  0  0  0  0  0
    1.0771  -10.7509    4.4791 C   0  0  0  0  0  0  0  0  0  0  0  0
   -0.8494   -7.0324    1.6620 N   0  0  0  0  0  0  0  0  0  0  0  0
   -0.9447   -8.3737    2.4499 C   0  0  0  0  0  0  0  0  0  0  0  0
    1.0342  -12.1458    4.5833 N   0  0  0  0  0  0  0  0  0  0  0  0
    0.0069  -12.5554    3.9068 C   0  0  0  0  0  0  0  0  0  0  0  0
   -0.5937  -11.3239    3.3577 C   0  0  0  0  0  0  0  0  0  0  0  0
   -0.3583  -13.8062    3.5792 C   0  0  1  0  0  0  0  0  0  0  0  0
   -1.4648  -14.1933    2.9149 N   0  0  0  0  0  0  0  0  0  0  0  0
    0.6498  -14.8509    3.7963 C   0  0  0  0  0  0  0  0  0  0  0  0
    0.7691  -15.9814    3.0592 C   0  0  0  0  0  0  0  0  0  0  0  0
   -0.3479  -16.2247    2.3118 C   0  0  0  0  0  0  0  0  0  0  0  0
  3  4  1  0
  5  6  1  0
  4  7  2  0
  7 10  1  0
 10 11  2  0
  4 12  1  0
 11 12  1  0
 11 13  1  0
 13 14  1  6
 13 15  1  0
 15 16  2  3
 16 17  1  0
  1  2  2  0
  2  5  1  0
  5  8  2  0
  8  9  1  0
  3  9  2  0
  1  3  1  0
M  END

$$$$
No_3598-/export/home/yangzhenyu/potential_scad_32_flow//YTHDC2/2024-12-06-03-22-00/
     RDKit          3D

 19 20  0  0  0  0  0  0  0  0999 V2000
    1.1787   -8.0297    3.5154 C   0  0  0  0  0  0  0  0  0  0  0  0
    1.0491   -6.8434    2.9820 C   0  0  0  0  0  0  0  0  0  0  0  0
    0.9905   -9.0774    2.6527 C   0  0  0  0  0  0  0  0  0  0  0  0
    0.7897   -8.9519    1.3691 C   0  0  0  0  0  0  0  0  0  0  0  0
    0.7018   -7.7198    0.7892 C   0  0  0  0  0  0  0  0  0  0  0  0
    0.8918   -6.5957    1.6117 C   0  0  0  0  0  0  0  0  0  0  0  0
    1.0998  -10.4710    3.2437 C   0  0  0  0  0  0  0  0  0  0  0  0
    0.0472  -11.2546    3.3963 C   0  0  0  0  0  0  0  0  0  0  0  0
    0.1622  -12.5732    3.4140 C   0  0  0  0  0  0  0  0  0  0  0  0
    1.4182  -13.1957    3.4048 C   0  0  0  0  0  0  0  0  0  0  0  0
    2.1789  -12.8763    2.7170 C   0  0  0  0  0  0  0  0  0  0  0  0
    2.2524  -11.2965    2.5835 C   0  0  0  0  0  0  0  0  0  0  0  0
    0.8837   -5.2636    1.1801 C   0  0  0  0  0  0  0  0  0  0  0  0
    1.1904  -14.6435    3.2951 P   0  0  0  0  0  0  0  0  0  0  0  0
    2.3810  -15.3914    3.0434 O   0  0  0  0  0  0  0  0  0  0  0  0
    0.1721  -15.2717    2.2571 O   0  0  0  0  0  0  0  0  0  0  0  0
   -0.2204   -4.7773    0.7265 O   0  0  0  0  0  0  0  0  0  0  0  0
    0.6309  -15.3264    4.6505 O   0  0  0  0  0  0  0  0  0  0  0  0
    1.7265   -4.3028    1.7239 O   0  0  0  0  0  0  0  0  0  0  0  0
  3  7  1  0
  6 13  1  0
 10 14  1  0
 14 15  2  0
 14 16  1  0
 13 17  1  0
 14 18  1  0
 13 19  2  0
  1  2  2  0
  2  6  1  0
  5  6  2  0
  4  5  1  0
  3  4  2  0
  1  3  1  0
  7  8  2  0
  8  9  1  0
  9 10  2  0
 10 11  1  0
 11 12  2  0
  7 12  1  0
M  END

$$$$
No_3599-/export/home/yangzhenyu/potential_scad_32_flow//YTHDC2/2024-12-06-03-22-00/
     RDKit          3D

 19 20  0  0  0  0  0  0  0  0999 V2000
    1.1787   -8.0297    3.5154 C   0  0  0  0  0  0  0  0  0  0  0  0
    1.0491   -6.8434    2.9820 C   0  0  0  0  0  0  0  0  0  0  0  0
    1.9985   -8.9840    2.8958 C   0  0  0  0  0  0  0  0  0  0  0  0
    1.9135  -10.3404    3.6266 C   0  0  0  0  0  0  0  0  0  0  0  0
    0.7479  -10.9191    3.7202 N   0  0  0  0  0  0  0  0  0  0  0  0
    0.3283   -6.6928    1.8088 C   0  0  0  0  0  0  0  0  0  0  0  0
    0.0907   -5.5604    1.3564 C   0  0  0  0  0  0  0  0  0  0  0  0
    0.7168   -4.3869    1.9585 C   0  0  0  0  0  0  0  0  0  0  0  0
    1.5966   -4.5541    3.0980 C   0  0  0  0  0  0  0  0  0  0  0  0
    1.6428   -5.8019    3.6594 C   0  0  0  0  0  0  0  0  0  0  0  0
    0.0559  -11.3706    2.9055 C   0  0  0  0  0  0  0  0  0  0  0  0
    0.6967  -12.3071    2.0215 C   0  0  0  0  0  0  0  0  0  0  0  0
   -0.0034  -12.5479    0.7915 C   0  0  0  0  0  0  0  0  0  0  0  0
   -1.1945  -12.2134    0.5013 C   0  0  0  0  0  0  0  0  0  0  0  0
   -1.8215  -11.3602    1.5060 C   0  0  0  0  0  0  0  0  0  0  0  0
   -1.1354  -10.9374    2.6948 C   0  0  0  0  0  0  0  0  0  0  0  0
   -1.9035  -10.1979    3.6377 C   0  0  0  0  0  0  0  0  0  0  0  0
   -1.9327   -8.8576    3.7573 O   0  0  0  0  0  0  0  0  0  0  0  0
   -2.9984  -10.7281    4.2874 O   0  0  0  0  0  0  0  0  0  0  0  0
  1  2  1  0
  1  3  1  0
  3  4  1  0
  4  5  1  0
  5 11  1  0
 16 17  1  0
 17 18  2  0
 17 19  1  0
 11 12  2  0
 12 13  1  0
 13 14  2  0
 14 15  1  0
 15 16  2  0
 11 16  1  0
  2  6  2  0
  6  7  1  0
  7  8  2  0
  8  9  1  0
  9 10  2  0
  2 10  1  0
M  END

$$$$
No_3600-/export/home/yangzhenyu/potential_scad_32_flow//YTHDC2/2024-12-06-03-22-00/
     RDKit          3D

 19 20  0  0  1  0  0  0  0  0999 V2000
    1.1787   -8.0297    3.5154 C   0  0  0  0  0  0  0  0  0  0  0  0
    1.1048   -9.2215    3.2892 C   0  0  0  0  0  0  0  0  0  0  0  0
    1.3627  -10.1721    4.3044 C   0  0  0  0  0  0  0  0  0  0  0  0
    1.0682  -11.5187    4.0618 C   0  0  0  0  0  0  0  0  0  0  0  0
    0.6332  -11.9655    2.9682 C   0  0  0  0  0  0  0  0  0  0  0  0
    0.4776  -11.1308    1.9203 C   0  0  0  0  0  0  0  0  0  0  0  0
    0.7470   -9.8274    2.0368 C   0  0  0  0  0  0  0  0  0  0  0  0
    1.0387   -7.0301    2.5175 O   0  0  0  0  0  0  0  0  0  0  0  0
    0.4220  -13.4291    2.8032 C   0  0  0  0  0  0  0  0  0  0  0  0
    1.4050  -14.3276    3.1066 C   0  0  0  0  0  0  0  0  0  0  0  0
    1.4729  -15.5478    2.4619 C   0  0  0  0  0  0  0  0  0  0  0  0
    0.4010  -15.9298    1.7953 C   0  0  0  0  0  0  0  0  0  0  0  0
   -0.5675  -15.0685    1.4676 C   0  0  0  0  0  0  0  0  0  0  0  0
   -0.5169  -13.7528    1.9290 C   0  0  0  0  0  0  0  0  0  0  0  0
    0.6514   -9.0242    0.9503 C   0  0  0  0  0  0  0  0  0  0  0  0
    1.9049   -8.8894    0.2590 C   0  0  1  0  0  0  0  0  0  0  0  0
    2.9706   -9.5352    0.4374 O   0  0  0  0  0  0  0  0  0  0  0  0
    1.9633   -8.3319   -1.0250 Cl  0  0  0  0  0  0  0  0  0  0  0  0
    2.4301  -16.4695    3.0327 O   0  0  0  0  0  0  0  0  0  0  0  0
  1  2  1  0
  1  8  2  0
  5  9  1  0
  7 15  1  0
 15 16  1  0
 16 17  1  6
 16 18  1  0
 11 19  1  0
  2  3  2  0
  3  4  1  0
  4  5  2  0
  5  6  1  0
  6  7  2  0
  2  7  1  0
  9 10  2  0
 10 11  1  0
 11 12  2  0
 12 13  1  0
 13 14  2  0
  9 14  1  0
M  END

$$$$
No_3601-/export/home/yangzhenyu/potential_scad_32_flow//YTHDC2/2024-12-06-03-22-00/
     RDKit          3D

 14 15  0  0  1  0  0  0  0  0999 V2000
    1.1787   -8.0297    3.5154 C   0  0  0  0  0  0  0  0  0  0  0  0
    1.1048   -9.2215    3.2892 C   0  0  0  0  0  0  0  0  0  0  0  0
    1.2339   -9.7611    2.0189 C   0  0  0  0  0  0  0  0  0  0  0  0
    1.3583   -9.0036    0.9764 C   0  0  0  0  0  0  0  0  0  0  0  0
    1.5996   -7.6362    1.1311 C   0  0  0  0  0  0  0  0  0  0  0  0
    1.4830   -7.0928    2.3626 C   0  0  0  0  0  0  0  0  0  0  0  0
    1.1008  -11.2372    1.8542 C   0  0  1  0  0  0  0  0  0  0  0  0
    0.4812  -11.6084    0.6459 N   0  0  0  0  0  0  0  0  0  0  0  0
    1.7135  -12.0836    2.6110 F   0  0  0  0  0  0  0  0  0  0  0  0
    1.5500   -5.6528    2.6472 Cl  0  0  0  0  0  0  0  0  0  0  0  0
    1.5437   -9.4682   -0.3523 C   0  0  0  0  0  0  0  0  0  0  0  0
    0.8648  -10.8190   -0.4489 N   0  0  0  0  0  0  0  0  0  0  0  0
    1.4230   -8.8317   -1.4054 O   0  0  0  0  0  0  0  0  0  0  0  0
    0.9347  -10.1367    4.4219 Cl  0  0  0  0  0  0  0  0  0  0  0  0
  3  7  1  0
  7  9  1  6
  6 10  1  0
  4 11  1  0
  8 12  1  0
 11 12  1  0
 11 13  2  0
  2 14  1  0
  7  8  1  0
  1  2  2  0
  2  3  1  0
  3  4  2  0
  4  5  1  0
  5  6  2  0
  1  6  1  0
M  END

$$$$
No_3602-/export/home/yangzhenyu/potential_scad_32_flow//YTHDC2/2024-12-06-03-22-00/
     RDKit          3D

 19 19  0  0  1  0  0  0  0  0999 V2000
    1.1787   -8.0297    3.5154 C   0  0  0  0  0  0  0  0  0  0  0  0
    1.1048   -9.2215    3.2892 C   0  0  0  0  0  0  0  0  0  0  0  0
    1.2339   -9.7611    2.0189 C   0  0  1  0  0  0  0  0  0  0  0  0
    1.1954  -11.2312    1.8661 C   0  0  0  0  0  0  0  0  0  0  0  0
    1.5546  -12.1691    2.7931 C   0  0  0  0  0  0  0  0  0  0  0  0
    0.9527   -7.0669    2.3918 C   0  0  2  0  0  0  0  0  0  0  0  0
    1.0618   -7.6392    1.0692 C   0  0  0  0  0  0  0  0  0  0  0  0
    1.2060   -8.9530    0.8578 C   0  0  0  0  0  0  0  0  0  0  0  0
    1.3917  -12.1173    3.8028 C   0  0  0  0  0  0  0  0  0  0  0  0
    2.2436  -13.3609    2.1722 C   0  0  0  0  0  0  0  0  0  0  0  0
    0.9850   -5.6011    2.4366 C   0  0  0  0  0  0  0  0  0  0  0  0
    2.3534  -13.5496    0.8305 C   0  0  0  0  0  0  0  0  0  0  0  0
    1.2662   -9.4236   -0.3506 O   0  0  0  0  0  0  0  0  0  0  0  0
    2.6994  -14.3317    2.9038 O   0  0  0  0  0  0  0  0  0  0  0  0
    0.2621   -4.8945    1.7061 O   0  0  0  0  0  0  0  0  0  0  0  0
    1.6447   -5.0435    3.4996 O   0  0  0  0  0  0  0  0  0  0  0  0
    2.5053  -14.6206    0.3255 C   0  0  0  0  0  0  0  0  0  0  0  0
    1.2877  -15.3926    0.1392 C   0  0  0  0  0  0  0  0  0  0  0  0
    1.2163  -16.6658    0.1101 C   0  0  0  0  0  0  0  0  0  0  0  0
  1  2  1  0
  3  4  1  6
  4  5  1  0
  6  7  1  0
  3  8  1  0
  7  8  1  0
  5  9  2  0
  5 10  1  0
  6 11  1  6
 10 12  1  0
  8 13  2  0
 10 14  2  0
 11 15  2  0
 11 16  1  0
 12 17  2  3
 17 18  1  0
 18 19  1  0
  2  3  1  0
  1  6  1  0
M  END

$$$$
No_3603-/export/home/yangzhenyu/potential_scad_32_flow//YTHDC2/2024-12-06-03-22-00/
     RDKit          3D

 19 20  0  0  0  0  0  0  0  0999 V2000
    1.1787   -8.0297    3.5154 C   0  0  0  0  0  0  0  0  0  0  0  0
    1.0491   -6.8434    2.9820 C   0  0  0  0  0  0  0  0  0  0  0  0
    0.9905   -9.0774    2.6527 C   0  0  0  0  0  0  0  0  0  0  0  0
    0.7897   -8.9519    1.3691 C   0  0  0  0  0  0  0  0  0  0  0  0
    0.7018   -7.7198    0.7892 C   0  0  0  0  0  0  0  0  0  0  0  0
    0.8918   -6.5957    1.6117 C   0  0  0  0  0  0  0  0  0  0  0  0
    1.0600  -10.5680    3.3321 C   0  0  0  0  0  0  0  0  0  0  0  0
    2.1422  -11.0089    3.6867 P   0  0  0  0  0  0  0  0  0  0  0  0
    2.6998  -10.2229    4.8168 O   0  0  0  0  0  0  0  0  0  0  0  0
    3.3852  -11.0335    2.7791 O   0  0  0  0  0  0  0  0  0  0  0  0
    2.2308  -12.5486    3.9362 O   0  0  0  0  0  0  0  0  0  0  0  0
    0.8795   -5.2679    1.1341 I   0  0  0  0  0  0  0  0  0  0  0  0
    0.6864  -10.0380    0.4335 O   0  0  0  0  0  0  0  0  0  0  0  0
   -0.0760  -10.1654   -0.5060 C   0  0  0  0  0  0  0  0  0  0  0  0
   -1.0032  -11.1529   -0.3781 C   0  0  0  0  0  0  0  0  0  0  0  0
   -2.0772  -11.2280   -1.0751 C   0  0  0  0  0  0  0  0  0  0  0  0
   -2.3698  -10.2680   -2.0533 C   0  0  0  0  0  0  0  0  0  0  0  0
   -1.5112   -9.1557   -2.2358 C   0  0  0  0  0  0  0  0  0  0  0  0
   -0.3534   -9.1493   -1.4612 C   0  0  0  0  0  0  0  0  0  0  0  0
  3  7  1  0
  7  8  1  0
  8  9  1  0
  8 10  2  0
  8 11  1  0
  6 12  1  0
  4 13  1  0
 13 14  1  0
 14 15  2  0
 15 16  1  0
 16 17  2  0
 17 18  1  0
 18 19  2  0
 14 19  1  0
  1  2  2  0
  2  6  1  0
  5  6  2  0
  4  5  1  0
  3  4  2  0
  1  3  1  0
M  END

$$$$
No_3604-/export/home/yangzhenyu/potential_scad_32_flow//YTHDC2/2024-12-06-03-22-00/
     RDKit          3D

 21 22  0  0  1  0  0  0  0  0999 V2000
    1.1787   -8.0297    3.5154 C   0  0  0  0  0  0  0  0  0  0  0  0
    1.1048   -9.2215    3.2892 C   0  0  0  0  0  0  0  0  0  0  0  0
    1.3627  -10.1721    4.3044 C   0  0  0  0  0  0  0  0  0  0  0  0
    1.0682  -11.5187    4.0618 C   0  0  0  0  0  0  0  0  0  0  0  0
    0.6332  -11.9655    2.9682 C   0  0  0  0  0  0  0  0  0  0  0  0
    0.4776  -11.1308    1.9203 C   0  0  0  0  0  0  0  0  0  0  0  0
    0.7470   -9.8274    2.0368 C   0  0  0  0  0  0  0  0  0  0  0  0
    0.5536   -7.1314    2.6860 N   0  0  0  0  0  0  0  0  0  0  0  0
    0.4463   -7.5890    1.3163 C   0  0  0  0  0  0  0  0  0  0  0  0
    0.3167   -8.8396    1.0546 C   0  0  1  0  0  0  0  0  0  0  0  0
    0.0294   -9.1967   -0.1763 C   0  0  0  0  0  0  0  0  0  0  0  0
   -1.3284   -9.6598   -0.4094 C   0  0  0  0  0  0  0  0  0  0  0  0
    0.5362   -6.5592    0.4955 O   0  0  0  0  0  0  0  0  0  0  0  0
   -1.7343   -9.9769   -1.7857 C   0  0  0  0  0  0  0  0  0  0  0  0
   -2.2018  -11.0824   -2.1449 O   0  0  0  0  0  0  0  0  0  0  0  0
   -1.2656   -9.1751   -2.7673 O   0  0  0  0  0  0  0  0  0  0  0  0
    0.5149  -13.3848    2.6739 C   0  0  0  0  0  0  0  0  0  0  0  0
   -0.7019  -13.8431    2.3628 C   0  0  0  0  0  0  0  0  0  0  0  0
    1.5373  -14.2611    2.7029 C   0  0  0  0  0  0  0  0  0  0  0  0
    1.2978  -15.6233    2.5903 C   0  0  0  0  0  0  0  0  0  0  0  0
    0.0703  -16.0347    2.3132 C   0  0  0  0  0  0  0  0  0  0  0  0
  1  2  1  0
  1  8  1  0
  8  9  1  0
  7 10  1  0
  9 10  1  0
 10 11  1  6
 11 12  2  3
  9 13  2  0
 12 14  1  0
 14 15  2  0
 14 16  1  0
  5 17  1  0
 17 18  1  0
 17 19  1  0
 19 20  2  3
 20 21  1  0
  2  3  2  0
  3  4  1  0
  4  5  2  0
  5  6  1  0
  6  7  2  0
  2  7  1  0
M  END

$$$$
No_3605-/export/home/yangzhenyu/potential_scad_32_flow//YTHDC2/2024-12-06-03-22-00/
     RDKit          3D

 18 19  0  0  1  0  0  0  0  0999 V2000
    1.1787   -8.0297    3.5154 C   0  0  0  0  0  0  0  0  0  0  0  0
    1.0491   -6.8434    2.9820 C   0  0  0  0  0  0  0  0  0  0  0  0
    0.9905   -9.0774    2.6527 C   0  0  0  0  0  0  0  0  0  0  0  0
    0.7897   -8.9519    1.3691 C   0  0  0  0  0  0  0  0  0  0  0  0
    0.7018   -7.7198    0.7892 C   0  0  0  0  0  0  0  0  0  0  0  0
    0.8918   -6.5957    1.6117 C   0  0  0  0  0  0  0  0  0  0  0  0
    1.0711  -10.4814    3.2282 C   0  0  2  0  0  0  0  0  0  0  0  0
    2.1432  -11.0138    3.5962 C   0  0  0  0  0  0  0  0  0  0  0  0
   -0.0553  -11.2345    3.2841 C   0  0  0  0  0  0  0  0  0  0  0  0
   -1.2156  -10.5474    3.8659 C   0  0  0  0  0  0  0  0  0  0  0  0
   -2.4298  -10.5507    3.5126 C   0  0  0  0  0  0  0  0  0  0  0  0
   -2.7367  -11.5737    2.7091 N   0  0  0  0  0  0  0  0  0  0  0  0
   -1.8316  -12.2646    2.1059 C   0  0  0  0  0  0  0  0  0  0  0  0
   -0.5077  -12.1480    2.3571 C   0  0  0  0  0  0  0  0  0  0  0  0
    0.9012   -5.2949    1.0843 C   0  0  0  0  0  0  0  0  0  0  0  0
    2.1781  -11.7324    4.8558 O   0  0  0  0  0  0  0  0  0  0  0  0
    0.1969   -4.2594    1.8892 C   0  0  0  0  0  0  0  0  0  0  0  0
    0.9446   -3.3197    2.4390 O   0  0  0  0  0  0  0  0  0  0  0  0
  3  7  1  0
  7  8  1  6
  7  9  1  0
  6 15  1  0
  8 16  2  0
 15 17  1  0
 17 18  2  0
  1  2  2  0
  2  6  1  0
  5  6  2  0
  4  5  1  0
  3  4  2  0
  1  3  1  0
  9 10  2  0
 10 11  1  0
 11 12  2  0
 12 13  1  0
 13 14  2  0
  9 14  1  0
M  END

$$$$
No_3606-/export/home/yangzhenyu/potential_scad_32_flow//YTHDC2/2024-12-06-03-22-00/
     RDKit          3D

 18 19  0  0  0  0  0  0  0  0999 V2000
    1.1787   -8.0297    3.5154 C   0  0  0  0  0  0  0  0  0  0  0  0
    1.1048   -9.2215    3.2892 C   0  0  0  0  0  0  0  0  0  0  0  0
    1.3627  -10.1721    4.3044 C   0  0  0  0  0  0  0  0  0  0  0  0
    1.7354  -11.4730    3.9023 C   0  0  0  0  0  0  0  0  0  0  0  0
    1.8080  -11.8127    2.7216 C   0  0  0  0  0  0  0  0  0  0  0  0
    1.5854  -11.0021    1.7249 C   0  0  0  0  0  0  0  0  0  0  0  0
    1.3573   -9.7389    1.9287 C   0  0  0  0  0  0  0  0  0  0  0  0
    1.1102   -8.8712    0.9017 C   0  0  0  0  0  0  0  0  0  0  0  0
    0.5299   -7.6926    1.0325 N   0  0  0  0  0  0  0  0  0  0  0  0
    0.7581   -7.1384    2.2739 C   0  0  0  0  0  0  0  0  0  0  0  0
    1.1231   -9.3076   -0.4771 N   0  0  0  0  0  0  0  0  0  0  0  0
    0.4416   -5.6647    2.4023 C   0  0  0  0  0  0  0  0  0  0  0  0
    2.1012  -13.2176    2.3860 C   0  0  0  0  0  0  0  0  0  0  0  0
    1.8041  -14.2139    3.1752 C   0  0  0  0  0  0  0  0  0  0  0  0
    1.2412  -15.3864    2.5441 C   0  0  0  0  0  0  0  0  0  0  0  0
    1.8929  -16.5233    2.7184 C   0  0  0  0  0  0  0  0  0  0  0  0
    1.4621  -17.7004    2.3066 C   0  0  0  0  0  0  0  0  0  0  0  0
    0.2121  -17.8827    1.9414 C   0  0  0  0  0  0  0  0  0  0  0  0
  8 11  1  0
 10 12  1  0
  5 13  1  0
 13 14  1  0
 14 15  1  0
 15 16  1  0
 16 17  2  3
 17 18  1  0
  1  2  2  0
  7  8  2  0
  8  9  1  0
  9 10  2  0
  1 10  1  0
  2  3  1  0
  3  4  2  0
  4  5  1  0
  5  6  2  0
  6  7  1  0
  2  7  1  0
M  END

$$$$
No_3607-/export/home/yangzhenyu/potential_scad_32_flow//YTHDC2/2024-12-06-03-22-00/
     RDKit          3D

 18 19  0  0  0  0  0  0  0  0999 V2000
    1.1787   -8.0297    3.5154 C   0  0  0  0  0  0  0  0  0  0  0  0
    1.1048   -9.2215    3.2892 C   0  0  0  0  0  0  0  0  0  0  0  0
    1.2339   -9.7611    2.0189 C   0  0  0  0  0  0  0  0  0  0  0  0
    1.4306   -8.9466    1.1170 C   0  0  0  0  0  0  0  0  0  0  0  0
    1.6532   -7.5949    1.1786 C   0  0  0  0  0  0  0  0  0  0  0  0
    1.4973   -7.0739    2.4258 C   0  0  0  0  0  0  0  0  0  0  0  0
    1.4438   -5.6890    2.7316 C   0  0  0  0  0  0  0  0  0  0  0  0
    1.2541  -11.1952    1.8085 C   0  0  0  0  0  0  0  0  0  0  0  0
    0.4188  -11.8936    1.9052 C   0  0  0  0  0  0  0  0  0  0  0  0
    0.3684  -13.3025    1.6006 C   0  0  0  0  0  0  0  0  0  0  0  0
    1.4597  -14.1126    1.9459 C   0  0  0  0  0  0  0  0  0  0  0  0
    1.5083  -15.4004    1.7614 C   0  0  0  0  0  0  0  0  0  0  0  0
    0.3333  -16.0206    1.3405 C   0  0  0  0  0  0  0  0  0  0  0  0
   -0.7352  -15.3622    1.0675 C   0  0  0  0  0  0  0  0  0  0  0  0
   -0.7493  -13.9478    1.1946 C   0  0  0  0  0  0  0  0  0  0  0  0
   -1.8622  -16.1252    0.8220 C   0  0  0  0  0  0  0  0  0  0  0  0
   -3.0356  -15.9116    1.4579 C   0  0  0  0  0  0  0  0  0  0  0  0
   -4.1798  -16.6098    1.0991 C   0  0  0  0  0  0  0  0  0  0  0  0
  6  7  1  0
  3  8  1  0
  8  9  2  3
  9 10  1  0
 14 16  1  0
 16 17  2  3
 17 18  1  0
  1  2  2  0
  2  3  1  0
  3  4  2  0
  4  5  1  0
  5  6  2  0
  1  6  1  0
 10 11  2  0
 11 12  1  0
 12 13  2  0
 13 14  1  0
 14 15  2  0
 10 15  1  0
M  END

$$$$
No_3608-/export/home/yangzhenyu/potential_scad_32_flow//YTHDC2/2024-12-06-03-22-00/
     RDKit          3D

 20 21  0  0  1  0  0  0  0  0999 V2000
    1.1787   -8.0297    3.5154 C   0  0  0  0  0  0  0  0  0  0  0  0
    1.0491   -6.8434    2.9820 C   0  0  0  0  0  0  0  0  0  0  0  0
    0.0950   -8.8404    3.2292 C   0  0  0  0  0  0  0  0  0  0  0  0
   -0.9173   -8.4596    2.5152 C   0  0  0  0  0  0  0  0  0  0  0  0
   -1.0331   -7.2162    2.0653 C   0  0  0  0  0  0  0  0  0  0  0  0
   -0.0105   -6.3168    2.3081 C   0  0  0  0  0  0  0  0  0  0  0  0
    0.0485   -4.9783    1.8782 C   0  0  0  0  0  0  0  0  0  0  0  0
   -0.6974   -4.6139    0.8644 C   0  0  0  0  0  0  0  0  0  0  0  0
   -0.9552   -3.3006    0.6322 C   0  0  1  0  0  0  0  0  0  0  0  0
   -0.0842   -2.3242    1.1750 C   0  0  0  0  0  0  0  0  0  0  0  0
    0.7666   -2.6097    2.0716 C   0  0  0  0  0  0  0  0  0  0  0  0
    0.8924   -3.9831    2.4474 C   0  0  0  0  0  0  0  0  0  0  0  0
    0.1695  -10.2599    3.7160 Cl  0  0  0  0  0  0  0  0  0  0  0  0
    2.1029   -4.3883    2.8938 O   0  0  0  0  0  0  0  0  0  0  0  0
   -2.0530   -2.7771   -0.6167 F   0  0  0  0  0  0  0  0  0  0  0  0
   -2.0723   -9.2600    2.4410 O   0  0  0  0  0  0  0  0  0  0  0  0
   -3.0555   -9.0013    2.0763 C   0  0  0  0  0  0  0  0  0  0  0  0
   -3.3241   -8.9679    1.0447 C   0  0  0  0  0  0  0  0  0  0  0  0
   -4.6527   -8.6055    0.4766 C   0  0  0  0  0  0  0  0  0  0  0  0
   -5.5453   -8.3318    1.4800 C   0  0  0  0  0  0  0  0  0  0  0  0
  6  7  1  0
  7  8  1  0
  9 10  1  0
  7 12  1  0
 11 12  1  0
  3 13  1  0
 12 14  2  0
  9 15  1  6
  4 16  1  0
 16 17  1  0
 17 18  2  3
 18 19  1  0
 19 20  2  0
  8  9  1  0
 10 11  1  0
  1  2  2  0
  2  6  1  0
  5  6  2  0
  4  5  1  0
  3  4  2  0
  1  3  1  0
M  END

$$$$
No_3609-/export/home/yangzhenyu/potential_scad_32_flow//YTHDC2/2024-12-06-03-22-00/
     RDKit          3D

 19 20  0  0  0  0  0  0  0  0999 V2000
    1.1787   -8.0297    3.5154 C   0  0  0  0  0  0  0  0  0  0  0  0
    1.0491   -6.8434    2.9820 C   0  0  0  0  0  0  0  0  0  0  0  0
    0.0950   -8.8404    3.2292 C   0  0  0  0  0  0  0  0  0  0  0  0
   -0.9173   -8.4596    2.5152 C   0  0  0  0  0  0  0  0  0  0  0  0
   -1.0331   -7.2162    2.0653 C   0  0  0  0  0  0  0  0  0  0  0  0
   -0.0105   -6.3168    2.3081 C   0  0  0  0  0  0  0  0  0  0  0  0
    0.1935  -10.3737    3.7416 Cl  0  0  0  0  0  0  0  0  0  0  0  0
    0.0192   -4.9454    1.9087 C   0  0  0  0  0  0  0  0  0  0  0  0
   -0.5248   -4.6487    0.7634 C   0  0  0  0  0  0  0  0  0  0  0  0
   -1.2658   -5.1077    0.1797 C   0  0  0  0  0  0  0  0  0  0  0  0
   -2.0303   -4.6243   -0.9696 C   0  0  0  0  0  0  0  0  0  0  0  0
   -1.8861   -3.2323   -1.2357 C   0  0  0  0  0  0  0  0  0  0  0  0
   -0.9516   -2.5179   -0.4953 C   0  0  0  0  0  0  0  0  0  0  0  0
   -0.2017   -3.0818    0.5005 C   0  0  0  0  0  0  0  0  0  0  0  0
   -0.6580   -1.1791   -0.7883 C   0  0  0  0  0  0  0  0  0  0  0  0
   -0.6081   -0.2256    0.0029 C   0  0  0  0  0  0  0  0  0  0  0  0
   -0.6551    1.0732   -0.2754 C   0  0  0  0  0  0  0  0  0  0  0  0
   -0.3541    1.4645   -1.5811 C   0  0  0  0  0  0  0  0  0  0  0  0
   -0.3106    0.4494   -2.6106 C   0  0  0  0  0  0  0  0  0  0  0  0
  3  7  1  0
  6  8  1  0
  8  9  1  0
 13 15  1  0
 15 16  1  0
 16 17  2  3
 17 18  1  0
 18 19  2  0
  1  2  2  0
  2  6  1  0
  5  6  2  0
  4  5  1  0
  3  4  2  0
  1  3  1  0
  9 10  2  0
 10 11  1  0
 11 12  2  0
 12 13  1  0
 13 14  2  0
  9 14  1  0
M  END

$$$$
No_3610-/export/home/yangzhenyu/potential_scad_32_flow//YTHDC2/2024-12-06-03-22-00/
     RDKit          3D

 18 18  0  0  1  0  0  0  0  0999 V2000
    1.1787   -8.0297    3.5154 C   0  0  0  0  0  0  0  0  0  0  0  0
    1.0491   -6.8434    2.9820 C   0  0  0  0  0  0  0  0  0  0  0  0
    0.9905   -9.0774    2.6527 C   0  0  0  0  0  0  0  0  0  0  0  0
    0.7897   -8.9519    1.3691 C   0  0  0  0  0  0  0  0  0  0  0  0
    0.7018   -7.7198    0.7892 C   0  0  0  0  0  0  0  0  0  0  0  0
    0.8918   -6.5957    1.6117 C   0  0  0  0  0  0  0  0  0  0  0  0
    1.0998  -10.4710    3.2437 C   0  0  0  0  0  0  0  0  0  0  0  0
    1.3102  -11.5554    2.5214 C   0  0  0  0  0  0  0  0  0  0  0  0
    1.4257  -12.8124    3.1919 C   0  0  0  0  0  0  0  0  0  0  0  0
    1.4301  -14.0627    2.4374 C   0  0  1  0  0  0  0  0  0  0  0  0
    0.8588   -5.2558    1.2463 O   0  0  0  0  0  0  0  0  0  0  0  0
    2.4184  -14.2079    1.4799 C   0  0  0  0  0  0  0  0  0  0  0  0
    0.6628  -15.1040    2.7897 C   0  0  0  0  0  0  0  0  0  0  0  0
    1.1629  -16.2951    2.8315 C   0  0  0  0  0  0  0  0  0  0  0  0
    0.4843  -17.2987    3.5817 O   0  0  0  0  0  0  0  0  0  0  0  0
    2.2845  -16.7167    2.2203 C   0  0  0  0  0  0  0  0  0  0  0  0
    2.7533  -18.0975    2.4023 C   0  0  0  0  0  0  0  0  0  0  0  0
    2.1104  -18.8928    3.1804 C   0  0  0  0  0  0  0  0  0  0  0  0
  1  2  1  0
  3  4  1  0
  2  6  1  0
  5  6  1  0
  3  7  1  0
  7  8  2  3
  8  9  1  0
  9 10  1  0
  6 11  2  0
 10 12  1  1
 10 13  1  0
 13 14  1  0
 14 15  1  0
 14 16  1  0
 16 17  2  3
 17 18  1  0
  1  3  1  0
  4  5  1  0
M  END

$$$$
No_3611-/export/home/yangzhenyu/potential_scad_32_flow//YTHDC2/2024-12-06-03-22-00/
     RDKit          3D

 20 21  0  0  1  0  0  0  0  0999 V2000
    1.1787   -8.0297    3.5154 C   0  0  0  0  0  0  0  0  0  0  0  0
    1.1048   -9.2215    3.2892 C   0  0  0  0  0  0  0  0  0  0  0  0
    1.3627  -10.1721    4.3044 C   0  0  0  0  0  0  0  0  0  0  0  0
    1.0682  -11.5187    4.0618 C   0  0  0  0  0  0  0  0  0  0  0  0
    0.6332  -11.9655    2.9682 C   0  0  0  0  0  0  0  0  0  0  0  0
    0.4776  -11.1308    1.9203 C   0  0  0  0  0  0  0  0  0  0  0  0
    0.7470   -9.8274    2.0368 C   0  0  0  0  0  0  0  0  0  0  0  0
    1.0387   -7.0301    2.5175 N   0  0  0  0  0  0  0  0  0  0  0  0
    1.3639   -7.4200    1.2802 C   0  0  0  0  0  0  0  0  0  0  0  0
    1.0214   -8.7094    0.9389 C   0  0  0  0  0  0  0  0  0  0  0  0
    0.8898   -9.1364   -0.2815 C   0  0  0  0  0  0  0  0  0  0  0  0
   -0.4940   -9.3658   -0.6716 O   0  0  0  0  0  0  0  0  0  0  0  0
    1.6481   -9.0749   -1.2060 O   0  0  0  0  0  0  0  0  0  0  0  0
    0.4859  -13.3741    2.6903 C   0  0  0  0  0  0  0  0  0  0  0  0
    0.9555  -14.0572    1.7506 C   0  0  1  0  0  0  0  0  0  0  0  0
    2.3271  -13.8203    1.3735 C   0  0  0  0  0  0  0  0  0  0  0  0
    0.9669  -15.5780    1.8707 C   0  0  0  0  0  0  0  0  0  0  0  0
    1.7849  -16.2486    2.6590 C   0  0  0  0  0  0  0  0  0  0  0  0
    1.4892  -17.3014    3.3293 O   0  0  0  0  0  0  0  0  0  0  0  0
    3.1119  -16.0099    2.4932 N   0  0  0  0  0  0  0  0  0  0  0  0
  1  2  1  0
  1  8  1  0
  8  9  1  0
  7 10  1  0
  9 10  1  0
 10 11  1  0
 11 12  1  0
 11 13  2  0
  5 14  1  0
 14 15  1  0
 15 16  1  1
 15 17  1  0
 17 18  1  0
 18 19  2  0
 18 20  1  0
  2  3  2  0
  3  4  1  0
  4  5  2  0
  5  6  1  0
  6  7  2  0
  2  7  1  0
M  END

$$$$
No_3612-/export/home/yangzhenyu/potential_scad_32_flow//YTHDC2/2024-12-06-03-22-00/
     RDKit          3D

 19 19  0  0  1  0  0  0  0  0999 V2000
    1.1787   -8.0297    3.5154 O   0  0  0  0  0  0  0  0  0  0  0  0
    0.6747   -7.4019    2.7838 C   0  0  0  0  0  0  0  0  0  0  0  0
    0.5570   -6.0797    2.8560 C   0  0  0  0  0  0  0  0  0  0  0  0
   -0.2158   -5.3007    2.0284 C   0  0  0  0  0  0  0  0  0  0  0  0
   -0.8260   -5.9169    1.0290 C   0  0  0  0  0  0  0  0  0  0  0  0
   -0.6925   -7.2407    0.8216 C   0  0  0  0  0  0  0  0  0  0  0  0
    0.1645   -8.0156    1.6621 C   0  0  0  0  0  0  0  0  0  0  0  0
    0.4049   -9.3434    1.4877 C   0  0  2  0  0  0  0  0  0  0  0  0
    1.4848   -9.6364    0.5257 C   0  0  0  0  0  0  0  0  0  0  0  0
    1.9880  -10.8099    0.3816 O   0  0  0  0  0  0  0  0  0  0  0  0
    2.2014   -8.6386   -0.2111 O   0  0  0  0  0  0  0  0  0  0  0  0
   -1.6662   -5.1691    0.1389 O   0  0  0  0  0  0  0  0  0  0  0  0
   -2.6145   -5.7637   -0.5387 C   0  0  0  0  0  0  0  0  0  0  0  0
   -2.2885   -5.8255   -1.8309 C   0  0  0  0  0  0  0  0  0  0  0  0
   -2.1331   -6.8549   -2.5276 O   0  0  0  0  0  0  0  0  0  0  0  0
   -2.1504   -4.6828   -2.6367 O   0  0  0  0  0  0  0  0  0  0  0  0
   -0.1656  -10.3273    1.9029 C   0  0  0  0  0  0  0  0  0  0  0  0
   -1.0377  -11.2313    1.2912 C   0  0  0  0  0  0  0  0  0  0  0  0
   -1.5454  -12.4500    1.8224 C   0  0  0  0  0  0  0  0  0  0  0  0
  1  2  1  0
  7  8  1  0
  8  9  1  6
  9 10  2  0
  9 11  1  0
  5 12  1  0
 12 13  1  0
 13 14  1  0
 14 15  2  0
 14 16  1  0
  8 17  1  0
 17 18  2  3
 18 19  1  0
  2  3  2  0
  3  4  1  0
  4  5  2  0
  5  6  1  0
  6  7  2  0
  2  7  1  0
M  END

$$$$
No_3613-/export/home/yangzhenyu/potential_scad_32_flow//YTHDC2/2024-12-06-03-22-00/
     RDKit          3D

 18 19  0  0  0  0  0  0  0  0999 V2000
    1.1787   -8.0297    3.5154 C   0  0  0  0  0  0  0  0  0  0  0  0
    1.0491   -6.8434    2.9820 C   0  0  0  0  0  0  0  0  0  0  0  0
    0.9905   -9.0774    2.6527 C   0  0  0  0  0  0  0  0  0  0  0  0
    1.1655  -10.4663    3.1286 C   0  0  0  0  0  0  0  0  0  0  0  0
    1.2197  -11.4898    2.5831 C   0  0  0  0  0  0  0  0  0  0  0  0
    1.0589  -11.4458    1.1293 C   0  0  0  0  0  0  0  0  0  0  0  0
    0.9638  -10.3069    0.4651 C   0  0  0  0  0  0  0  0  0  0  0  0
    0.9191   -9.0789    1.1942 C   0  0  0  0  0  0  0  0  0  0  0  0
    0.8436   -7.8937    0.7129 C   0  0  0  0  0  0  0  0  0  0  0  0
    0.9416   -6.6909    1.5148 C   0  0  0  0  0  0  0  0  0  0  0  0
    1.3676  -12.8224    3.0699 C   0  0  0  0  0  0  0  0  0  0  0  0
    1.4225  -13.9139    2.1433 N   0  0  0  0  0  0  0  0  0  0  0  0
    2.7658  -14.2723    1.9112 C   0  0  0  0  0  0  0  0  0  0  0  0
    1.3281   -5.5816    3.6154 C   0  0  0  0  0  0  0  0  0  0  0  0
    0.4764  -14.7503    1.8090 C   0  0  0  0  0  0  0  0  0  0  0  0
   -0.7165  -14.5225    2.3558 O   0  0  0  0  0  0  0  0  0  0  0  0
    0.6469  -15.8609    1.0594 C   0  0  0  0  0  0  0  0  0  0  0  0
    0.8935   -4.4060    3.2748 O   0  0  0  0  0  0  0  0  0  0  0  0
  5 11  1  0
 11 12  1  0
 12 13  1  0
  2 14  1  0
 12 15  1  0
 15 16  2  0
 15 17  1  0
 14 18  2  0
  1  2  2  0
  2 10  1  0
  9 10  2  0
  8  9  1  0
  1  3  1  0
  3  4  2  0
  4  5  1  0
  5  6  2  0
  6  7  1  0
  7  8  2  0
  3  8  1  0
M  END

$$$$
No_3614-/export/home/yangzhenyu/potential_scad_32_flow//YTHDC2/2024-12-06-03-22-00/
     RDKit          3D

 19 20  0  0  1  0  0  0  0  0999 V2000
    1.1787   -8.0297    3.5154 C   0  0  0  0  0  0  0  0  0  0  0  0
    1.1048   -9.2215    3.2892 C   0  0  0  0  0  0  0  0  0  0  0  0
    1.2339   -9.7611    2.0189 C   0  0  0  0  0  0  0  0  0  0  0  0
    1.3583   -9.0036    0.9764 C   0  0  0  0  0  0  0  0  0  0  0  0
    1.7077   -9.6100   -0.3010 C   0  0  0  0  0  0  0  0  0  0  0  0
    1.3637   -7.1087    2.3226 C   0  0  0  0  0  0  0  0  0  0  0  0
    1.4257   -7.6645    1.0231 C   0  0  0  0  0  0  0  0  0  0  0  0
    1.9364   -8.8976   -1.3212 O   0  0  0  0  0  0  0  0  0  0  0  0
    1.2982  -10.7764   -0.4341 O   0  0  0  0  0  0  0  0  0  0  0  0
    1.1232  -10.1782    4.3891 C   0  0  0  0  0  0  0  0  0  0  0  0
    0.9464  -11.6839    4.0158 C   0  0  2  0  0  0  0  0  0  0  0  0
    2.1319  -12.4359    4.0810 N   0  0  0  0  0  0  0  0  0  0  0  0
    2.0364  -13.3716    3.0048 C   0  0  2  0  0  0  0  0  0  0  0  0
    0.9661  -13.2328    2.1482 C   0  0  0  0  0  0  0  0  0  0  0  0
    0.3053  -12.0911    2.9311 C   0  0  0  0  0  0  0  0  0  0  0  0
    1.3279   -5.6058    2.5314 O   0  0  0  0  0  0  0  0  0  0  0  0
    2.8269  -14.4714    3.0157 C   0  0  0  0  0  0  0  0  0  0  0  0
    2.5708  -15.5095    2.0801 C   0  0  0  0  0  0  0  0  0  0  0  0
    1.4149  -15.5867    1.6229 C   0  0  0  0  0  0  0  0  0  0  0  0
  4  5  1  0
  5  8  1  0
  5  9  2  0
  2 10  1  0
 11 10  1  6
 11 12  1  0
 12 13  1  0
 13 14  1  1
 11 15  1  0
 14 15  1  0
  6 16  1  0
 13 17  1  0
 17 18  2  3
 18 19  1  0
  1  2  2  0
  2  3  1  0
  3  4  2  0
  4  7  1  0
  6  7  2  0
  1  6  1  0
M  END

$$$$
No_3615-/export/home/yangzhenyu/potential_scad_32_flow//YTHDC2/2024-12-06-03-22-00/
     RDKit          3D

 20 20  0  0  0  0  0  0  0  0999 V2000
    1.1787   -8.0297    3.5154 C   0  0  0  0  0  0  0  0  0  0  0  0
    1.0491   -6.8434    2.9820 C   0  0  0  0  0  0  0  0  0  0  0  0
    0.0950   -8.8404    3.2292 C   0  0  0  0  0  0  0  0  0  0  0  0
   -0.9173   -8.4596    2.5152 Cl  0  0  0  0  0  0  0  0  0  0  0  0
    1.0481   -6.4772    1.6274 C   0  0  0  0  0  0  0  0  0  0  0  0
    1.5394   -7.2151    0.7440 C   0  0  0  0  0  0  0  0  0  0  0  0
    0.0746  -10.1181    4.0711 C   0  0  0  0  0  0  0  0  0  0  0  0
    0.3096  -11.2605    3.4151 C   0  0  0  0  0  0  0  0  0  0  0  0
    1.4524  -12.0445    3.8344 C   0  0  0  0  0  0  0  0  0  0  0  0
    2.0556  -12.5662    2.9069 C   0  0  0  0  0  0  0  0  0  0  0  0
    1.5605  -12.7549    1.6364 C   0  0  0  0  0  0  0  0  0  0  0  0
    0.5352  -12.0419    1.1602 C   0  0  0  0  0  0  0  0  0  0  0  0
   -0.1573  -11.3114    2.1209 C   0  0  0  0  0  0  0  0  0  0  0  0
    0.5561   -5.1987    1.2729 C   0  0  0  0  0  0  0  0  0  0  0  0
   -0.1326   -4.4635    1.7349 C   0  0  0  0  0  0  0  0  0  0  0  0
   -1.3320   -4.5213    1.9271 O   0  0  0  0  0  0  0  0  0  0  0  0
    0.3358   -3.1010    2.2257 C   0  0  0  0  0  0  0  0  0  0  0  0
    2.4136  -13.6462    0.8478 C   0  0  0  0  0  0  0  0  0  0  0  0
    2.1708  -13.7012   -0.3091 O   0  0  0  0  0  0  0  0  0  0  0  0
    3.2332  -14.4586    1.4253 N   0  0  0  0  0  0  0  0  0  0  0  0
  1  2  1  0
  1  3  2  3
  3  4  1  0
  2  5  1  0
  5  6  2  0
  3  7  1  0
  7  8  1  0
  5 14  1  0
 14 15  1  0
 15 16  1  0
 15 17  1  0
 11 18  1  0
 18 19  2  0
 18 20  1  0
  8  9  2  0
  9 10  1  0
 10 11  2  0
 11 12  1  0
 12 13  2  0
  8 13  1  0
M  END

$$$$
No_3616-/export/home/yangzhenyu/potential_scad_32_flow//YTHDC2/2024-12-06-03-22-00/
     RDKit          3D

 17 18  0  0  0  0  0  0  0  0999 V2000
    1.1787   -8.0297    3.5154 C   0  0  0  0  0  0  0  0  0  0  0  0
    1.1048   -9.2215    3.2892 C   0  0  0  0  0  0  0  0  0  0  0  0
    1.2339   -9.7611    2.0189 C   0  0  0  0  0  0  0  0  0  0  0  0
    1.3583   -9.0036    0.9764 C   0  0  0  0  0  0  0  0  0  0  0  0
    1.5996   -7.6362    1.1311 C   0  0  0  0  0  0  0  0  0  0  0  0
    1.4830   -7.0928    2.3626 C   0  0  0  0  0  0  0  0  0  0  0  0
    1.1171  -11.3311    1.8661 C   0  0  0  0  0  0  0  0  0  0  0  0
    0.5022  -11.6388    0.6531 C   0  0  0  0  0  0  0  0  0  0  0  0
   -0.5299  -12.4202    0.9357 C   0  0  0  0  0  0  0  0  0  0  0  0
   -0.5271  -13.2041    2.0625 C   0  0  0  0  0  0  0  0  0  0  0  0
    0.4614  -13.2984    2.8970 C   0  0  0  0  0  0  0  0  0  0  0  0
    1.3229  -12.1169    2.8608 C   0  0  0  0  0  0  0  0  0  0  0  0
    1.5710   -5.6452    2.6549 Cl  0  0  0  0  0  0  0  0  0  0  0  0
    2.0109  -11.6563    3.9588 N   0  0  0  0  0  0  0  0  0  0  0  0
   -1.3782  -14.7391    2.1344 C   0  0  0  0  0  0  0  0  0  0  0  0
   -0.9550  -15.7318    2.5506 C   0  0  0  0  0  0  0  0  0  0  0  0
   -1.8507  -16.7077    2.8563 C   0  0  0  0  0  0  0  0  0  0  0  0
  3  7  1  0
  6 13  1  0
 12 14  1  0
 10 15  1  0
 15 16  2  3
 16 17  1  0
  1  2  2  0
  2  3  1  0
  3  4  2  0
  4  5  1  0
  5  6  2  0
  1  6  1  0
  7  8  2  0
  8  9  1  0
  9 10  2  0
 10 11  1  0
 11 12  2  0
  7 12  1  0
M  END

$$$$
No_3617-/export/home/yangzhenyu/potential_scad_32_flow//YTHDC2/2024-12-06-03-22-00/
     RDKit          3D

 18 18  0  0  0  0  0  0  0  0999 V2000
    1.1787   -8.0297    3.5154 C   0  0  0  0  0  0  0  0  0  0  0  0
    1.1048   -9.2215    3.2892 C   0  0  0  0  0  0  0  0  0  0  0  0
    1.2339   -9.7611    2.0189 C   0  0  0  0  0  0  0  0  0  0  0  0
    1.3583   -9.0036    0.9764 C   0  0  0  0  0  0  0  0  0  0  0  0
    1.5996   -7.6362    1.1311 C   0  0  0  0  0  0  0  0  0  0  0  0
    1.4830   -7.0928    2.3626 C   0  0  0  0  0  0  0  0  0  0  0  0
    1.5395   -5.7300    2.6182 C   0  0  0  0  0  0  0  0  0  0  0  0
    1.1775  -11.2233    1.8407 C   0  0  0  0  0  0  0  0  0  0  0  0
    0.5085  -11.9762    2.1989 C   0  0  0  0  0  0  0  0  0  0  0  0
    0.4247  -13.3704    2.0465 C   0  0  0  0  0  0  0  0  0  0  0  0
    1.6054  -14.1557    2.4664 C   0  0  0  0  0  0  0  0  0  0  0  0
    1.8180  -15.4260    2.0939 C   0  0  0  0  0  0  0  0  0  0  0  0
    0.9720  -16.3583    2.3542 C   0  0  0  0  0  0  0  0  0  0  0  0
    1.3387  -17.7988    2.1989 P   0  0  0  0  0  0  0  0  0  0  0  0
    0.5741  -18.7280    2.3209 O   0  0  0  0  0  0  0  0  0  0  0  0
    2.5754  -18.0879    3.2245 O   0  0  0  0  0  0  0  0  0  0  0  0
    2.1387  -17.7676    0.8401 O   0  0  0  0  0  0  0  0  0  0  0  0
   -0.6051  -14.0004    1.5129 O   0  0  0  0  0  0  0  0  0  0  0  0
  6  7  1  0
  3  8  1  0
  8  9  2  3
  9 10  1  0
 10 11  1  0
 11 12  1  0
 12 13  1  0
 13 14  1  0
 14 15  1  0
 14 16  1  0
 14 17  2  0
 10 18  2  0
  1  2  2  0
  2  3  1  0
  3  4  2  0
  4  5  1  0
  5  6  2  0
  1  6  1  0
M  END

$$$$
No_3618-/export/home/yangzhenyu/potential_scad_32_flow//YTHDC2/2024-12-06-03-22-00/
     RDKit          3D

 20 21  0  0  1  0  0  0  0  0999 V2000
    1.1787   -8.0297    3.5154 C   0  0  0  0  0  0  0  0  0  0  0  0
    1.0491   -6.8434    2.9820 C   0  0  0  0  0  0  0  0  0  0  0  0
    0.9905   -9.0774    2.6527 C   0  0  0  0  0  0  0  0  0  0  0  0
    1.1655  -10.4663    3.1286 C   0  0  2  0  0  0  0  0  0  0  0  0
    1.7409  -10.6480    4.4599 N   0  0  0  0  0  0  0  0  0  0  0  0
    0.9614   -6.4273    1.8801 C   0  0  0  0  0  0  0  0  0  0  0  0
    0.6640   -7.4678    0.8780 C   0  0  0  0  0  0  0  0  0  0  0  0
    0.6481   -8.8009    1.2766 C   0  0  0  0  0  0  0  0  0  0  0  0
    1.0273  -11.4765    2.3621 C   0  0  0  0  0  0  0  0  0  0  0  0
    0.6470  -12.6906    3.0489 N   0  0  0  0  0  0  0  0  0  0  0  0
    0.9466  -13.7774    2.4865 C   0  0  0  0  0  0  0  0  0  0  0  0
    1.5052  -13.8525    1.2394 N   0  0  0  0  0  0  0  0  0  0  0  0
    0.7554  -15.2412    3.1324 C   0  0  0  0  0  0  0  0  0  0  0  0
    0.8464   -5.1190    1.3145 Cl  0  0  0  0  0  0  0  0  0  0  0  0
    0.7631  -16.3685    2.3809 C   0  0  1  0  0  0  0  0  0  0  0  0
    1.3027  -16.1929    1.0584 C   0  0  0  0  0  0  0  0  0  0  0  0
    1.5745  -15.0741    0.5840 C   0  0  0  0  0  0  0  0  0  0  0  0
    1.5866  -17.3907    0.5592 O   0  0  0  0  0  0  0  0  0  0  0  0
    0.5598  -17.5443    3.1499 C   0  0  0  0  0  0  0  0  0  0  0  0
    1.4852  -18.2867    3.7728 C   0  0  0  0  0  0  0  0  0  0  0  0
  3  4  1  0
  4  5  1  6
  4  9  1  0
  9 10  1  0
 11 12  1  0
 11 13  1  0
  6 14  1  0
 15 16  1  0
 12 17  1  0
 16 17  1  0
 16 18  2  0
 15 19  1  1
 19 20  1  0
 10 11  1  0
 13 15  1  0
  1  2  2  0
  2  6  1  0
  6  7  2  0
  7  8  1  0
  3  8  2  0
  1  3  1  0
M  END

$$$$
No_3619-/export/home/yangzhenyu/potential_scad_32_flow//YTHDC2/2024-12-06-03-22-00/
     RDKit          3D

 18 19  0  0  1  0  0  0  0  0999 V2000
    1.1787   -8.0297    3.5154 C   0  0  0  0  0  0  0  0  0  0  0  0
    1.1048   -9.2215    3.2892 C   0  0  0  0  0  0  0  0  0  0  0  0
    1.2339   -9.7611    2.0189 C   0  0  0  0  0  0  0  0  0  0  0  0
    1.3583   -9.0036    0.9764 C   0  0  0  0  0  0  0  0  0  0  0  0
    1.5996   -7.6362    1.1311 C   0  0  0  0  0  0  0  0  0  0  0  0
    1.4830   -7.0928    2.3626 C   0  0  0  0  0  0  0  0  0  0  0  0
    1.1008  -11.2372    1.8542 C   0  0  0  0  0  0  0  0  0  0  0  0
    1.9749  -12.0938    2.2342 C   0  0  0  0  0  0  0  0  0  0  0  0
    1.7533  -13.4231    1.8956 C   0  0  0  0  0  0  0  0  0  0  0  0
    0.8624  -13.8318    1.1071 C   0  0  0  0  0  0  0  0  0  0  0  0
   -0.0624  -12.9093    0.5581 N   0  0  0  0  0  0  0  0  0  0  0  0
    0.1360  -11.5683    0.9379 C   0  0  0  0  0  0  0  0  0  0  0  0
   -0.8293  -10.7122    0.4770 C   0  0  2  0  0  0  0  0  0  0  0  0
   -1.9840  -10.5467    1.1540 N   0  0  0  0  0  0  0  0  0  0  0  0
   -2.8856   -9.5968    0.8103 C   0  0  0  0  0  0  0  0  0  0  0  0
   -3.9030   -9.2541    1.5449 N   0  0  0  0  0  0  0  0  0  0  0  0
   -0.9624  -10.2114   -0.7821 C   0  0  0  0  0  0  0  0  0  0  0  0
   -1.9033   -9.3794   -0.8690 N   0  0  0  0  0  0  0  0  0  0  0  0
  3  7  1  0
 12 13  1  0
 13 14  1  0
 14 15  2  3
 15 16  1  0
 13 17  1  6
 17 18  1  0
  1  2  2  0
  2  3  1  0
  3  4  2  0
  4  5  1  0
  5  6  2  0
  1  6  1  0
  7  8  2  0
  8  9  1  0
  9 10  2  0
 10 11  1  0
 11 12  2  0
  7 12  1  0
M  END

$$$$
No_3620-/export/home/yangzhenyu/potential_scad_32_flow//YTHDC2/2024-12-06-03-22-00/
     RDKit          3D

 19 19  0  0  1  0  0  0  0  0999 V2000
    1.1787   -8.0297    3.5154 C   0  0  0  0  0  0  0  0  0  0  0  0
    1.0491   -6.8434    2.9820 C   0  0  0  0  0  0  0  0  0  0  0  0
    1.9985   -8.9840    2.8958 C   0  0  0  0  0  0  0  0  0  0  0  0
    1.9135  -10.3404    3.6266 C   0  0  0  0  0  0  0  0  0  0  0  0
    1.3291  -11.3908    3.0222 C   0  0  0  0  0  0  0  0  0  0  0  0
    1.0344  -11.3281    1.7959 O   0  0  0  0  0  0  0  0  0  0  0  0
    1.2350  -12.4977    3.7160 N   0  0  0  0  0  0  0  0  0  0  0  0
    0.4602   -6.5679    1.7642 O   0  0  0  0  0  0  0  0  0  0  0  0
    1.5889   -5.6956    3.5363 O   0  0  0  0  0  0  0  0  0  0  0  0
    0.6038  -13.5914    3.1039 C   0  0  2  0  0  0  0  0  0  0  0  0
   -0.6876  -13.5657    2.8172 C   0  0  1  0  0  0  0  0  0  0  0  0
   -1.4294  -12.5436    2.8593 C   0  0  0  0  0  0  0  0  0  0  0  0
   -1.0848  -14.6618    1.9820 C   0  0  0  0  0  0  0  0  0  0  0  0
    1.5506  -14.6330    3.0715 C   0  0  0  0  0  0  0  0  0  0  0  0
    0.9241  -15.9129    3.2965 C   0  0  0  0  0  0  0  0  0  0  0  0
   -0.2548  -15.9970    2.3311 C   0  0  0  0  0  0  0  0  0  0  0  0
   -2.6840  -12.3749    2.3232 C   0  0  0  0  0  0  0  0  0  0  0  0
   -3.5490  -11.2766    2.5896 C   0  0  0  0  0  0  0  0  0  0  0  0
   -3.5080  -10.1776    2.3990 C   0  0  0  0  0  0  0  0  0  0  0  0
  1  2  1  0
  1  3  1  0
  3  4  1  0
  4  5  1  0
  5  6  2  0
  5  7  1  0
  2  8  2  0
  2  9  1  0
 10  7  1  1
 10 11  1  0
 11 12  1  0
 11 13  1  6
 10 14  1  0
 14 15  1  0
 13 16  1  0
 15 16  1  0
 12 17  2  3
 17 18  1  0
 18 19  2  0
M  END

$$$$
No_3621-/export/home/yangzhenyu/potential_scad_32_flow//YTHDC2/2024-12-06-03-22-00/
     RDKit          3D

 21 23  0  0  0  0  0  0  0  0999 V2000
    1.1787   -8.0297    3.5154 C   0  0  0  0  0  0  0  0  0  0  0  0
    1.1048   -9.2215    3.2892 N   0  0  0  0  0  0  0  0  0  0  0  0
    1.0346   -9.7785    2.1176 C   0  0  0  0  0  0  0  0  0  0  0  0
    1.2597   -9.0826    1.0431 C   0  0  0  0  0  0  0  0  0  0  0  0
    1.5530   -7.7656    1.0977 C   0  0  0  0  0  0  0  0  0  0  0  0
    1.5300   -7.1323    2.3379 C   0  0  0  0  0  0  0  0  0  0  0  0
    0.8153  -11.3028    2.0487 C   0  0  0  0  0  0  0  0  0  0  0  0
   -0.2971  -11.6409    1.5140 C   0  0  0  0  0  0  0  0  0  0  0  0
   -0.3873  -13.0600    1.2191 C   0  0  0  0  0  0  0  0  0  0  0  0
    0.6294  -13.8949    1.7248 C   0  0  0  0  0  0  0  0  0  0  0  0
    1.6934  -13.4563    2.3797 C   0  0  0  0  0  0  0  0  0  0  0  0
    1.8094  -12.0966    2.6412 C   0  0  0  0  0  0  0  0  0  0  0  0
    0.4650  -15.5230    1.5621 C   0  0  0  0  0  0  0  0  0  0  0  0
   -0.0525  -16.0943    2.4132 C   0  0  0  0  0  0  0  0  0  0  0  0
    0.0541  -17.6031    2.3546 C   0  0  0  0  0  0  0  0  0  0  0  0
    0.8869  -18.2076    1.6833 C   0  0  0  0  0  0  0  0  0  0  0  0
    1.6820  -17.3925    0.8352 C   0  0  0  0  0  0  0  0  0  0  0  0
    1.5933  -16.0606    0.8468 C   0  0  0  0  0  0  0  0  0  0  0  0
    1.3205   -9.5923   -0.3199 C   0  0  0  0  0  0  0  0  0  0  0  0
    2.1647   -9.4437   -1.0480 O   0  0  0  0  0  0  0  0  0  0  0  0
    0.1292   -9.8798   -0.8722 N   0  0  0  0  0  0  0  0  0  0  0  0
  3  7  1  0
 10 13  1  0
  4 19  1  0
 19 20  2  0
 19 21  1  0
  1  2  2  0
  2  3  1  0
  3  4  2  0
  4  5  1  0
  5  6  2  0
  1  6  1  0
 13 14  2  0
 14 15  1  0
 15 16  2  0
 16 17  1  0
 17 18  2  0
 13 18  1  0
  7  8  2  0
  8  9  1  0
  9 10  2  0
 10 11  1  0
 11 12  2  0
  7 12  1  0
M  END

$$$$
No_3622-/export/home/yangzhenyu/potential_scad_32_flow//YTHDC2/2024-12-06-03-22-00/
     RDKit          3D

 19 20  0  0  1  0  0  0  0  0999 V2000
    1.1787   -8.0297    3.5154 N   0  0  0  0  0  0  0  0  0  0  0  0
    0.8669   -7.0905    2.8589 C   0  0  0  0  0  0  0  0  0  0  0  0
    1.0447   -7.3244    1.4123 C   0  0  0  0  0  0  0  0  0  0  0  0
    1.3746   -8.4389    1.0864 C   0  0  1  0  0  0  0  0  0  0  0  0
    1.8185   -8.7923   -0.3129 C   0  0  0  0  0  0  0  0  0  0  0  0
    1.7714   -9.1001    2.3120 C   0  0  2  0  0  0  0  0  0  0  0  0
    2.1345  -10.3511    2.5694 C   0  0  0  0  0  0  0  0  0  0  0  0
    1.0023   -9.6811   -0.6103 O   0  0  0  0  0  0  0  0  0  0  0  0
    2.9225   -8.6633   -0.8729 O   0  0  0  0  0  0  0  0  0  0  0  0
    2.0794  -10.9308    3.7405 C   0  0  0  0  0  0  0  0  0  0  0  0
    1.4754  -12.1083    3.9583 C   0  0  0  0  0  0  0  0  0  0  0  0
    0.1544  -11.9525    3.1181 N   0  0  0  0  0  0  0  0  0  0  0  0
   -0.1966  -13.0325    2.4880 C   0  0  0  0  0  0  0  0  0  0  0  0
   -1.3472  -12.9817    1.7877 C   0  0  0  0  0  0  0  0  0  0  0  0
    0.1858  -14.2599    2.7837 C   0  0  0  0  0  0  0  0  0  0  0  0
   -0.3947  -15.3934    2.2709 C   0  0  0  0  0  0  0  0  0  0  0  0
   -1.4672  -15.1974    1.4942 C   0  0  0  0  0  0  0  0  0  0  0  0
   -1.9134  -13.9847    1.1431 C   0  0  0  0  0  0  0  0  0  0  0  0
    0.1147  -16.7206    2.6161 C   0  0  0  0  0  0  0  0  0  0  0  0
  1  2  1  0
  2  3  2  0
  3  4  1  0
  4  5  1  6
  1  6  1  0
  4  6  1  0
  6  7  1  1
  5  8  2  0
  5  9  1  0
  7 10  1  0
 10 11  1  0
 11 12  1  0
 12 13  1  0
 16 19  1  0
 13 14  2  0
 14 18  1  0
 17 18  2  0
 16 17  1  0
 15 16  2  0
 13 15  1  0
M  END

$$$$
No_3623-/export/home/yangzhenyu/potential_scad_32_flow//YTHDC2/2024-12-06-03-22-00/
     RDKit          3D

 19 21  0  0  0  0  0  0  0  0999 V2000
    1.1787   -8.0297    3.5154 C   0  0  0  0  0  0  0  0  0  0  0  0
    1.1048   -9.2215    3.2892 C   0  0  0  0  0  0  0  0  0  0  0  0
    1.4683  -10.2314    4.1915 N   0  0  0  0  0  0  0  0  0  0  0  0
    0.9665   -7.0192    2.6137 C   0  0  0  0  0  0  0  0  0  0  0  0
    0.6665   -7.3684    1.3640 C   0  0  0  0  0  0  0  0  0  0  0  0
    0.4631   -8.6445    1.0286 C   0  0  0  0  0  0  0  0  0  0  0  0
    0.7568   -9.6540    1.9106 C   0  0  0  0  0  0  0  0  0  0  0  0
    1.2371  -11.5557    3.8470 C   0  0  0  0  0  0  0  0  0  0  0  0
    0.9180  -11.9318    2.6271 C   0  0  0  0  0  0  0  0  0  0  0  0
    0.6629  -10.9590    1.6925 C   0  0  0  0  0  0  0  0  0  0  0  0
    0.3916   -9.0221   -0.3573 C   0  0  0  0  0  0  0  0  0  0  0  0
    0.8807  -13.3298    2.3404 C   0  0  0  0  0  0  0  0  0  0  0  0
   -0.3128  -13.9222    2.1222 C   0  0  0  0  0  0  0  0  0  0  0  0
   -0.8838   -9.5782   -0.7976 O   0  0  0  0  0  0  0  0  0  0  0  0
    1.1532   -8.6295   -1.3063 O   0  0  0  0  0  0  0  0  0  0  0  0
   -0.2883  -15.3785    2.2663 C   0  0  0  0  0  0  0  0  0  0  0  0
    0.9425  -16.1037    2.2628 C   0  0  0  0  0  0  0  0  0  0  0  0
    2.1479  -15.4746    2.4407 C   0  0  0  0  0  0  0  0  0  0  0  0
    2.1746  -14.0688    2.4675 C   0  0  0  0  0  0  0  0  0  0  0  0
  6 11  1  0
  9 12  1  0
 11 14  2  0
 11 15  1  0
  1  2  2  0
  6  7  2  0
  5  6  1  0
  4  5  2  0
  1  4  1  0
 12 13  2  0
 13 16  1  0
 16 17  2  0
 17 18  1  0
 18 19  2  0
 12 19  1  0
  2  3  1  0
  3  8  2  0
  8  9  1  0
  9 10  2  0
  7 10  1  0
  2  7  1  0
M  END

$$$$
No_3624-/export/home/yangzhenyu/potential_scad_32_flow//YTHDC2/2024-12-06-03-22-00/
     RDKit          3D

 18 19  0  0  1  0  0  0  0  0999 V2000
    1.1787   -8.0297    3.5154 C   0  0  0  0  0  0  0  0  0  0  0  0
    1.1048   -9.2215    3.2892 C   0  0  0  0  0  0  0  0  0  0  0  0
    1.2339   -9.7611    2.0189 C   0  0  0  0  0  0  0  0  0  0  0  0
    1.3583   -9.0036    0.9764 C   0  0  0  0  0  0  0  0  0  0  0  0
    1.5996   -7.6362    1.1311 C   0  0  0  0  0  0  0  0  0  0  0  0
    1.4830   -7.0928    2.3626 C   0  0  0  0  0  0  0  0  0  0  0  0
    1.1008  -11.2372    1.8542 C   0  0  1  0  0  0  0  0  0  0  0  0
    0.4812  -11.6084    0.6459 C   0  0  0  0  0  0  0  0  0  0  0  0
   -0.3691  -10.9312    0.0124 C   0  0  0  0  0  0  0  0  0  0  0  0
   -1.0102  -11.3797   -1.1447 C   0  0  0  0  0  0  0  0  0  0  0  0
   -1.7633  -10.5197   -1.9537 C   0  0  0  0  0  0  0  0  0  0  0  0
   -1.9771   -9.1740   -1.3689 C   0  0  0  0  0  0  0  0  0  0  0  0
   -1.3247   -8.7110   -0.3076 C   0  0  0  0  0  0  0  0  0  0  0  0
   -0.5493   -9.5562    0.4453 C   0  0  0  0  0  0  0  0  0  0  0  0
    1.4672   -5.6529    2.6249 C   0  0  0  0  0  0  0  0  0  0  0  0
    1.9723  -12.0667    2.4956 C   0  0  0  0  0  0  0  0  0  0  0  0
    1.8470  -13.4048    2.2866 C   0  0  0  0  0  0  0  0  0  0  0  0
    0.6006  -14.0312    2.3563 C   0  0  0  0  0  0  0  0  0  0  0  0
  3  7  1  0
  7  8  1  6
  6 15  1  0
  7 16  1  0
 16 17  2  3
 17 18  1  0
  8  9  1  0
  1  2  2  0
  2  3  1  0
  3  4  2  0
  4  5  1  0
  5  6  2  0
  1  6  1  0
  9 10  2  0
 10 11  1  0
 11 12  2  0
 12 13  1  0
 13 14  2  0
  9 14  1  0
M  END

$$$$
No_3625-/export/home/yangzhenyu/potential_scad_32_flow//YTHDC2/2024-12-06-03-22-00/
     RDKit          3D

 17 19  0  0  0  0  0  0  0  0999 V2000
    1.1787   -8.0297    3.5154 N   0  0  0  0  0  0  0  0  0  0  0  0
    1.0818   -9.0751    3.2053 C   0  0  0  0  0  0  0  0  0  0  0  0
    1.5216  -10.1164    3.9747 C   0  0  0  0  0  0  0  0  0  0  0  0
    1.4420  -11.4363    3.6461 C   0  0  0  0  0  0  0  0  0  0  0  0
    0.5969  -11.7648    2.6785 C   0  0  0  0  0  0  0  0  0  0  0  0
    0.0096  -10.8332    1.9506 C   0  0  0  0  0  0  0  0  0  0  0  0
    0.3359   -9.5186    2.1388 C   0  0  0  0  0  0  0  0  0  0  0  0
    1.1574   -6.9183    2.6875 C   0  0  0  0  0  0  0  0  0  0  0  0
    0.6585   -7.2272    1.4255 N   0  0  0  0  0  0  0  0  0  0  0  0
    0.2295   -8.4509    1.1163 C   0  0  0  0  0  0  0  0  0  0  0  0
   -0.3809   -8.6252   -0.0013 C   0  0  0  0  0  0  0  0  0  0  0  0
   -1.7240   -8.7623   -0.1754 C   0  0  0  0  0  0  0  0  0  0  0  0
   -2.2872   -8.9549   -1.5364 C   0  0  0  0  0  0  0  0  0  0  0  0
   -1.3502   -9.1677   -2.6452 C   0  0  0  0  0  0  0  0  0  0  0  0
   -0.0532   -9.0422   -2.4594 C   0  0  0  0  0  0  0  0  0  0  0  0
    0.5374   -8.9088   -1.1917 C   0  0  0  0  0  0  0  0  0  0  0  0
    0.3493  -13.1705    2.3850 C   0  0  0  0  0  0  0  0  0  0  0  0
 10 11  1  0
  5 17  1  0
 11 12  2  0
 12 13  1  0
 13 14  2  0
 14 15  1  0
 15 16  2  0
 11 16  1  0
  2  3  1  0
  3  4  2  0
  4  5  1  0
  5  6  2  0
  6  7  1  0
  1  2  2  0
  2  7  1  0
  7 10  2  0
  9 10  1  0
  8  9  2  0
  1  8  1  0
M  END

$$$$
No_3626-/export/home/yangzhenyu/potential_scad_32_flow//YTHDC2/2024-12-06-03-22-00/
     RDKit          3D

 18 18  0  0  1  0  0  0  0  0999 V2000
    1.1787   -8.0297    3.5154 C   0  0  0  0  0  0  0  0  0  0  0  0
    1.1048   -9.2215    3.2892 C   0  0  0  0  0  0  0  0  0  0  0  0
    1.3627  -10.1721    4.3044 C   0  0  0  0  0  0  0  0  0  0  0  0
    1.7354  -11.4730    3.9023 C   0  0  0  0  0  0  0  0  0  0  0  0
    1.8080  -11.8127    2.7216 C   0  0  0  0  0  0  0  0  0  0  0  0
    1.5854  -11.0021    1.7249 C   0  0  0  0  0  0  0  0  0  0  0  0
    1.3573   -9.7389    1.9287 C   0  0  0  0  0  0  0  0  0  0  0  0
    1.2865   -8.8078    0.9161 C   0  0  0  0  0  0  0  0  0  0  0  0
    1.6845   -9.1638   -0.2896 C   0  0  0  0  0  0  0  0  0  0  0  0
    2.0771  -13.2284    2.3629 O   0  0  0  0  0  0  0  0  0  0  0  0
    1.6800   -8.1274   -1.3872 C   0  0  0  0  0  0  0  0  0  0  0  0
    0.1529   -7.2056    3.2294 O   0  0  0  0  0  0  0  0  0  0  0  0
    1.2516  -14.1790    1.9549 C   0  0  0  0  0  0  0  0  0  0  0  0
    1.7047  -15.3092    1.9149 C   0  0  2  0  0  0  0  0  0  0  0  0
    2.9889  -15.6549    2.2686 C   0  0  0  0  0  0  0  0  0  0  0  0
    1.3522  -16.0335    0.7255 C   0  0  0  0  0  0  0  0  0  0  0  0
   -0.0108  -16.3700    0.6198 C   0  0  0  0  0  0  0  0  0  0  0  0
   -0.7493  -15.7393   -0.2872 C   0  0  0  0  0  0  0  0  0  0  0  0
  1  2  1  0
  7  8  1  0
  8  9  2  3
  5 10  1  0
  9 11  1  0
  1 12  1  0
 10 13  1  0
 13 14  1  0
 14 15  1  6
 14 16  1  0
 16 17  1  0
 17 18  1  0
  2  3  2  0
  3  4  1  0
  4  5  2  0
  5  6  1  0
  6  7  2  0
  2  7  1  0
M  END

$$$$
No_3627-/export/home/yangzhenyu/potential_scad_32_flow//YTHDC2/2024-12-06-03-22-00/
     RDKit          3D

 18 19  0  0  0  0  0  0  0  0999 V2000
    1.1787   -8.0297    3.5154 C   0  0  0  0  0  0  0  0  0  0  0  0
    1.1048   -9.2215    3.2892 C   0  0  0  0  0  0  0  0  0  0  0  0
    1.2339   -9.7611    2.0189 C   0  0  0  0  0  0  0  0  0  0  0  0
    1.3583   -9.0036    0.9764 C   0  0  0  0  0  0  0  0  0  0  0  0
    1.5996   -7.6362    1.1311 C   0  0  0  0  0  0  0  0  0  0  0  0
    1.4830   -7.0928    2.3626 C   0  0  0  0  0  0  0  0  0  0  0  0
    1.1008  -11.2372    1.8542 C   0  0  0  0  0  0  0  0  0  0  0  0
    0.5178  -11.9759    2.3445 C   0  0  0  0  0  0  0  0  0  0  0  0
    0.4575  -13.3705    2.1281 C   0  0  0  0  0  0  0  0  0  0  0  0
    1.3993  -14.2795    2.9783 C   0  0  0  0  0  0  0  0  0  0  0  0
    1.3982  -15.5837    2.7718 N   0  0  0  0  0  0  0  0  0  0  0  0
    0.4571  -16.3078    3.0010 C   0  0  0  0  0  0  0  0  0  0  0  0
    1.5699   -5.6502    2.6418 C   0  0  0  0  0  0  0  0  0  0  0  0
    0.7115  -17.6695    3.2619 C   0  0  0  0  0  0  0  0  0  0  0  0
    0.0505  -18.4998    3.9489 C   0  0  0  0  0  0  0  0  0  0  0  0
   -1.2402  -18.1398    4.3286 C   0  0  0  0  0  0  0  0  0  0  0  0
   -1.6485  -16.8249    4.1300 C   0  0  0  0  0  0  0  0  0  0  0  0
   -0.8318  -15.9349    3.5010 C   0  0  0  0  0  0  0  0  0  0  0  0
  3  7  1  0
  7  8  2  3
  8  9  1  0
  9 10  1  0
 10 11  1  0
 11 12  1  0
  6 13  1  0
 12 14  2  0
 14 15  1  0
 15 16  2  0
 16 17  1  0
 17 18  2  0
 12 18  1  0
  1  2  2  0
  2  3  1  0
  3  4  2  0
  4  5  1  0
  5  6  2  0
  1  6  1  0
M  END

$$$$
No_3628-/export/home/yangzhenyu/potential_scad_32_flow//YTHDC2/2024-12-06-03-22-00/
     RDKit          3D

 21 22  0  0  1  0  0  0  0  0999 V2000
    1.1787   -8.0297    3.5154 C   0  0  0  0  0  0  0  0  0  0  0  0
    1.1048   -9.2215    3.2892 C   0  0  0  0  0  0  0  0  0  0  0  0
    1.2339   -9.7611    2.0189 C   0  0  0  0  0  0  0  0  0  0  0  0
    1.3583   -9.0036    0.9764 C   0  0  0  0  0  0  0  0  0  0  0  0
    1.5996   -7.6362    1.1311 C   0  0  0  0  0  0  0  0  0  0  0  0
    1.4830   -7.0928    2.3626 C   0  0  0  0  0  0  0  0  0  0  0  0
    1.3121   -5.7497    2.5440 C   0  0  0  0  0  0  0  0  0  0  0  0
    1.1998  -11.2296    1.8484 C   0  0  0  0  0  0  0  0  0  0  0  0
    0.5667  -11.9521    2.1899 C   0  0  0  0  0  0  0  0  0  0  0  0
    0.5480  -13.3850    1.9692 C   0  0  1  0  0  0  0  0  0  0  0  0
    1.7268  -14.0955    1.9058 C   0  0  0  0  0  0  0  0  0  0  0  0
    1.9231  -15.3287    2.1479 C   0  0  0  0  0  0  0  0  0  0  0  0
    0.9117  -16.1194    2.4031 C   0  0  2  0  0  0  0  0  0  0  0  0
   -0.3874  -15.5498    2.5645 C   0  0  0  0  0  0  0  0  0  0  0  0
   -0.5368  -14.2412    2.3806 C   0  0  0  0  0  0  0  0  0  0  0  0
    1.7761   -5.1377    3.6679 O   0  0  0  0  0  0  0  0  0  0  0  0
    1.3015   -4.9556    1.4210 O   0  0  0  0  0  0  0  0  0  0  0  0
   -1.7246  -13.7490    2.6868 O   0  0  0  0  0  0  0  0  0  0  0  0
    1.0643  -17.5357    2.7304 Cl  0  0  0  0  0  0  0  0  0  0  0  0
    1.6314   -9.4590   -0.3131 C   0  0  0  0  0  0  0  0  0  0  0  0
    1.5616   -9.0145   -1.2857 O   0  0  0  0  0  0  0  0  0  0  0  0
  6  7  1  0
  3  8  1  0
  8  9  2  3
  9 10  1  0
 10 11  1  1
 12 13  1  0
 10 15  1  0
 14 15  1  0
  7 16  1  0
  7 17  2  0
 15 18  2  0
 13 19  1  1
  4 20  1  0
 20 21  2  0
 11 12  1  0
 13 14  1  0
  1  2  2  0
  2  3  1  0
  3  4  2  0
  4  5  1  0
  5  6  2  0
  1  6  1  0
M  END

$$$$
No_3629-/export/home/yangzhenyu/potential_scad_32_flow//YTHDC2/2024-12-06-03-22-00/
     RDKit          3D

 17 18  0  0  0  0  0  0  0  0999 V2000
    1.1787   -8.0297    3.5154 C   0  0  0  0  0  0  0  0  0  0  0  0
    1.1048   -9.2215    3.2892 C   0  0  0  0  0  0  0  0  0  0  0  0
    1.2339   -9.7611    2.0189 C   0  0  0  0  0  0  0  0  0  0  0  0
    1.4306   -8.9466    1.1170 C   0  0  0  0  0  0  0  0  0  0  0  0
    1.6532   -7.5949    1.1786 C   0  0  0  0  0  0  0  0  0  0  0  0
    1.4973   -7.0739    2.4258 C   0  0  0  0  0  0  0  0  0  0  0  0
    1.4438   -5.6890    2.7316 C   0  0  0  0  0  0  0  0  0  0  0  0
    1.2541  -11.1952    1.8085 C   0  0  0  0  0  0  0  0  0  0  0  0
    0.4188  -11.8936    1.9052 C   0  0  0  0  0  0  0  0  0  0  0  0
    0.3684  -13.3025    1.6006 N   0  0  0  0  0  0  0  0  0  0  0  0
   -0.6625  -13.9205    1.3939 C   0  0  0  0  0  0  0  0  0  0  0  0
   -1.8912  -13.2153    1.2648 C   0  0  0  0  0  0  0  0  0  0  0  0
   -2.0397  -11.9651    1.3981 C   0  0  0  0  0  0  0  0  0  0  0  0
   -0.8449  -11.1774    1.7640 C   0  0  0  0  0  0  0  0  0  0  0  0
   -0.4932  -15.2465    1.2130 C   0  0  0  0  0  0  0  0  0  0  0  0
   -1.0318  -15.8533    0.2382 C   0  0  0  0  0  0  0  0  0  0  0  0
    0.0805  -16.0219    2.3146 C   0  0  0  0  0  0  0  0  0  0  0  0
  6  7  1  0
  3  8  1  0
 11 15  1  0
 15 16  2  0
 15 17  1  0
  8  9  1  0
  1  2  2  0
  2  3  1  0
  3  4  2  0
  4  5  1  0
  5  6  2  0
  1  6  1  0
  9 10  2  0
 10 11  1  0
 11 12  2  0
 12 13  1  0
 13 14  2  0
  9 14  1  0
M  END

$$$$
No_3630-/export/home/yangzhenyu/potential_scad_32_flow//YTHDC2/2024-12-06-03-22-00/
     RDKit          3D

 16 17  0  0  0  0  0  0  0  0999 V2000
    1.1787   -8.0297    3.5154 C   0  0  0  0  0  0  0  0  0  0  0  0
    1.1048   -9.2215    3.2892 C   0  0  0  0  0  0  0  0  0  0  0  0
    1.3627  -10.1721    4.3044 C   0  0  0  0  0  0  0  0  0  0  0  0
    1.0682  -11.5187    4.0618 C   0  0  0  0  0  0  0  0  0  0  0  0
    0.6332  -11.9655    2.9682 C   0  0  0  0  0  0  0  0  0  0  0  0
    0.4776  -11.1308    1.9203 C   0  0  0  0  0  0  0  0  0  0  0  0
    0.7470   -9.8274    2.0368 C   0  0  0  0  0  0  0  0  0  0  0  0
    1.0387   -7.0301    2.5175 C   0  0  0  0  0  0  0  0  0  0  0  0
    0.9130   -7.5288    1.2013 C   0  0  0  0  0  0  0  0  0  0  0  0
    0.7893   -8.7979    0.9542 C   0  0  0  0  0  0  0  0  0  0  0  0
    1.3508   -9.2321   -0.2427 C   0  0  0  0  0  0  0  0  0  0  0  0
    0.8015   -8.9923   -1.3673 O   0  0  0  0  0  0  0  0  0  0  0  0
    2.5719   -9.7285   -0.3981 O   0  0  0  0  0  0  0  0  0  0  0  0
    0.4985  -13.3749    2.7162 C   0  0  0  0  0  0  0  0  0  0  0  0
    0.8847  -14.0306    1.7240 C   0  0  0  0  0  0  0  0  0  0  0  0
    1.4142  -15.3110    1.8452 C   0  0  0  0  0  0  0  0  0  0  0  0
 10 11  1  0
 11 12  2  0
 11 13  1  0
  5 14  1  0
 14 15  1  0
 15 16  2  0
  2  3  1  0
  3  4  2  0
  4  5  1  0
  5  6  2  0
  6  7  1  0
  1  2  2  0
  2  7  1  0
  7 10  2  0
  9 10  1  0
  8  9  2  0
  1  8  1  0
M  END

$$$$
No_3631-/export/home/yangzhenyu/potential_scad_32_flow//YTHDC2/2024-12-06-03-22-00/
     RDKit          3D

 19 20  0  0  0  0  0  0  0  0999 V2000
    1.1787   -8.0297    3.5154 C   0  0  0  0  0  0  0  0  0  0  0  0
    1.0491   -6.8434    2.9820 C   0  0  0  0  0  0  0  0  0  0  0  0
    0.9905   -9.0774    2.6527 C   0  0  0  0  0  0  0  0  0  0  0  0
    0.7897   -8.9519    1.3691 C   0  0  0  0  0  0  0  0  0  0  0  0
    0.7018   -7.7198    0.7892 C   0  0  0  0  0  0  0  0  0  0  0  0
    0.8918   -6.5957    1.6117 C   0  0  0  0  0  0  0  0  0  0  0  0
    1.0600  -10.5680    3.3321 C   0  0  0  0  0  0  0  0  0  0  0  0
    1.1634  -11.6086    2.5010 C   0  0  0  0  0  0  0  0  0  0  0  0
    1.7807  -11.7854    1.6189 C   0  0  0  0  0  0  0  0  0  0  0  0
    1.7461  -12.9239    0.7953 C   0  0  0  0  0  0  0  0  0  0  0  0
    0.9551  -13.9019    1.1357 C   0  0  0  0  0  0  0  0  0  0  0  0
    0.1378  -13.7885    2.1852 C   0  0  0  0  0  0  0  0  0  0  0  0
    0.2012  -12.6078    2.9354 C   0  0  0  0  0  0  0  0  0  0  0  0
    1.2547  -10.5551    4.6914 O   0  0  0  0  0  0  0  0  0  0  0  0
    0.7696   -5.2918    1.1396 O   0  0  0  0  0  0  0  0  0  0  0  0
   -0.6400  -14.7763    2.6813 C   0  0  0  0  0  0  0  0  0  0  0  0
   -0.6291  -15.9786    2.1326 C   0  0  0  0  0  0  0  0  0  0  0  0
   -0.5840  -16.9850    2.4369 C   0  0  0  0  0  0  0  0  0  0  0  0
   -0.4821  -17.4797    3.8120 C   0  0  0  0  0  0  0  0  0  0  0  0
  1  2  1  0
  3  4  1  0
  2  6  1  0
  5  6  1  0
  3  7  1  0
  7  8  1  0
  7 14  2  0
  6 15  2  0
 12 16  1  0
 16 17  2  3
 17 18  1  0
 18 19  2  0
  1  3  1  0
  4  5  1  0
  8  9  2  0
  9 10  1  0
 10 11  2  0
 11 12  1  0
 12 13  2  0
  8 13  1  0
M  END

$$$$
No_3632-/export/home/yangzhenyu/potential_scad_32_flow//YTHDC2/2024-12-06-03-22-00/
     RDKit          3D

 12 13  0  0  0  0  0  0  0  0999 V2000
    1.1787   -8.0297    3.5154 C   0  0  0  0  0  0  0  0  0  0  0  0
    1.0491   -6.8434    2.9820 C   0  0  0  0  0  0  0  0  0  0  0  0
    0.0950   -8.8404    3.2292 C   0  0  0  0  0  0  0  0  0  0  0  0
   -0.9173   -8.4596    2.5152 C   0  0  0  0  0  0  0  0  0  0  0  0
   -1.0331   -7.2162    2.0653 C   0  0  0  0  0  0  0  0  0  0  0  0
   -0.0105   -6.3168    2.3081 C   0  0  0  0  0  0  0  0  0  0  0  0
    0.1465  -10.2446    3.6981 C   0  0  0  0  0  0  0  0  0  0  0  0
   -1.0336  -10.8619    3.9439 C   0  0  0  0  0  0  0  0  0  0  0  0
   -2.1702  -10.4673    3.2991 C   0  0  0  0  0  0  0  0  0  0  0  0
   -2.1358   -9.2084    2.5791 C   0  0  0  0  0  0  0  0  0  0  0  0
   -0.0407   -4.9560    1.8452 N   0  0  0  0  0  0  0  0  0  0  0  0
    0.8321   -4.0495    2.1683 O   0  0  0  0  0  0  0  0  0  0  0  0
  6 11  1  0
 11 12  2  0
  4 10  2  0
  9 10  1  0
  8  9  2  0
  7  8  1  0
  3  7  2  0
  1  2  2  0
  2  6  1  0
  5  6  2  0
  4  5  1  0
  3  4  1  0
  1  3  1  0
M  END

$$$$
No_3633-/export/home/yangzhenyu/potential_scad_32_flow//YTHDC2/2024-12-06-03-22-00/
     RDKit          3D

 18 18  0  0  1  0  0  0  0  0999 V2000
    1.1787   -8.0297    3.5154 C   0  0  0  0  0  0  0  0  0  0  0  0
    1.1048   -9.2215    3.2892 Cl  0  0  0  0  0  0  0  0  0  0  0  0
    2.0534   -7.0960    2.7571 C   0  0  0  0  0  0  0  0  0  0  0  0
    1.4323   -5.7384    2.6883 C   0  0  0  0  0  0  0  0  0  0  0  0
    0.4051   -5.3197    3.4554 C   0  0  0  0  0  0  0  0  0  0  0  0
   -0.3950   -6.1933    3.8351 C   0  0  0  0  0  0  0  0  0  0  0  0
   -0.1470   -7.6083    3.8087 C   0  0  0  0  0  0  0  0  0  0  0  0
    0.0377   -3.9608    3.2748 C   0  0  0  0  0  0  0  0  0  0  0  0
    1.0019   -3.0863    3.8061 C   0  0  0  0  0  0  0  0  0  0  0  0
    1.1927   -1.9715    2.8679 C   0  0  0  0  0  0  0  0  0  0  0  0
    0.8069   -2.3001    1.5075 N   0  0  0  0  0  0  0  0  0  0  0  0
    0.9295   -1.3990    0.5521 C   0  0  2  0  0  0  0  0  0  0  0  0
    0.7474   -0.1492    0.7039 C   0  0  0  0  0  0  0  0  0  0  0  0
    0.3155   -1.8756   -0.8202 C   0  0  0  0  0  0  0  0  0  0  0  0
   -0.5342   -2.9884   -0.6237 C   0  0  0  0  0  0  0  0  0  0  0  0
   -1.8318   -2.7015   -0.9173 C   0  0  0  0  0  0  0  0  0  0  0  0
   -2.0897   -1.6578   -1.7532 O   0  0  0  0  0  0  0  0  0  0  0  0
   -2.7400   -3.0453    0.0206 O   0  0  0  0  0  0  0  0  0  0  0  0
  1  2  1  0
  5  8  1  0
  8  9  1  0
  9 10  1  0
 10 11  1  0
 11 12  1  0
 12 13  1  1
 12 14  1  0
 14 15  1  0
 15 16  1  0
 16 17  2  0
 16 18  1  0
  1  3  2  0
  3  4  1  0
  4  5  2  0
  5  6  1  0
  6  7  2  0
  1  7  1  0
M  END

$$$$
No_3634-/export/home/yangzhenyu/potential_scad_32_flow//YTHDC2/2024-12-06-03-22-00/
     RDKit          3D

 19 20  0  0  1  0  0  0  0  0999 V2000
    1.1787   -8.0297    3.5154 C   0  0  0  0  0  0  0  0  0  0  0  0
    1.1048   -9.2215    3.2892 C   0  0  0  0  0  0  0  0  0  0  0  0
    1.2339   -9.7611    2.0189 C   0  0  0  0  0  0  0  0  0  0  0  0
    1.3583   -9.0036    0.9764 C   0  0  0  0  0  0  0  0  0  0  0  0
    1.5996   -7.6362    1.1311 C   0  0  0  0  0  0  0  0  0  0  0  0
    1.4830   -7.0928    2.3626 C   0  0  0  0  0  0  0  0  0  0  0  0
    1.1008  -11.2372    1.8542 N   0  0  0  0  0  0  0  0  0  0  0  0
    0.3588  -11.6251    0.7621 C   0  0  0  0  0  0  0  0  0  0  0  0
    0.2683  -12.9677    0.6083 C   0  0  0  0  0  0  0  0  0  0  0  0
    0.9528  -13.7891    1.4799 C   0  0  2  0  0  0  0  0  0  0  0  0
    1.7924  -13.2703    2.5334 C   0  0  0  0  0  0  0  0  0  0  0  0
    1.7646  -11.9620    2.7293 C   0  0  0  0  0  0  0  0  0  0  0  0
    1.5216   -5.6644    2.6942 F   0  0  0  0  0  0  0  0  0  0  0  0
    2.3148  -14.1256    3.4063 O   0  0  0  0  0  0  0  0  0  0  0  0
    1.5266   -9.3386   -0.3683 O   0  0  0  0  0  0  0  0  0  0  0  0
    1.0174  -15.1499    1.2692 C   0  0  0  0  0  0  0  0  0  0  0  0
    2.0406  -15.8089    1.0313 O   0  0  0  0  0  0  0  0  0  0  0  0
   -0.1249  -15.7878    1.2890 O   0  0  0  0  0  0  0  0  0  0  0  0
    2.5101  -11.4599    3.7379 O   0  0  0  0  0  0  0  0  0  0  0  0
  3  7  1  0
  7  8  1  0
  9 10  1  0
 10 11  1  0
  7 12  1  0
 11 12  1  0
  6 13  1  0
 11 14  2  0
  4 15  1  0
 10 16  1  6
 16 17  2  0
 16 18  1  0
 12 19  2  0
  8  9  1  0
  1  2  2  0
  2  3  1  0
  3  4  2  0
  4  5  1  0
  5  6  2  0
  1  6  1  0
M  END

$$$$
No_3635-/export/home/yangzhenyu/potential_scad_32_flow//YTHDC2/2024-12-06-03-22-00/
     RDKit          3D

 19 19  0  0  1  0  0  0  0  0999 V2000
    1.1787   -8.0297    3.5154 C   0  0  0  0  0  0  0  0  0  0  0  0
    1.0491   -6.8434    2.9820 C   0  0  0  0  0  0  0  0  0  0  0  0
    0.0950   -8.8404    3.2292 C   0  0  0  0  0  0  0  0  0  0  0  0
   -0.9173   -8.4596    2.5152 C   0  0  0  0  0  0  0  0  0  0  0  0
   -0.8043   -7.0775    2.1508 C   0  0  0  0  0  0  0  0  0  0  0  0
    0.0928   -6.2803    2.3573 C   0  0  0  0  0  0  0  0  0  0  0  0
    0.1333  -10.2568    3.6587 S   0  0  0  0  0  0  0  0  0  0  0  0
    0.3325  -11.3054    2.4676 C   0  0  1  0  0  0  0  0  0  0  0  0
    0.7152  -10.9176    1.4450 C   0  0  0  0  0  0  0  0  0  0  0  0
   -0.1107  -10.9734    0.3846 C   0  0  0  0  0  0  0  0  0  0  0  0
   -1.2075  -11.7271    0.2909 C   0  0  0  0  0  0  0  0  0  0  0  0
   -2.0716  -11.8186   -0.7543 C   0  0  0  0  0  0  0  0  0  0  0  0
   -3.1324  -12.5778   -0.6846 C   0  0  0  0  0  0  0  0  0  0  0  0
    0.5954  -12.6706    2.8660 C   0  0  0  0  0  0  0  0  0  0  0  0
    1.2420  -13.4741    1.8786 C   0  0  0  0  0  0  0  0  0  0  0  0
    2.3376  -13.2131    1.4629 C   0  0  0  0  0  0  0  0  0  0  0  0
    0.8929  -10.6281    4.8577 O   0  0  0  0  0  0  0  0  0  0  0  0
   -1.3323  -10.5100    4.1688 O   0  0  0  0  0  0  0  0  0  0  0  0
    0.1333   -4.9727    1.8026 Cl  0  0  0  0  0  0  0  0  0  0  0  0
  3  7  1  0
  7  8  1  0
  8  9  1  0
  9 10  2  3
 10 11  1  0
 11 12  2  3
 12 13  1  0
  8 14  1  1
 14 15  1  0
 15 16  1  0
  7 17  2  0
  7 18  2  0
  6 19  1  0
  1  2  2  0
  2  6  1  0
  5  6  2  0
  4  5  1  0
  3  4  2  0
  1  3  1  0
M  END

$$$$
No_3636-/export/home/yangzhenyu/potential_scad_32_flow//YTHDC2/2024-12-06-03-22-00/
     RDKit          3D

 19 20  0  0  1  0  0  0  0  0999 V2000
    1.1787   -8.0297    3.5154 C   0  0  0  0  0  0  0  0  0  0  0  0
    1.1048   -9.2215    3.2892 C   0  0  0  0  0  0  0  0  0  0  0  0
    1.2339   -9.7611    2.0189 C   0  0  0  0  0  0  0  0  0  0  0  0
    1.3583   -9.0036    0.9764 C   0  0  0  0  0  0  0  0  0  0  0  0
    1.5996   -7.6362    1.1311 C   0  0  0  0  0  0  0  0  0  0  0  0
    1.4830   -7.0928    2.3626 C   0  0  0  0  0  0  0  0  0  0  0  0
    1.1008  -11.2372    1.8542 C   0  0  2  0  0  0  0  0  0  0  0  0
    1.9749  -12.0938    2.2342 C   0  0  0  0  0  0  0  0  0  0  0  0
    1.7533  -13.4231    1.8956 C   0  0  0  0  0  0  0  0  0  0  0  0
    0.5760  -13.4522    1.0640 C   0  0  0  0  0  0  0  0  0  0  0  0
    0.2982  -11.9865    0.9898 C   0  0  1  0  0  0  0  0  0  0  0  0
    1.5399   -5.4280    2.6773 Cl  0  0  0  0  0  0  0  0  0  0  0  0
    2.4346  -14.6999    2.1590 Cl  0  0  0  0  0  0  0  0  0  0  0  0
   -0.8010  -11.4384    0.2513 C   0  0  0  0  0  0  0  0  0  0  0  0
   -1.8312  -10.9349    0.8154 C   0  0  0  0  0  0  0  0  0  0  0  0
   -2.8586  -10.7952    0.5680 N   0  0  0  0  0  0  0  0  0  0  0  0
   -3.8715  -10.3066    1.5067 C   0  0  0  0  0  0  0  0  0  0  0  0
   -4.9968   -9.8428    1.1210 Cl  0  0  0  0  0  0  0  0  0  0  0  0
   -0.6656  -11.5555   -1.1290 O   0  0  0  0  0  0  0  0  0  0  0  0
  7  3  1  6
  7  8  1  0
  8  9  2  0
  9 10  1  0
  7 11  1  0
 10 11  1  0
  6 12  1  0
  9 13  1  0
 11 14  1  1
 14 15  1  0
 15 16  1  0
 16 17  1  0
 17 18  1  0
 14 19  2  0
  1  2  2  0
  2  3  1  0
  3  4  2  0
  4  5  1  0
  5  6  2  0
  1  6  1  0
M  END

$$$$
No_3637-/export/home/yangzhenyu/potential_scad_32_flow//YTHDC2/2024-12-06-03-22-00/
     RDKit          3D

 19 19  0  0  1  0  0  0  0  0999 V2000
    1.1787   -8.0297    3.5154 C   0  0  0  0  0  0  0  0  0  0  0  0
    1.1048   -9.2215    3.2892 C   0  0  0  0  0  0  0  0  0  0  0  0
    1.2339   -9.7611    2.0189 C   0  0  0  0  0  0  0  0  0  0  0  0
    1.3583   -9.0036    0.9764 C   0  0  0  0  0  0  0  0  0  0  0  0
    1.5996   -7.6362    1.1311 C   0  0  0  0  0  0  0  0  0  0  0  0
    1.4830   -7.0928    2.3626 C   0  0  0  0  0  0  0  0  0  0  0  0
    1.1008  -11.2372    1.8542 C   0  0  0  0  0  0  0  0  0  0  0  0
    0.5178  -11.9759    2.3445 C   0  0  0  0  0  0  0  0  0  0  0  0
    0.4575  -13.3705    2.1281 C   0  0  2  0  0  0  0  0  0  0  0  0
   -0.4455  -13.9844    1.5572 C   0  0  0  0  0  0  0  0  0  0  0  0
    1.5167  -14.2109    2.7555 C   0  0  0  0  0  0  0  0  0  0  0  0
    1.6030   -5.4664    2.6877 C   0  0  0  0  0  0  0  0  0  0  0  0
    1.4821  -15.5977    2.6252 C   0  0  0  0  0  0  0  0  0  0  0  0
    2.2540  -16.1639    1.8124 C   0  0  0  0  0  0  0  0  0  0  0  0
    2.2630  -17.5951    1.8852 O   0  0  0  0  0  0  0  0  0  0  0  0
   -1.7811  -13.6544    1.2834 O   0  0  0  0  0  0  0  0  0  0  0  0
   -0.0971  -15.0379    0.5759 O   0  0  0  0  0  0  0  0  0  0  0  0
    3.5385  -15.8514    1.6580 O   0  0  0  0  0  0  0  0  0  0  0  0
    1.7641   -5.0988    3.8004 N   0  0  0  0  0  0  0  0  0  0  0  0
  3  7  1  0
  7  8  2  3
  8  9  1  0
  9 10  1  0
  9 11  1  1
  6 12  1  0
 11 13  1  0
 13 14  1  0
 14 15  1  0
 10 16  2  0
 10 17  1  0
 14 18  2  0
 12 19  1  0
  1  2  2  0
  2  3  1  0
  3  4  2  0
  4  5  1  0
  5  6  2  0
  1  6  1  0
M  END

$$$$
No_3638-/export/home/yangzhenyu/potential_scad_32_flow//YTHDC2/2024-12-06-03-22-00/
     RDKit          3D

 18 19  0  0  0  0  0  0  0  0999 V2000
    1.1787   -8.0297    3.5154 C   0  0  0  0  0  0  0  0  0  0  0  0
    1.0491   -6.8434    2.9820 C   0  0  0  0  0  0  0  0  0  0  0  0
    1.0690   -9.1150    2.7206 C   0  0  0  0  0  0  0  0  0  0  0  0
    0.9689   -6.6391    1.6260 C   0  0  0  0  0  0  0  0  0  0  0  0
    0.9670   -9.0334    1.3824 C   0  0  0  0  0  0  0  0  0  0  0  0
    0.8189   -7.7113    0.8022 C   0  0  0  0  0  0  0  0  0  0  0  0
    1.2114  -10.5217    3.2468 C   0  0  0  0  0  0  0  0  0  0  0  0
    0.2824  -11.3381    3.2295 C   0  0  0  0  0  0  0  0  0  0  0  0
    0.3769  -12.2415    2.3766 C   0  0  0  0  0  0  0  0  0  0  0  0
    1.5588  -12.7511    1.9812 C   0  0  0  0  0  0  0  0  0  0  0  0
    2.7286  -11.9946    2.3564 N   0  0  0  0  0  0  0  0  0  0  0  0
    2.5573  -10.9103    2.8565 C   0  0  0  0  0  0  0  0  0  0  0  0
    1.8078  -14.0777    1.3903 C   0  0  0  0  0  0  0  0  0  0  0  0
    1.1407  -15.1142    1.9808 O   0  0  0  0  0  0  0  0  0  0  0  0
    1.8605  -15.7774    2.9984 C   0  0  0  0  0  0  0  0  0  0  0  0
    2.7053  -16.7285    2.4197 C   0  0  0  0  0  0  0  0  0  0  0  0
    2.1613  -18.0252    2.3002 O   0  0  0  0  0  0  0  0  0  0  0  0
    0.8915   -5.3258    1.0424 O   0  0  0  0  0  0  0  0  0  0  0  0
  3  7  1  0
 10 13  1  0
 13 14  1  0
 14 15  1  0
 15 16  1  0
 16 17  2  0
  4 18  1  0
  1  2  2  0
  2  4  1  0
  4  6  2  0
  5  6  1  0
  3  5  2  0
  1  3  1  0
  7  8  2  0
  8  9  1  0
  9 10  2  0
 10 11  1  0
 11 12  2  0
  7 12  1  0
M  END

$$$$
No_3639-/export/home/yangzhenyu/potential_scad_32_flow//YTHDC2/2024-12-06-03-22-00/
     RDKit          3D

 18 19  0  0  0  0  0  0  0  0999 V2000
    1.1787   -8.0297    3.5154 C   0  0  0  0  0  0  0  0  0  0  0  0
    1.0491   -6.8434    2.9820 C   0  0  0  0  0  0  0  0  0  0  0  0
    0.9905   -9.0774    2.6527 C   0  0  0  0  0  0  0  0  0  0  0  0
    0.7897   -8.9519    1.3691 Cl  0  0  0  0  0  0  0  0  0  0  0  0
    1.8450   -5.6763    3.4666 C   0  0  0  0  0  0  0  0  0  0  0  0
    1.3273  -10.4565    3.3909 C   0  0  0  0  0  0  0  0  0  0  0  0
    1.2554  -11.5895    2.8945 C   0  0  0  0  0  0  0  0  0  0  0  0
    1.8855  -11.9884    1.8843 C   0  0  0  0  0  0  0  0  0  0  0  0
    1.6881  -13.3396    1.4859 C   0  0  0  0  0  0  0  0  0  0  0  0
    0.9485  -14.1699    2.0254 C   0  0  0  0  0  0  0  0  0  0  0  0
    0.2732  -13.8174    3.2092 C   0  0  0  0  0  0  0  0  0  0  0  0
    0.4672  -12.5652    3.6607 C   0  0  0  0  0  0  0  0  0  0  0  0
    1.4994   -4.4590    2.8578 C   0  0  0  0  0  0  0  0  0  0  0  0
    0.4236   -4.5725    1.8821 C   0  0  0  0  0  0  0  0  0  0  0  0
   -0.1312   -5.6202    1.4377 C   0  0  0  0  0  0  0  0  0  0  0  0
    0.1688   -6.7969    1.9544 C   0  0  0  0  0  0  0  0  0  0  0  0
    1.6562  -10.3361    4.7666 O   0  0  0  0  0  0  0  0  0  0  0  0
    0.1870   -3.0264    1.2243 C   0  0  0  0  0  0  0  0  0  0  0  0
  1  2  1  0
  1  3  2  3
  3  4  1  0
  3  6  1  0
  6  7  1  0
  6 17  2  0
 14 18  1  0
  2  5  2  0
  5 13  1  0
 13 14  2  0
 14 15  1  0
 15 16  2  0
  2 16  1  0
  7  8  2  0
  8  9  1  0
  9 10  2  0
 10 11  1  0
 11 12  2  0
  7 12  1  0
M  END

$$$$
No_3640-/export/home/yangzhenyu/potential_scad_32_flow//YTHDC2/2024-12-06-03-22-00/
     RDKit          3D

 18 18  0  0  0  0  0  0  0  0999 V2000
    1.1787   -8.0297    3.5154 C   0  0  0  0  0  0  0  0  0  0  0  0
    1.0491   -6.8434    2.9820 C   0  0  0  0  0  0  0  0  0  0  0  0
    0.2462   -8.9560    3.0873 C   0  0  0  0  0  0  0  0  0  0  0  0
    0.3295   -6.5187    1.9069 C   0  0  0  0  0  0  0  0  0  0  0  0
   -0.5260   -8.7862    2.1368 C   0  0  0  0  0  0  0  0  0  0  0  0
   -0.5458   -7.5614    1.5054 C   0  0  0  0  0  0  0  0  0  0  0  0
    0.3663  -10.3301    3.7373 C   0  0  0  0  0  0  0  0  0  0  0  0
   -0.8414  -11.0073    3.8266 O   0  0  0  0  0  0  0  0  0  0  0  0
    1.3638  -10.7568    4.4392 N   0  0  0  0  0  0  0  0  0  0  0  0
    0.3165   -5.2606    1.3078 C   0  0  0  0  0  0  0  0  0  0  0  0
    2.6748  -10.4919    4.1210 C   0  0  0  0  0  0  0  0  0  0  0  0
    1.2516   -4.4048    1.7797 O   0  0  0  0  0  0  0  0  0  0  0  0
   -0.4097   -4.8749    0.4419 O   0  0  0  0  0  0  0  0  0  0  0  0
    3.4466  -11.0650    5.3881 O   0  0  0  0  0  0  0  0  0  0  0  0
    3.1562  -10.7391    3.0095 O   0  0  0  0  0  0  0  0  0  0  0  0
   -1.3731   -3.8048    0.6541 C   0  0  0  0  0  0  0  0  0  0  0  0
   -0.9335   -2.6677    0.2076 C   0  0  0  0  0  0  0  0  0  0  0  0
   -0.3519   -1.7894    0.9964 C   0  0  0  0  0  0  0  0  0  0  0  0
  3  7  1  0
  7  8  2  0
  7  9  1  0
  4 10  1  0
  9 11  1  0
 10 12  2  0
 10 13  1  0
 11 14  1  0
 11 15  2  0
 13 16  1  0
 16 17  1  0
 17 18  1  0
  1  2  2  0
  2  4  1  0
  4  6  2  0
  5  6  1  0
  3  5  2  0
  1  3  1  0
M  END

$$$$
No_3641-/export/home/yangzhenyu/potential_scad_32_flow//YTHDC2/2024-12-06-03-22-00/
     RDKit          3D

 19 20  0  0  1  0  0  0  0  0999 V2000
    1.1787   -8.0297    3.5154 C   0  0  0  0  0  0  0  0  0  0  0  0
    1.1048   -9.2215    3.2892 C   0  0  0  0  0  0  0  0  0  0  0  0
    1.2339   -9.7611    2.0189 C   0  0  0  0  0  0  0  0  0  0  0  0
    1.3583   -9.0036    0.9764 C   0  0  0  0  0  0  0  0  0  0  0  0
    1.5996   -7.6362    1.1311 C   0  0  0  0  0  0  0  0  0  0  0  0
    1.4830   -7.0928    2.3626 C   0  0  0  0  0  0  0  0  0  0  0  0
    1.5395   -5.7300    2.6182 C   0  0  0  0  0  0  0  0  0  0  0  0
    1.1775  -11.2233    1.8407 C   0  0  0  0  0  0  0  0  0  0  0  0
    0.7252  -11.5870    0.5412 C   0  0  0  0  0  0  0  0  0  0  0  0
    0.5994  -13.0100    0.4511 C   0  0  0  0  0  0  0  0  0  0  0  0
    0.9545  -13.8873    1.4441 C   0  0  2  0  0  0  0  0  0  0  0  0
    1.4784  -13.3975    2.6594 C   0  0  0  0  0  0  0  0  0  0  0  0
    1.5766  -12.0395    2.8884 C   0  0  0  0  0  0  0  0  0  0  0  0
    2.1060  -11.5923    3.9798 O   0  0  0  0  0  0  0  0  0  0  0  0
    1.3177   -4.7937    1.6537 O   0  0  0  0  0  0  0  0  0  0  0  0
    2.1448   -5.1261    3.6787 S   0  0  0  0  0  0  0  0  0  0  0  0
    0.9378  -15.2411    1.2299 O   0  0  0  0  0  0  0  0  0  0  0  0
   -0.1184  -15.8278    0.9617 C   0  0  0  0  0  0  0  0  0  0  0  0
    0.0458   -4.6892    1.2602 C   0  0  0  0  0  0  0  0  0  0  0  0
  6  7  1  0
  3  8  1  0
  8  9  1  0
 10 11  1  0
  8 13  1  0
 12 13  1  0
 13 14  2  0
  7 15  1  0
  7 16  2  0
 11 17  1  6
 17 18  1  0
 15 19  1  0
  9 10  1  0
 11 12  1  0
  1  2  2  0
  2  3  1  0
  3  4  2  0
  4  5  1  0
  5  6  2  0
  1  6  1  0
M  END

$$$$
No_3642-/export/home/yangzhenyu/potential_scad_32_flow//YTHDC2/2024-12-06-03-22-00/
     RDKit          3D

 18 18  0  0  0  0  0  0  0  0999 V2000
    1.1787   -8.0297    3.5154 C   0  0  0  0  0  0  0  0  0  0  0  0
    1.1048   -9.2215    3.2892 C   0  0  0  0  0  0  0  0  0  0  0  0
    1.2339   -9.7611    2.0189 C   0  0  0  0  0  0  0  0  0  0  0  0
    1.3583   -9.0036    0.9764 C   0  0  0  0  0  0  0  0  0  0  0  0
    1.5996   -7.6362    1.1311 C   0  0  0  0  0  0  0  0  0  0  0  0
    1.4830   -7.0928    2.3626 C   0  0  0  0  0  0  0  0  0  0  0  0
    1.5395   -5.7300    2.6182 C   0  0  0  0  0  0  0  0  0  0  0  0
    1.1775  -11.2233    1.8407 N   0  0  0  0  0  0  0  0  0  0  0  0
    0.3493  -11.6528    0.7711 C   0  0  0  0  0  0  0  0  0  0  0  0
   -0.4364  -11.0188    0.1266 O   0  0  0  0  0  0  0  0  0  0  0  0
    0.4161  -13.1078    0.5810 C   0  0  0  0  0  0  0  0  0  0  0  0
    1.3005   -4.8274    1.7294 O   0  0  0  0  0  0  0  0  0  0  0  0
    1.8144   -5.1917    3.8438 O   0  0  0  0  0  0  0  0  0  0  0  0
    0.0426  -13.9078    1.4969 C   0  0  0  0  0  0  0  0  0  0  0  0
   -1.0719  -14.0401    1.8228 C   0  0  0  0  0  0  0  0  0  0  0  0
   -1.8600  -14.8840    1.6431 C   0  0  0  0  0  0  0  0  0  0  0  0
   -1.4132  -16.2004    1.6096 C   0  0  0  0  0  0  0  0  0  0  0  0
    0.0486  -16.3104    1.4176 C   0  0  0  0  0  0  0  0  0  0  0  0
  6  7  1  0
  3  8  1  0
  8  9  1  0
  9 10  2  0
  9 11  1  0
  7 12  2  0
  7 13  1  0
 11 14  1  0
 14 15  1  0
 15 16  2  3
 16 17  1  0
 17 18  2  0
  1  2  2  0
  2  3  1  0
  3  4  2  0
  4  5  1  0
  5  6  2  0
  1  6  1  0
M  END

$$$$
No_3643-/export/home/yangzhenyu/potential_scad_32_flow//YTHDC2/2024-12-06-03-22-00/
     RDKit          3D

 15 16  0  0  1  0  0  0  0  0999 V2000
    1.1787   -8.0297    3.5154 C   0  0  0  0  0  0  0  0  0  0  0  0
    1.1048   -9.2215    3.2892 C   0  0  0  0  0  0  0  0  0  0  0  0
    1.2339   -9.7611    2.0189 C   0  0  0  0  0  0  0  0  0  0  0  0
    1.3583   -9.0036    0.9764 C   0  0  0  0  0  0  0  0  0  0  0  0
    1.5996   -7.6362    1.1311 C   0  0  0  0  0  0  0  0  0  0  0  0
    1.4830   -7.0928    2.3626 C   0  0  0  0  0  0  0  0  0  0  0  0
    1.1171  -11.3311    1.8661 C   0  0  1  0  0  0  0  0  0  0  0  0
    0.5022  -11.6388    0.6531 C   0  0  0  0  0  0  0  0  0  0  0  0
    0.5683  -13.0838    0.5424 C   0  0  0  0  0  0  0  0  0  0  0  0
    1.2665  -13.8887    1.3003 C   0  0  0  0  0  0  0  0  0  0  0  0
    1.9989  -13.3977    2.4029 C   0  0  0  0  0  0  0  0  0  0  0  0
    1.8520  -12.0917    2.7212 C   0  0  0  0  0  0  0  0  0  0  0  0
    2.4204  -11.5469    3.8139 O   0  0  0  0  0  0  0  0  0  0  0  0
    1.5549   -5.6500    2.6308 Cl  0  0  0  0  0  0  0  0  0  0  0  0
    1.5596   -9.4285   -0.3589 O   0  0  0  0  0  0  0  0  0  0  0  0
  7  3  1  6
  7  8  1  0
  9 10  1  0
  7 12  1  0
 11 12  1  0
 12 13  2  0
  6 14  1  0
  4 15  1  0
  8  9  1  0
 10 11  1  0
  1  2  2  0
  2  3  1  0
  3  4  2  0
  4  5  1  0
  5  6  2  0
  1  6  1  0
M  END

$$$$
No_3644-/export/home/yangzhenyu/potential_scad_32_flow//YTHDC2/2024-12-06-03-22-00/
     RDKit          3D

 17 18  0  0  1  0  0  0  0  0999 V2000
    1.1787   -8.0297    3.5154 C   0  0  0  0  0  0  0  0  0  0  0  0
    1.0491   -6.8434    2.9820 C   0  0  0  0  0  0  0  0  0  0  0  0
    0.9905   -9.0774    2.6527 C   0  0  0  0  0  0  0  0  0  0  0  0
    0.7897   -8.9519    1.3691 C   0  0  0  0  0  0  0  0  0  0  0  0
    0.7018   -7.7198    0.7892 C   0  0  0  0  0  0  0  0  0  0  0  0
    0.8918   -6.5957    1.6117 C   0  0  0  0  0  0  0  0  0  0  0  0
    1.0774  -10.6059    3.3145 C   0  0  0  0  0  0  0  0  0  0  0  0
   -0.1032  -11.1934    3.4585 C   0  0  0  0  0  0  0  0  0  0  0  0
   -1.2292  -10.4461    3.8202 C   0  0  0  0  0  0  0  0  0  0  0  0
   -2.4200  -10.9951    3.9197 C   0  0  0  0  0  0  0  0  0  0  0  0
   -2.5509  -12.2907    3.4571 C   0  0  0  0  0  0  0  0  0  0  0  0
   -1.5250  -12.9635    2.8089 C   0  0  0  0  0  0  0  0  0  0  0  0
   -0.2043  -12.4369    2.8905 C   0  0  0  0  0  0  0  0  0  0  0  0
    0.8930  -13.1433    2.3980 C   0  0  2  0  0  0  0  0  0  0  0  0
    1.2887  -13.0296    1.1129 C   0  0  0  0  0  0  0  0  0  0  0  0
    0.9607  -14.5522    2.8092 C   0  0  0  0  0  0  0  0  0  0  0  0
    2.0093  -15.3613    2.3312 C   0  0  0  0  0  0  0  0  0  0  0  0
  3  7  1  0
  7  8  1  0
 13 14  1  0
 14 15  1  6
 14 16  1  0
 16 17  1  0
  1  2  2  0
  2  6  1  0
  5  6  2  0
  4  5  1  0
  3  4  2  0
  1  3  1  0
  8  9  2  0
  9 10  1  0
 10 11  2  0
 11 12  1  0
 12 13  2  0
  8 13  1  0
M  END

$$$$
No_3645-/export/home/yangzhenyu/potential_scad_32_flow//YTHDC2/2024-12-06-03-22-00/
     RDKit          3D

 21 22  0  0  0  0  0  0  0  0999 V2000
    1.1787   -8.0297    3.5154 C   0  0  0  0  0  0  0  0  0  0  0  0
    1.0491   -6.8434    2.9820 C   0  0  0  0  0  0  0  0  0  0  0  0
    0.0950   -8.8404    3.2292 C   0  0  0  0  0  0  0  0  0  0  0  0
   -0.7663   -8.2602    2.4375 C   0  0  0  0  0  0  0  0  0  0  0  0
   -0.3589   -6.8665    2.1913 C   0  0  0  0  0  0  0  0  0  0  0  0
    0.1385  -10.2460    3.6202 C   0  0  0  0  0  0  0  0  0  0  0  0
    0.2021  -11.2981    2.7833 C   0  0  0  0  0  0  0  0  0  0  0  0
    0.4872  -12.5623    3.3425 C   0  0  0  0  0  0  0  0  0  0  0  0
    1.1731  -13.4834    2.5820 C   0  0  0  0  0  0  0  0  0  0  0  0
    1.4254  -13.3536    1.3190 C   0  0  0  0  0  0  0  0  0  0  0  0
    1.3627  -12.1018    0.7327 C   0  0  0  0  0  0  0  0  0  0  0  0
    0.8450  -11.0502    1.4535 C   0  0  0  0  0  0  0  0  0  0  0  0
    1.3420  -15.0218    3.3088 C   0  0  0  0  0  0  0  0  0  0  0  0
    2.1525  -15.8060    2.6721 O   0  0  0  0  0  0  0  0  0  0  0  0
    0.5369  -15.4655    4.0440 Br  0  0  0  0  0  0  0  0  0  0  0  0
   -0.5581  -10.4030    4.8472 N   0  0  0  0  0  0  0  0  0  0  0  0
    0.6632   -9.8712    0.8057 C   0  0  0  0  0  0  0  0  0  0  0  0
    1.9003   -9.2398    0.3415 C   0  0  0  0  0  0  0  0  0  0  0  0
    2.9978   -9.4766    0.8651 O   0  0  0  0  0  0  0  0  0  0  0  0
    1.9600   -8.1933   -0.5646 O   0  0  0  0  0  0  0  0  0  0  0  0
   -0.7945  -11.3272    5.1791 H   0  0  0  0  0  0  0  0  0  0  0  0
  1  2  1  0
  1  3  2  0
  3  4  1  0
  2  5  1  0
  4  5  2  0
  3  6  1  0
  6  7  1  0
  9 13  1  0
 13 14  2  0
 13 15  1  0
  6 16  2  0
 12 17  1  0
 17 18  1  0
 18 19  1  0
 18 20  2  0
  7  8  2  0
  8  9  1  0
  9 10  2  0
 10 11  1  0
 11 12  2  0
  7 12  1  0
 16 21  1  0
M  END

$$$$
No_3646-/export/home/yangzhenyu/potential_scad_32_flow//YTHDC2/2024-12-06-03-22-00/
     RDKit          3D

 19 20  0  0  0  0  0  0  0  0999 V2000
    1.1787   -8.0297    3.5154 C   0  0  0  0  0  0  0  0  0  0  0  0
    1.0491   -6.8434    2.9820 C   0  0  0  0  0  0  0  0  0  0  0  0
    0.0950   -8.8404    3.2292 C   0  0  0  0  0  0  0  0  0  0  0  0
   -0.9173   -8.4596    2.5152 C   0  0  0  0  0  0  0  0  0  0  0  0
   -1.0331   -7.2162    2.0653 C   0  0  0  0  0  0  0  0  0  0  0  0
   -0.0105   -6.3168    2.3081 C   0  0  0  0  0  0  0  0  0  0  0  0
    0.0485   -4.9783    1.8782 C   0  0  0  0  0  0  0  0  0  0  0  0
   -0.4744   -4.1559    2.2381 C   0  0  0  0  0  0  0  0  0  0  0  0
   -1.3679   -4.2621    3.3724 C   0  0  0  0  0  0  0  0  0  0  0  0
    0.1597  -10.4044    3.7604 C   0  0  0  0  0  0  0  0  0  0  0  0
   -0.9849  -11.0944    3.5801 N   0  0  0  0  0  0  0  0  0  0  0  0
    1.2407  -10.8650    4.4620 C   0  0  0  0  0  0  0  0  0  0  0  0
    1.2888  -12.2062    4.3969 N   0  0  0  0  0  0  0  0  0  0  0  0
    0.4702  -12.5853    3.3889 C   0  0  0  0  0  0  0  0  0  0  0  0
   -0.7096  -12.2571    3.1876 N   0  0  0  0  0  0  0  0  0  0  0  0
    0.6287  -14.2118    3.3748 C   0  0  0  0  0  0  0  0  0  0  0  0
    0.7387  -14.7413    2.0224 C   0  0  0  0  0  0  0  0  0  0  0  0
    1.4559  -13.9050    1.1404 C   0  0  0  0  0  0  0  0  0  0  0  0
    0.7744  -13.6216    0.0741 C   0  0  0  0  0  0  0  0  0  0  0  0
  6  7  1  0
  7  8  2  3
  8  9  1  0
  3 10  1  0
 14 16  1  0
 16 17  1  0
 17 18  1  0
 18 19  2  0
 10 11  2  0
 11 15  1  0
 14 15  2  0
 13 14  1  0
 12 13  2  0
 10 12  1  0
  1  2  2  0
  2  6  1  0
  5  6  2  0
  4  5  1  0
  3  4  2  0
  1  3  1  0
M  END

$$$$
No_3647-/export/home/yangzhenyu/potential_scad_32_flow//YTHDC2/2024-12-06-03-22-00/
     RDKit          3D

 20 21  0  0  0  0  0  0  0  0999 V2000
    1.1787   -8.0297    3.5154 C   0  0  0  0  0  0  0  0  0  0  0  0
    1.1048   -9.2215    3.2892 C   0  0  0  0  0  0  0  0  0  0  0  0
    1.3627  -10.1721    4.3044 C   0  0  0  0  0  0  0  0  0  0  0  0
    1.7354  -11.4730    3.9023 C   0  0  0  0  0  0  0  0  0  0  0  0
    1.6166  -11.5515    2.5159 C   0  0  0  0  0  0  0  0  0  0  0  0
    1.4172  -10.6242    1.6178 C   0  0  0  0  0  0  0  0  0  0  0  0
    1.2598   -9.4423    1.9811 C   0  0  0  0  0  0  0  0  0  0  0  0
    1.0996   -7.0633    2.5049 C   0  0  0  0  0  0  0  0  0  0  0  0
    1.2922   -7.2465    1.2567 N   0  0  0  0  0  0  0  0  0  0  0  0
    1.4956   -8.4753    1.0065 C   0  0  0  0  0  0  0  0  0  0  0  0
    1.5477   -8.7611   -0.3631 O   0  0  0  0  0  0  0  0  0  0  0  0
    1.8570  -13.0817    2.1137 C   0  0  0  0  0  0  0  0  0  0  0  0
    1.9572  -14.0909    2.9191 N   0  0  0  0  0  0  0  0  0  0  0  0
    1.6661  -13.4304    0.8125 O   0  0  0  0  0  0  0  0  0  0  0  0
    2.0819  -15.4545    2.5586 C   0  0  0  0  0  0  0  0  0  0  0  0
    1.2706  -16.1483    2.4530 C   0  0  0  0  0  0  0  0  0  0  0  0
   -0.0801  -15.8274    2.9032 C   0  0  0  0  0  0  0  0  0  0  0  0
   -0.7684  -16.7278    3.6243 C   0  0  0  0  0  0  0  0  0  0  0  0
   -0.4382  -18.0405    3.6464 C   0  0  0  0  0  0  0  0  0  0  0  0
    0.7545  -18.4701    3.1128 C   0  0  0  0  0  0  0  0  0  0  0  0
  1  2  1  0
  8  9  1  0
  7 10  1  0
  9 10  1  0
 10 11  2  0
  5 12  1  0
 12 13  1  0
 12 14  2  0
 13 15  1  0
 15 16  1  0
 16 17  1  0
 17 18  2  3
 18 19  1  0
 19 20  2  0
  1  8  1  0
  2  3  2  0
  3  4  1  0
  4  5  2  0
  5  6  1  0
  6  7  2  0
  2  7  1  0
M  END

$$$$
No_3648-/export/home/yangzhenyu/potential_scad_32_flow//YTHDC2/2024-12-06-03-22-00/
     RDKit          3D

 18 19  0  0  1  0  0  0  0  0999 V2000
    1.1787   -8.0297    3.5154 C   0  0  0  0  0  0  0  0  0  0  0  0
    1.1048   -9.2215    3.2892 C   0  0  0  0  0  0  0  0  0  0  0  0
    1.2339   -9.7611    2.0189 C   0  0  0  0  0  0  0  0  0  0  0  0
    1.3583   -9.0036    0.9764 C   0  0  0  0  0  0  0  0  0  0  0  0
    1.5996   -7.6362    1.1311 C   0  0  0  0  0  0  0  0  0  0  0  0
    1.4830   -7.0928    2.3626 C   0  0  0  0  0  0  0  0  0  0  0  0
    1.1171  -11.3311    1.8661 C   0  0  1  0  0  0  0  0  0  0  0  0
    0.5022  -11.6388    0.6531 C   0  0  0  0  0  0  0  0  0  0  0  0
    0.5683  -13.0838    0.5424 C   0  0  0  0  0  0  0  0  0  0  0  0
    1.2665  -13.8887    1.3003 C   0  0  0  0  0  0  0  0  0  0  0  0
    1.9989  -13.3977    2.4029 C   0  0  1  0  0  0  0  0  0  0  0  0
    1.8520  -12.0917    2.7212 C   0  0  0  0  0  0  0  0  0  0  0  0
    2.4204  -11.5469    3.8139 O   0  0  0  0  0  0  0  0  0  0  0  0
    1.5549   -5.6500    2.6308 Cl  0  0  0  0  0  0  0  0  0  0  0  0
    1.5955   -9.4843   -0.5771 N   0  0  0  0  0  0  0  0  0  0  0  0
    2.5201  -14.3072    3.3044 O   0  0  0  0  0  0  0  0  0  0  0  0
    1.7118   -8.5839   -1.4629 O   0  0  0  0  0  0  0  0  0  0  0  0
    1.3055  -15.4415    1.0553 Cl  0  0  0  0  0  0  0  0  0  0  0  0
  7  3  1  6
  7  8  1  0
  9 10  1  0
  7 12  1  0
 11 12  1  0
 12 13  2  0
  6 14  1  0
  4 15  1  0
 11 16  1  1
 15 17  2  0
 10 18  1  0
  8  9  1  0
 10 11  1  0
  1  2  2  0
  2  3  1  0
  3  4  2  0
  4  5  1  0
  5  6  2  0
  1  6  1  0
M  END

$$$$
No_3649-/export/home/yangzhenyu/potential_scad_32_flow//YTHDC2/2024-12-06-03-22-00/
     RDKit          3D

 18 19  0  0  1  0  0  0  0  0999 V2000
    1.1787   -8.0297    3.5154 N   0  0  0  0  0  0  0  0  0  0  0  0
    1.0818   -9.0751    3.2053 C   0  0  0  0  0  0  0  0  0  0  0  0
    0.7576   -9.3725    1.9159 C   0  0  0  0  0  0  0  0  0  0  0  0
    0.8823   -8.4917    1.0547 C   0  0  1  0  0  0  0  0  0  0  0  0
    1.5589   -7.2414    1.9015 C   0  0  0  0  0  0  0  0  0  0  0  0
    1.4410   -8.4760   -0.0716 C   0  0  0  0  0  0  0  0  0  0  0  0
    0.5601   -8.9520   -1.0532 O   0  0  0  0  0  0  0  0  0  0  0  0
    2.3386   -7.8482   -0.7632 O   0  0  0  0  0  0  0  0  0  0  0  0
    0.7217   -9.9068    4.3729 C   0  0  0  0  0  0  0  0  0  0  0  0
    0.2985  -11.3739    4.0324 C   0  0  0  0  0  0  0  0  0  0  0  0
   -0.1354  -11.5598    2.9608 C   0  0  0  0  0  0  0  0  0  0  0  0
    0.2192  -10.7584    1.7366 C   0  0  0  0  0  0  0  0  0  0  0  0
   -0.4699  -12.9343    2.5510 C   0  0  2  0  0  0  0  0  0  0  0  0
   -1.7438  -13.1254    2.2299 C   0  0  0  0  0  0  0  0  0  0  0  0
    0.4700  -14.0053    2.5748 C   0  0  0  0  0  0  0  0  0  0  0  0
    1.7355  -13.8978    2.7763 C   0  0  0  0  0  0  0  0  0  0  0  0
    2.3916  -15.2712    2.4694 C   0  0  0  0  0  0  0  0  0  0  0  0
    1.8663  -16.3498    2.2435 C   0  0  0  0  0  0  0  0  0  0  0  0
  1  2  1  0
  3  4  1  0
  1  5  1  0
  4  5  1  0
  4  6  1  6
  6  7  1  0
  6  8  2  0
 11 13  1  0
 13 14  1  1
 13 15  1  0
 15 16  1  0
 16 17  2  3
 17 18  1  0
  2  3  2  0
  3 12  1  0
 11 12  2  0
 10 11  1  0
  9 10  2  0
  2  9  1  0
M  END

$$$$
No_3650-/export/home/yangzhenyu/potential_scad_32_flow//YTHDC2/2024-12-06-03-22-00/
     RDKit          3D

 19 19  0  0  1  0  0  0  0  0999 V2000
    1.1787   -8.0297    3.5154 C   0  0  0  0  0  0  0  0  0  0  0  0
    1.0491   -6.8434    2.9820 C   0  0  0  0  0  0  0  0  0  0  0  0
    0.9905   -9.0774    2.6527 C   0  0  0  0  0  0  0  0  0  0  0  0
    1.1655  -10.4663    3.1286 C   0  0  2  0  0  0  0  0  0  0  0  0
    1.7409  -10.6480    4.4599 C   0  0  0  0  0  0  0  0  0  0  0  0
    0.4783   -6.4688    1.7590 N   0  0  0  0  0  0  0  0  0  0  0  0
    0.2499   -7.5714    1.0203 C   0  0  0  0  0  0  0  0  0  0  0  0
    0.4213   -8.8488    1.2897 C   0  0  0  0  0  0  0  0  0  0  0  0
    1.0420  -11.5045    2.3042 C   0  0  0  0  0  0  0  0  0  0  0  0
    1.2195  -12.5387    2.5494 C   0  0  0  0  0  0  0  0  0  0  0  0
    0.9434  -13.7986    1.6560 C   0  0  0  0  0  0  0  0  0  0  0  0
   -0.0767  -13.7706    0.8142 C   0  0  0  0  0  0  0  0  0  0  0  0
   -0.2940  -14.7907   -0.1166 C   0  0  0  0  0  0  0  0  0  0  0  0
   -0.2014   -7.3361   -0.2705 C   0  0  0  0  0  0  0  0  0  0  0  0
   -1.2513   -6.4893   -0.4910 C   0  0  0  0  0  0  0  0  0  0  0  0
   -1.9415   -5.9887    0.6735 O   0  0  0  0  0  0  0  0  0  0  0  0
   -1.9486   -6.3585   -1.6437 O   0  0  0  0  0  0  0  0  0  0  0  0
    0.6643  -15.7206   -0.4207 C   0  0  0  0  0  0  0  0  0  0  0  0
    1.6420  -15.8417    0.5271 C   0  0  0  0  0  0  0  0  0  0  0  0
  3  4  1  0
  4  5  1  6
  4  9  1  0
  9 10  2  3
 10 11  1  0
 11 12  2  3
 12 13  1  0
  7 14  1  0
 14 15  2  3
 15 16  1  0
 15 17  1  0
 13 18  2  3
 18 19  1  0
  1  2  2  0
  2  6  1  0
  6  7  2  0
  7  8  1  0
  3  8  2  0
  1  3  1  0
M  END

$$$$
No_3651-/export/home/yangzhenyu/potential_scad_32_flow//YTHDC2/2024-12-06-03-22-00/
     RDKit          3D

 21 21  0  0  1  0  0  0  0  0999 V2000
    1.1787   -8.0297    3.5154 C   0  0  0  0  0  0  0  0  0  0  0  0
    1.1048   -9.2215    3.2892 C   0  0  0  0  0  0  0  0  0  0  0  0
    1.2339   -9.7611    2.0189 C   0  0  0  0  0  0  0  0  0  0  0  0
    1.1954  -11.2312    1.8661 C   0  0  2  0  0  0  0  0  0  0  0  0
    1.2996  -11.5815    0.5387 C   0  0  0  0  0  0  0  0  0  0  0  0
    1.3263   -7.1208    2.3229 C   0  0  0  0  0  0  0  0  0  0  0  0
    1.3693   -7.6408    1.0625 C   0  0  0  0  0  0  0  0  0  0  0  0
    1.4358   -8.9950    0.8622 C   0  0  0  0  0  0  0  0  0  0  0  0
    0.9078  -11.9576    2.8785 C   0  0  0  0  0  0  0  0  0  0  0  0
    1.6858  -12.5424    3.4975 C   0  0  0  0  0  0  0  0  0  0  0  0
    1.3764   -5.4479    2.6027 C   0  0  0  0  0  0  0  0  0  0  0  0
    0.5316  -12.3911    0.2145 O   0  0  0  0  0  0  0  0  0  0  0  0
    2.0122  -13.7463    2.8415 O   0  0  0  0  0  0  0  0  0  0  0  0
    2.1710  -11.2362   -0.1960 O   0  0  0  0  0  0  0  0  0  0  0  0
    1.1342   -4.8331    1.5149 O   0  0  0  0  0  0  0  0  0  0  0  0
    0.4828   -3.5670    1.7262 C   0  0  0  0  0  0  0  0  0  0  0  0
    1.2148   -2.6617    2.2985 C   0  0  0  0  0  0  0  0  0  0  0  0
    1.2886  -14.9410    3.0539 C   0  0  0  0  0  0  0  0  0  0  0  0
    1.6703  -16.1055    2.5648 N   0  0  0  0  0  0  0  0  0  0  0  0
    0.2802  -14.8525    3.8243 O   0  0  0  0  0  0  0  0  0  0  0  0
    0.9581  -17.2100    2.7815 C   0  0  0  0  0  0  0  0  0  0  0  0
  3  4  1  0
  4  5  1  0
  4  9  1  6
  9 10  1  0
  6 11  1  0
  5 12  1  0
 10 13  1  0
  5 14  2  0
 11 15  1  0
 15 16  1  0
 16 17  1  0
 13 18  1  0
 18 19  1  0
 18 20  2  0
 19 21  1  0
  1  2  2  0
  2  3  1  0
  3  8  2  0
  7  8  1  0
  6  7  2  0
  1  6  1  0
M  END

$$$$
No_3652-/export/home/yangzhenyu/potential_scad_32_flow//YTHDC2/2024-12-06-03-22-00/
     RDKit          3D

 20 21  0  0  1  0  0  0  0  0999 V2000
    1.1787   -8.0297    3.5154 C   0  0  0  0  0  0  0  0  0  0  0  0
    1.0491   -6.8434    2.9820 C   0  0  0  0  0  0  0  0  0  0  0  0
    0.2462   -8.9560    3.0873 C   0  0  1  0  0  0  0  0  0  0  0  0
    0.3295   -6.5187    1.9069 C   0  0  1  0  0  0  0  0  0  0  0  0
   -0.5260   -8.7862    2.1368 C   0  0  0  0  0  0  0  0  0  0  0  0
   -0.5458   -7.5614    1.5054 C   0  0  0  0  0  0  0  0  0  0  0  0
    0.2879   -5.2870    1.3175 C   0  0  0  0  0  0  0  0  0  0  0  0
    0.3538  -10.3272    3.6802 C   0  0  0  0  0  0  0  0  0  0  0  0
    1.4337  -10.9516    4.0192 C   0  0  0  0  0  0  0  0  0  0  0  0
    1.8743  -11.8347    3.0082 C   0  0  0  0  0  0  0  0  0  0  0  0
    1.5264  -13.2219    3.1528 C   0  0  0  0  0  0  0  0  0  0  0  0
    0.3919  -13.6550    2.5822 C   0  0  0  0  0  0  0  0  0  0  0  0
    0.3941  -14.3150    1.7546 C   0  0  0  0  0  0  0  0  0  0  0  0
    1.6149  -15.0286    1.4174 C   0  0  0  0  0  0  0  0  0  0  0  0
    2.8272  -14.6546    1.9675 C   0  0  0  0  0  0  0  0  0  0  0  0
    2.8280  -13.6589    2.8317 C   0  0  0  0  0  0  0  0  0  0  0  0
   -0.4156   -4.2586    1.7768 O   0  0  0  0  0  0  0  0  0  0  0  0
   -1.6463   -4.1210    1.4558 C   0  0  0  0  0  0  0  0  0  0  0  0
   -2.0716   -3.1278    1.5344 C   0  0  0  0  0  0  0  0  0  0  0  0
   -1.5151   -7.3929    0.6338 O   0  0  0  0  0  0  0  0  0  0  0  0
  1  3  1  0
  2  4  1  0
  4  6  1  0
  5  6  1  0
  4  7  1  1
  3  8  1  6
  8  9  1  0
  9 10  1  0
 10 11  1  0
  7 17  1  0
 17 18  1  0
 18 19  1  0
  6 20  2  0
  1  2  1  0
  3  5  1  0
 11 12  2  0
 12 13  1  0
 13 14  2  0
 14 15  1  0
 15 16  2  0
 11 16  1  0
M  END

$$$$
No_3653-/export/home/yangzhenyu/potential_scad_32_flow//YTHDC2/2024-12-06-03-22-00/
     RDKit          3D

 18 18  0  0  0  0  0  0  0  0999 V2000
    1.1787   -8.0297    3.5154 C   0  0  0  0  0  0  0  0  0  0  0  0
    1.1048   -9.2215    3.2892 C   0  0  0  0  0  0  0  0  0  0  0  0
    1.3627  -10.1721    4.3044 C   0  0  0  0  0  0  0  0  0  0  0  0
    1.7354  -11.4730    3.9023 C   0  0  0  0  0  0  0  0  0  0  0  0
    1.8080  -11.8127    2.7216 C   0  0  0  0  0  0  0  0  0  0  0  0
    1.5854  -11.0021    1.7249 C   0  0  0  0  0  0  0  0  0  0  0  0
    1.3573   -9.7389    1.9287 C   0  0  0  0  0  0  0  0  0  0  0  0
    1.2865   -8.8078    0.9161 C   0  0  0  0  0  0  0  0  0  0  0  0
    0.9210   -7.5140    1.1674 O   0  0  0  0  0  0  0  0  0  0  0  0
    1.5321   -9.1645   -0.3432 N   0  0  0  0  0  0  0  0  0  0  0  0
    2.0924  -13.2035    2.3168 C   0  0  0  0  0  0  0  0  0  0  0  0
    2.4356  -13.5662    1.0535 O   0  0  0  0  0  0  0  0  0  0  0  0
    1.7574  -14.2404    3.1093 N   0  0  0  0  0  0  0  0  0  0  0  0
    1.8843  -15.5493    2.8204 C   0  0  0  0  0  0  0  0  0  0  0  0
    0.9645  -16.4562    3.2142 C   0  0  0  0  0  0  0  0  0  0  0  0
    1.2094  -17.7882    3.0967 C   0  0  0  0  0  0  0  0  0  0  0  0
    2.4158  -18.2021    2.4148 C   0  0  0  0  0  0  0  0  0  0  0  0
    3.4154  -17.2420    2.1609 C   0  0  0  0  0  0  0  0  0  0  0  0
  1  2  1  0
  7  8  1  0
  8  9  2  0
  8 10  1  0
  5 11  1  0
 11 12  2  0
 11 13  1  0
 13 14  1  0
 14 15  1  0
 15 16  2  3
 16 17  1  0
 17 18  2  0
  2  3  2  0
  3  4  1  0
  4  5  2  0
  5  6  1  0
  6  7  2  0
  2  7  1  0
M  END

$$$$
No_3654-/export/home/yangzhenyu/potential_scad_32_flow//YTHDC2/2024-12-06-03-22-00/
     RDKit          3D

 18 20  0  0  0  0  0  0  0  0999 V2000
    1.1787   -8.0297    3.5154 C   0  0  0  0  0  0  0  0  0  0  0  0
    1.1048   -9.2215    3.2892 C   0  0  0  0  0  0  0  0  0  0  0  0
    1.3627  -10.1721    4.3044 C   0  0  0  0  0  0  0  0  0  0  0  0
    1.0682  -11.5187    4.0618 C   0  0  0  0  0  0  0  0  0  0  0  0
    0.6332  -11.9655    2.9682 C   0  0  0  0  0  0  0  0  0  0  0  0
    0.4776  -11.1308    1.9203 C   0  0  0  0  0  0  0  0  0  0  0  0
    0.7470   -9.8274    2.0368 C   0  0  0  0  0  0  0  0  0  0  0  0
    0.5535   -7.1314    2.6861 N   0  0  0  0  0  0  0  0  0  0  0  0
    0.3069   -7.6119    1.3920 C   0  0  0  0  0  0  0  0  0  0  0  0
    0.2579   -8.8240    1.1187 C   0  0  0  0  0  0  0  0  0  0  0  0
    0.4611  -13.6154    2.6928 C   0  0  0  0  0  0  0  0  0  0  0  0
    1.2888  -14.2695    3.3637 C   0  0  0  0  0  0  0  0  0  0  0  0
    1.1517  -15.7299    3.0948 C   0  0  0  0  0  0  0  0  0  0  0  0
    0.2208  -16.1935    2.3035 C   0  0  0  0  0  0  0  0  0  0  0  0
   -0.4935  -15.3388    1.5789 C   0  0  0  0  0  0  0  0  0  0  0  0
   -0.3305  -13.9879    1.7871 C   0  0  0  0  0  0  0  0  0  0  0  0
   -0.1552   -9.1782   -0.2046 O   0  0  0  0  0  0  0  0  0  0  0  0
   -0.0938   -6.6024    0.5207 C   0  0  0  0  0  0  0  0  0  0  0  0
  5 11  1  0
 10 17  1  0
  9 18  1  0
 11 12  2  0
 12 13  1  0
 13 14  2  0
 14 15  1  0
 15 16  2  0
 11 16  1  0
  2  3  1  0
  3  4  2  0
  4  5  1  0
  5  6  2  0
  6  7  1  0
  1  2  2  0
  2  7  1  0
  7 10  2  0
  9 10  1  0
  8  9  2  0
  1  8  1  0
M  END

$$$$
No_3655-/export/home/yangzhenyu/potential_scad_32_flow//YTHDC2/2024-12-06-03-22-00/
     RDKit          3D

 17 18  0  0  0  0  0  0  0  0999 V2000
    1.1787   -8.0297    3.5154 C   0  0  0  0  0  0  0  0  0  0  0  0
    1.0491   -6.8434    2.9820 C   0  0  0  0  0  0  0  0  0  0  0  0
    0.9905   -9.0774    2.6527 C   0  0  0  0  0  0  0  0  0  0  0  0
    0.9687   -8.6883    1.3634 C   0  0  0  0  0  0  0  0  0  0  0  0
    1.0948   -6.3768    1.7686 C   0  0  0  0  0  0  0  0  0  0  0  0
    0.9504   -7.3975    0.8471 C   0  0  0  0  0  0  0  0  0  0  0  0
    0.9617   -9.7173    0.3352 C   0  0  0  0  0  0  0  0  0  0  0  0
    0.7096   -9.5224   -0.9434 O   0  0  0  0  0  0  0  0  0  0  0  0
    1.1277  -11.0558    0.6195 N   0  0  0  0  0  0  0  0  0  0  0  0
    1.6199  -11.5838    1.8265 C   0  0  0  0  0  0  0  0  0  0  0  0
    1.6255  -12.9415    1.9821 C   0  0  0  0  0  0  0  0  0  0  0  0
    1.7605  -13.8672    0.9382 C   0  0  0  0  0  0  0  0  0  0  0  0
    2.2277  -15.0723    1.2518 C   0  0  0  0  0  0  0  0  0  0  0  0
    2.2040  -15.4617    2.6615 C   0  0  0  0  0  0  0  0  0  0  0  0
    1.9323  -14.5480    3.6497 C   0  0  0  0  0  0  0  0  0  0  0  0
    1.5200  -13.2501    3.2984 C   0  0  0  0  0  0  0  0  0  0  0  0
    2.4809  -16.8317    3.0093 Cl  0  0  0  0  0  0  0  0  0  0  0  0
  4  7  1  0
  7  8  2  0
  7  9  1  0
  9 10  2  3
 10 11  1  0
 14 17  1  0
 11 12  2  0
 12 13  1  0
 13 14  2  0
 14 15  1  0
 15 16  2  0
 11 16  1  0
  1  2  2  0
  2  5  1  0
  5  6  2  0
  4  6  1  0
  3  4  2  0
  1  3  1  0
M  END

$$$$
No_3656-/export/home/yangzhenyu/potential_scad_32_flow//YTHDC2/2024-12-06-03-22-00/
     RDKit          3D

 18 19  0  0  1  0  0  0  0  0999 V2000
    1.1787   -8.0297    3.5154 C   0  0  0  0  0  0  0  0  0  0  0  0
    1.1048   -9.2215    3.2892 C   0  0  0  0  0  0  0  0  0  0  0  0
    1.2339   -9.7611    2.0189 C   0  0  0  0  0  0  0  0  0  0  0  0
    1.3583   -9.0036    0.9764 C   0  0  0  0  0  0  0  0  0  0  0  0
    1.5996   -7.6362    1.1311 C   0  0  0  0  0  0  0  0  0  0  0  0
    1.4830   -7.0928    2.3626 C   0  0  0  0  0  0  0  0  0  0  0  0
    1.1008  -11.2372    1.8542 C   0  0  1  0  0  0  0  0  0  0  0  0
    0.4812  -11.6084    0.6459 C   0  0  0  0  0  0  0  0  0  0  0  0
    0.5134  -13.0269    0.4830 C   0  0  1  0  0  0  0  0  0  0  0  0
    1.1290  -13.7255    1.6298 C   0  0  2  0  0  0  0  0  0  0  0  0
    1.7239  -13.3787    2.6324 C   0  0  0  0  0  0  0  0  0  0  0  0
    1.7038  -11.9845    2.8548 C   0  0  0  0  0  0  0  0  0  0  0  0
    2.3174  -11.4095    3.8876 O   0  0  0  0  0  0  0  0  0  0  0  0
    1.5689   -5.6396    2.6239 Cl  0  0  0  0  0  0  0  0  0  0  0  0
    1.5483   -9.4582   -0.3524 Cl  0  0  0  0  0  0  0  0  0  0  0  0
    1.1637  -15.2414    1.4288 Cl  0  0  0  0  0  0  0  0  0  0  0  0
   -0.0220  -13.6777   -0.5065 O   0  0  0  0  0  0  0  0  0  0  0  0
   -1.2855  -13.8066   -0.6744 C   0  0  0  0  0  0  0  0  0  0  0  0
  7  3  1  6
  7  8  1  0
  9 10  1  0
  7 12  1  0
 11 12  1  0
 12 13  2  0
  6 14  1  0
  4 15  1  0
 10 16  1  6
  9 17  1  1
 17 18  1  0
  8  9  1  0
 10 11  1  0
  1  2  2  0
  2  3  1  0
  3  4  2  0
  4  5  1  0
  5  6  2  0
  1  6  1  0
M  END

$$$$
No_3657-/export/home/yangzhenyu/potential_scad_32_flow//YTHDC2/2024-12-06-03-22-00/
     RDKit          3D

 11 11  0  0  0  0  0  0  0  0999 V2000
    1.1787   -8.0297    3.5154 C   0  0  0  0  0  0  0  0  0  0  0  0
    1.0491   -6.8434    2.9820 C   0  0  0  0  0  0  0  0  0  0  0  0
    0.0950   -8.8404    3.2292 C   0  0  0  0  0  0  0  0  0  0  0  0
   -0.7663   -8.2602    2.4375 C   0  0  0  0  0  0  0  0  0  0  0  0
   -0.7437   -6.9718    1.9778 C   0  0  0  0  0  0  0  0  0  0  0  0
    0.2554   -6.2202    2.2855 C   0  0  0  0  0  0  0  0  0  0  0  0
    0.0489  -10.2012    3.5913 S   0  0  0  0  0  0  0  0  0  0  0  0
   -1.1781  -10.5461    4.0815 O   0  0  0  0  0  0  0  0  0  0  0  0
    0.9780  -10.4661    4.9240 N   0  0  0  0  0  0  0  0  0  0  0  0
    0.4004  -11.1235    2.5592 O   0  0  0  0  0  0  0  0  0  0  0  0
    0.3962   -4.8607    1.8467 Cl  0  0  0  0  0  0  0  0  0  0  0  0
  3  7  1  0
  7  8  2  0
  7  9  1  0
  7 10  2  0
  6 11  1  0
  1  2  2  0
  2  6  1  0
  5  6  2  0
  4  5  1  0
  3  4  2  0
  1  3  1  0
M  END

$$$$
No_3658-/export/home/yangzhenyu/potential_scad_32_flow//YTHDC2/2024-12-06-03-22-00/
     RDKit          3D

 20 22  0  0  0  0  0  0  0  0999 V2000
    1.1787   -8.0297    3.5154 C   0  0  0  0  0  0  0  0  0  0  0  0
    1.1048   -9.2215    3.2892 C   0  0  0  0  0  0  0  0  0  0  0  0
    1.4683  -10.2314    4.1915 C   0  0  0  0  0  0  0  0  0  0  0  0
    0.8445   -6.9865    2.5175 C   0  0  0  0  0  0  0  0  0  0  0  0
    0.3587   -7.3973    1.3953 C   0  0  0  0  0  0  0  0  0  0  0  0
    0.1901   -8.6971    1.0711 C   0  0  0  0  0  0  0  0  0  0  0  0
    0.5759   -9.6647    1.9442 C   0  0  0  0  0  0  0  0  0  0  0  0
    1.8402  -11.5521    3.5557 C   0  0  0  0  0  0  0  0  0  0  0  0
    1.4228  -11.9086    2.4385 C   0  0  0  0  0  0  0  0  0  0  0  0
    0.9898  -10.9113    1.5071 C   0  0  0  0  0  0  0  0  0  0  0  0
    1.6974  -13.2201    1.9363 C   0  0  0  0  0  0  0  0  0  0  0  0
    2.0357  -14.2437    2.7787 C   0  0  0  0  0  0  0  0  0  0  0  0
    2.3284  -15.5480    2.1765 C   0  0  0  0  0  0  0  0  0  0  0  0
    1.1961  -16.4902    2.0467 C   0  0  0  0  0  0  0  0  0  0  0  0
    0.1217  -16.0315    2.4755 C   0  0  0  0  0  0  0  0  0  0  0  0
    0.9802   -5.3041    2.9712 Cl  0  0  0  0  0  0  0  0  0  0  0  0
   -0.6596  -15.4941    1.8116 C   0  0  0  0  0  0  0  0  0  0  0  0
   -0.5033  -15.4214    0.4561 C   0  0  0  0  0  0  0  0  0  0  0  0
    0.2519  -16.1995   -0.1993 C   0  0  0  0  0  0  0  0  0  0  0  0
    1.4228  -16.5889    0.5971 C   0  0  0  0  0  0  0  0  0  0  0  0
  9 11  1  0
 11 12  1  0
 12 13  1  0
 13 14  1  0
 14 15  1  0
  4 16  1  0
 15 17  1  0
 17 18  1  0
 18 19  1  0
 14 20  1  0
 19 20  1  0
  1  2  2  0
  6  7  2  0
  5  6  1  0
  4  5  2  0
  1  4  1  0
  2  3  1  0
  3  8  2  0
  8  9  1  0
  9 10  2  0
  7 10  1  0
  2  7  1  0
M  END

$$$$
No_3659-/export/home/yangzhenyu/potential_scad_32_flow//YTHDC2/2024-12-06-03-22-00/
     RDKit          3D

 16 16  0  0  0  0  0  0  0  0999 V2000
    1.1787   -8.0297    3.5154 O   0  0  0  0  0  0  0  0  0  0  0  0
    0.9969   -8.9689    3.0048 C   0  0  0  0  0  0  0  0  0  0  0  0
    1.3055  -10.1056    3.6616 C   0  0  0  0  0  0  0  0  0  0  0  0
    1.1249  -11.3503    3.0941 C   0  0  0  0  0  0  0  0  0  0  0  0
    0.6932  -11.4484    1.8586 C   0  0  0  0  0  0  0  0  0  0  0  0
    0.5498  -10.3736    1.0579 C   0  0  0  0  0  0  0  0  0  0  0  0
    0.7643   -9.1185    1.6383 C   0  0  0  0  0  0  0  0  0  0  0  0
    0.5937   -7.8467    1.0482 C   0  0  0  0  0  0  0  0  0  0  0  0
   -0.4358   -7.6746    0.4159 C   0  0  0  0  0  0  0  0  0  0  0  0
    1.2876  -12.8350    3.9391 C   0  0  0  0  0  0  0  0  0  0  0  0
   -1.3109   -8.7812    0.2278 S   0  0  0  0  0  0  0  0  0  0  0  0
   -2.7349   -8.2408   -0.2434 C   0  0  0  0  0  0  0  0  0  0  0  0
   -3.8697   -8.8751    0.0042 C   0  0  0  0  0  0  0  0  0  0  0  0
   -3.9215  -10.0669    0.1697 C   0  0  0  0  0  0  0  0  0  0  0  0
   -2.7485  -10.8740    0.5922 C   0  0  0  0  0  0  0  0  0  0  0  0
   -2.9969  -12.3465    0.7794 C   0  0  0  0  0  0  0  0  0  0  0  0
  1  2  1  0
  7  8  1  0
  8  9  2  3
  4 10  1  0
  9 11  1  0
 11 12  1  0
 12 13  1  0
 13 14  2  3
 14 15  1  0
 15 16  1  0
  2  3  2  0
  3  4  1  0
  4  5  2  0
  5  6  1  0
  6  7  2  0
  2  7  1  0
M  END

$$$$
No_3660-/export/home/yangzhenyu/potential_scad_32_flow//YTHDC2/2024-12-06-03-22-00/
     RDKit          3D

 20 21  0  0  0  0  0  0  0  0999 V2000
    1.1787   -8.0297    3.5154 C   0  0  0  0  0  0  0  0  0  0  0  0
    1.1048   -9.2215    3.2892 C   0  0  0  0  0  0  0  0  0  0  0  0
    1.3627  -10.1721    4.3044 C   0  0  0  0  0  0  0  0  0  0  0  0
    1.0682  -11.5187    4.0618 C   0  0  0  0  0  0  0  0  0  0  0  0
    0.7653  -11.7320    2.7387 C   0  0  0  0  0  0  0  0  0  0  0  0
    0.5661  -10.9730    1.8367 C   0  0  0  0  0  0  0  0  0  0  0  0
    0.7745   -9.6758    2.0361 C   0  0  0  0  0  0  0  0  0  0  0  0
    2.1923   -7.2179    3.1744 O   0  0  0  0  0  0  0  0  0  0  0  0
    0.4666  -13.2248    2.4438 C   0  0  0  0  0  0  0  0  0  0  0  0
    1.3181  -14.2184    2.8789 C   0  0  0  0  0  0  0  0  0  0  0  0
    1.0082  -15.5483    2.6950 C   0  0  0  0  0  0  0  0  0  0  0  0
    0.0628  -15.8971    2.0097 C   0  0  0  0  0  0  0  0  0  0  0  0
   -0.7721  -14.9393    1.3703 C   0  0  0  0  0  0  0  0  0  0  0  0
   -0.4909  -13.5619    1.6599 C   0  0  0  0  0  0  0  0  0  0  0  0
    0.3342   -7.3693    4.3809 O   0  0  0  0  0  0  0  0  0  0  0  0
    0.7394   -8.7478    0.9545 C   0  0  0  0  0  0  0  0  0  0  0  0
    1.9467   -8.5832    0.1714 C   0  0  0  0  0  0  0  0  0  0  0  0
    2.9558   -9.3733    0.2041 O   0  0  0  0  0  0  0  0  0  0  0  0
    1.9588   -7.7113   -0.8068 O   0  0  0  0  0  0  0  0  0  0  0  0
   -0.1744  -17.2547    1.6979 N   0  0  0  0  0  0  0  0  0  0  0  0
  1  2  1  0
  1  8  2  0
  5  9  1  0
  1 15  1  0
  7 16  1  0
 16 17  1  0
 17 18  2  0
 17 19  1  0
 12 20  1  0
  2  3  2  0
  3  4  1  0
  4  5  2  0
  5  6  1  0
  6  7  2  0
  2  7  1  0
  9 10  2  0
 10 11  1  0
 11 12  2  0
 12 13  1  0
 13 14  2  0
  9 14  1  0
M  END

$$$$
No_3661-/export/home/yangzhenyu/potential_scad_32_flow//YTHDC2/2024-12-06-03-22-00/
     RDKit          3D

 11 11  0  0  0  0  0  0  0  0999 V2000
    1.1787   -8.0297    3.5154 C   0  0  0  0  0  0  0  0  0  0  0  0
    1.1048   -9.2215    3.2892 C   0  0  0  0  0  0  0  0  0  0  0  0
    1.3627  -10.1721    4.3044 C   0  0  0  0  0  0  0  0  0  0  0  0
    1.0682  -11.5187    4.0618 C   0  0  0  0  0  0  0  0  0  0  0  0
    0.6332  -11.9655    2.9682 C   0  0  0  0  0  0  0  0  0  0  0  0
    0.4776  -11.1308    1.9203 C   0  0  0  0  0  0  0  0  0  0  0  0
    0.7470   -9.8274    2.0368 C   0  0  0  0  0  0  0  0  0  0  0  0
    1.0387   -7.0301    2.5175 O   0  0  0  0  0  0  0  0  0  0  0  0
    0.4168  -13.5765    2.8119 Cl  0  0  0  0  0  0  0  0  0  0  0  0
    0.7882   -9.0323    0.9173 C   0  0  0  0  0  0  0  0  0  0  0  0
    0.9164   -9.5286   -0.2087 O   0  0  0  0  0  0  0  0  0  0  0  0
  1  2  1  0
  1  8  2  0
  5  9  1  0
  7 10  1  0
 10 11  2  0
  2  3  2  0
  3  4  1  0
  4  5  2  0
  5  6  1  0
  6  7  2  0
  2  7  1  0
M  END

$$$$
No_3662-/export/home/yangzhenyu/potential_scad_32_flow//YTHDC2/2024-12-06-03-22-00/
     RDKit          3D

 17 18  0  0  1  0  0  0  0  0999 V2000
    1.1787   -8.0297    3.5154 C   0  0  0  0  0  0  0  0  0  0  0  0
    1.0491   -6.8434    2.9820 C   0  0  0  0  0  0  0  0  0  0  0  0
    0.9905   -9.0774    2.6527 C   0  0  0  0  0  0  0  0  0  0  0  0
    0.9687   -8.6883    1.3634 C   0  0  0  0  0  0  0  0  0  0  0  0
    1.0948   -6.3768    1.7686 C   0  0  0  0  0  0  0  0  0  0  0  0
    0.9504   -7.3975    0.8471 C   0  0  0  0  0  0  0  0  0  0  0  0
    1.0365  -10.4250    2.9992 C   0  0  1  0  0  0  0  0  0  0  0  0
    2.1481  -10.9990    3.3342 C   0  0  0  0  0  0  0  0  0  0  0  0
    2.1532  -12.3227    3.7886 C   0  0  0  0  0  0  0  0  0  0  0  0
    1.0893  -13.0219    3.9142 N   0  0  0  0  0  0  0  0  0  0  0  0
    0.1086  -11.4777    3.3743 C   0  0  0  0  0  0  0  0  0  0  0  0
   -1.0420  -11.6642    3.2848 O   0  0  0  0  0  0  0  0  0  0  0  0
    1.0542   -5.0527    1.2687 C   0  0  0  0  0  0  0  0  0  0  0  0
    1.7486   -4.1475    1.9798 O   0  0  0  0  0  0  0  0  0  0  0  0
    0.2370   -4.6493    0.5114 O   0  0  0  0  0  0  0  0  0  0  0  0
    0.8059   -9.9630    0.0371 N   0  0  0  0  0  0  0  0  0  0  0  0
   -0.1319  -10.0033   -0.5149 O   0  0  0  0  0  0  0  0  0  0  0  0
  7  3  1  1
  7  8  1  0
  8  9  2  0
  9 10  1  0
  7 11  1  0
 10 11  1  0
 11 12  2  0
  5 13  1  0
 13 14  1  0
 13 15  2  0
  4 16  1  0
 16 17  2  0
  1  2  2  0
  2  5  1  0
  5  6  2  0
  4  6  1  0
  3  4  2  0
  1  3  1  0
M  END

$$$$
No_3663-/export/home/yangzhenyu/potential_scad_32_flow//YTHDC2/2024-12-06-03-22-00/
     RDKit          3D

 19 20  0  0  1  0  0  0  0  0999 V2000
    1.1787   -8.0297    3.5154 C   0  0  0  0  0  0  0  0  0  0  0  0
    1.1048   -9.2215    3.2892 C   0  0  0  0  0  0  0  0  0  0  0  0
    1.3627  -10.1721    4.3044 C   0  0  0  0  0  0  0  0  0  0  0  0
    1.0682  -11.5187    4.0618 C   0  0  0  0  0  0  0  0  0  0  0  0
    0.6332  -11.9655    2.9682 C   0  0  0  0  0  0  0  0  0  0  0  0
    0.4776  -11.1308    1.9203 C   0  0  0  0  0  0  0  0  0  0  0  0
    0.7470   -9.8274    2.0368 C   0  0  0  0  0  0  0  0  0  0  0  0
    0.5535   -7.1314    2.6861 C   0  0  2  0  0  0  0  0  0  0  0  0
    0.2950   -7.6000    1.3275 C   0  0  0  0  0  0  0  0  0  0  0  0
    0.2693   -8.8631    1.0973 C   0  0  1  0  0  0  0  0  0  0  0  0
   -0.0069   -6.7080    0.3888 O   0  0  0  0  0  0  0  0  0  0  0  0
    0.4773  -13.6209    2.7227 F   0  0  0  0  0  0  0  0  0  0  0  0
    0.0190   -9.3141   -0.1780 C   0  0  0  0  0  0  0  0  0  0  0  0
   -1.3714   -9.7375   -0.3581 O   0  0  0  0  0  0  0  0  0  0  0  0
    0.7526   -9.1929   -1.2018 O   0  0  0  0  0  0  0  0  0  0  0  0
    0.7828   -5.6551    2.8839 C   0  0  0  0  0  0  0  0  0  0  0  0
   -0.3496   -4.8831    2.9214 C   0  0  0  0  0  0  0  0  0  0  0  0
   -0.1277   -3.4399    3.2127 C   0  0  0  0  0  0  0  0  0  0  0  0
    1.1581   -2.9583    3.3350 C   0  0  0  0  0  0  0  0  0  0  0  0
  1  2  1  0
  8  9  1  0
  7 10  1  0
  9 10  1  0
  9 11  2  0
  5 12  1  0
 10 13  1  6
 13 14  1  0
 13 15  2  0
  8 16  1  6
 16 17  1  0
 17 18  2  3
 18 19  1  0
  1  8  1  0
  2  3  2  0
  3  4  1  0
  4  5  2  0
  5  6  1  0
  6  7  2  0
  2  7  1  0
M  END

$$$$
No_3664-/export/home/yangzhenyu/potential_scad_32_flow//YTHDC2/2024-12-06-03-22-00/
     RDKit          3D

 20 20  0  0  1  0  0  0  0  0999 V2000
    1.1787   -8.0297    3.5154 C   0  0  0  0  0  0  0  0  0  0  0  0
    1.1048   -9.2215    3.2892 C   0  0  0  0  0  0  0  0  0  0  0  0
    1.2339   -9.7611    2.0189 C   0  0  0  0  0  0  0  0  0  0  0  0
    1.3583   -9.0036    0.9764 C   0  0  0  0  0  0  0  0  0  0  0  0
    1.5996   -7.6362    1.1311 C   0  0  0  0  0  0  0  0  0  0  0  0
    1.4830   -7.0928    2.3626 C   0  0  0  0  0  0  0  0  0  0  0  0
    1.5395   -5.7300    2.6182 C   0  0  0  0  0  0  0  0  0  0  0  0
    1.1775  -11.2233    1.8407 C   0  0  0  0  0  0  0  0  0  0  0  0
    1.9057  -12.1147    2.3397 Cl  0  0  0  0  0  0  0  0  0  0  0  0
    0.1547  -11.5723    0.8179 O   0  0  0  0  0  0  0  0  0  0  0  0
    1.6731   -5.1738    3.8871 N   0  0  0  0  0  0  0  0  0  0  0  0
    1.0767   -4.8346    1.6545 O   0  0  0  0  0  0  0  0  0  0  0  0
    1.5432   -9.4050   -0.3571 C   0  0  0  0  0  0  0  0  0  0  0  0
    1.7898   -8.6997   -1.2995 O   0  0  0  0  0  0  0  0  0  0  0  0
    1.2698  -10.5513   -0.7315 O   0  0  0  0  0  0  0  0  0  0  0  0
    0.8576  -10.1279    4.3923 Cl  0  0  0  0  0  0  0  0  0  0  0  0
    1.5881   -3.7876    3.9086 C   0  0  2  0  0  0  0  0  0  0  0  0
    2.4160   -2.9544    3.4115 C   0  0  0  0  0  0  0  0  0  0  0  0
    0.8303   -3.1878    5.0226 C   0  0  0  0  0  0  0  0  0  0  0  0
    0.6018   -1.7452    4.8261 C   0  0  0  0  0  0  0  0  0  0  0  0
  6  7  1  0
  3  8  1  0
  8  9  1  0
  8 10  2  0
  7 11  1  0
  7 12  2  0
  4 13  1  0
 13 14  2  0
 13 15  1  0
  2 16  1  0
 11 17  1  0
 17 18  1  1
 17 19  1  0
 19 20  2  0
  1  2  2  0
  2  3  1  0
  3  4  2  0
  4  5  1  0
  5  6  2  0
  1  6  1  0
M  END

$$$$
No_3665-/export/home/yangzhenyu/potential_scad_32_flow//YTHDC2/2024-12-06-03-22-00/
     RDKit          3D

 19 19  0  0  0  0  0  0  0  0999 V2000
    1.1787   -8.0297    3.5154 C   0  0  0  0  0  0  0  0  0  0  0  0
    1.1048   -9.2215    3.2892 C   0  0  0  0  0  0  0  0  0  0  0  0
    1.3627  -10.1721    4.3044 C   0  0  0  0  0  0  0  0  0  0  0  0
    1.7354  -11.4730    3.9023 C   0  0  0  0  0  0  0  0  0  0  0  0
    1.8080  -11.8127    2.7216 C   0  0  0  0  0  0  0  0  0  0  0  0
    1.5854  -11.0021    1.7249 C   0  0  0  0  0  0  0  0  0  0  0  0
    1.3573   -9.7389    1.9287 C   0  0  0  0  0  0  0  0  0  0  0  0
    1.2865   -8.8078    0.9161 C   0  0  0  0  0  0  0  0  0  0  0  0
    1.6845   -9.1638   -0.2896 O   0  0  0  0  0  0  0  0  0  0  0  0
    0.9531   -7.5121    1.0883 O   0  0  0  0  0  0  0  0  0  0  0  0
    2.0767  -13.2100    2.3154 O   0  0  0  0  0  0  0  0  0  0  0  0
    0.0892   -7.2169    3.4116 O   0  0  0  0  0  0  0  0  0  0  0  0
    1.7430  -14.2798    3.0352 C   0  0  0  0  0  0  0  0  0  0  0  0
    2.1470  -15.4866    2.3982 C   0  0  0  0  0  0  0  0  0  0  0  0
    1.8275  -16.6634    3.0427 O   0  0  0  0  0  0  0  0  0  0  0  0
    2.8892  -15.5082    1.4877 Cl  0  0  0  0  0  0  0  0  0  0  0  0
    0.1087   -6.0028    2.8496 C   0  0  0  0  0  0  0  0  0  0  0  0
    1.2777   -5.3102    2.8948 C   0  0  0  0  0  0  0  0  0  0  0  0
   -0.5523   -6.1046    1.5474 C   0  0  0  0  0  0  0  0  0  0  0  0
  1  2  1  0
  7  8  1  0
  8  9  2  0
  8 10  1  0
  5 11  1  0
  1 12  1  0
 11 13  1  0
 13 14  1  0
 14 15  2  0
 14 16  1  0
 12 17  1  0
 17 18  1  0
 17 19  1  0
  2  3  2  0
  3  4  1  0
  4  5  2  0
  5  6  1  0
  6  7  2  0
  2  7  1  0
M  END

$$$$
No_3666-/export/home/yangzhenyu/potential_scad_32_flow//YTHDC2/2024-12-06-03-22-00/
     RDKit          3D

 17 18  0  0  0  0  0  0  0  0999 V2000
    1.1787   -8.0297    3.5154 N   0  0  0  0  0  0  0  0  0  0  0  0
    0.8669   -7.0905    2.8589 C   0  0  0  0  0  0  0  0  0  0  0  0
    0.8842   -5.8387    3.2677 N   0  0  0  0  0  0  0  0  0  0  0  0
    0.7046   -7.3396    1.4853 N   0  0  0  0  0  0  0  0  0  0  0  0
    1.2975   -9.3270    2.9751 C   0  0  0  0  0  0  0  0  0  0  0  0
    1.0809   -9.5153    1.6126 C   0  0  0  0  0  0  0  0  0  0  0  0
    0.7188   -8.4734    0.9112 C   0  0  0  0  0  0  0  0  0  0  0  0
    1.7223  -10.5942    3.8160 C   0  0  0  0  0  0  0  0  0  0  0  0
    1.1894  -10.7788    0.9934 C   0  0  0  0  0  0  0  0  0  0  0  0
    1.0144  -11.8455    1.6149 C   0  0  0  0  0  0  0  0  0  0  0  0
    1.4266  -11.8510    3.0517 C   0  0  0  0  0  0  0  0  0  0  0  0
    0.7419   -8.4482   -0.5258 C   0  0  0  0  0  0  0  0  0  0  0  0
    1.7102  -13.0340    3.7444 C   0  0  0  0  0  0  0  0  0  0  0  0
   -0.5942   -8.7892   -0.9856 O   0  0  0  0  0  0  0  0  0  0  0  0
    1.5830   -8.5264   -1.3141 O   0  0  0  0  0  0  0  0  0  0  0  0
    1.2036  -14.2692    2.8492 N   0  0  0  0  0  0  0  0  0  0  0  0
   -0.1161  -14.7024    3.2920 C   0  0  0  0  0  0  0  0  0  0  0  0
  2  3  1  0
  7 12  1  0
 11 13  1  0
 12 14  2  0
 12 15  1  0
 13 16  1  0
 16 17  1  0
  6  9  2  0
  9 10  1  0
 10 11  2  0
  8 11  1  0
  5  8  2  0
  1  2  2  0
  2  4  1  0
  4  7  2  0
  6  7  1  0
  5  6  1  0
  1  5  1  0
M  END

$$$$
No_3667-/export/home/yangzhenyu/potential_scad_32_flow//YTHDC2/2024-12-06-03-22-00/
     RDKit          3D

 18 18  0  0  1  0  0  0  0  0999 V2000
    1.1787   -8.0297    3.5154 C   0  0  0  0  0  0  0  0  0  0  0  0
    1.1048   -9.2215    3.2892 C   0  0  0  0  0  0  0  0  0  0  0  0
    1.2339   -9.7611    2.0189 C   0  0  0  0  0  0  0  0  0  0  0  0
    1.3583   -9.0036    0.9764 C   0  0  1  0  0  0  0  0  0  0  0  0
    1.5996   -7.6362    1.1311 F   0  0  0  0  0  0  0  0  0  0  0  0
    1.7898   -9.4915   -0.2758 C   0  0  0  0  0  0  0  0  0  0  0  0
    2.0369   -8.7415   -1.2421 O   0  0  0  0  0  0  0  0  0  0  0  0
    1.8849  -10.7162   -0.4302 O   0  0  0  0  0  0  0  0  0  0  0  0
    0.4561  -10.1287    4.3596 O   0  0  0  0  0  0  0  0  0  0  0  0
   -0.4596  -11.0701    4.0060 C   0  0  0  0  0  0  0  0  0  0  0  0
   -1.7173  -10.7193    3.9530 C   0  0  0  0  0  0  0  0  0  0  0  0
   -2.5685  -11.6570    3.3312 C   0  0  0  0  0  0  0  0  0  0  0  0
   -2.0964  -12.7497    2.7335 C   0  0  0  0  0  0  0  0  0  0  0  0
   -0.7103  -12.9088    2.5698 C   0  0  0  0  0  0  0  0  0  0  0  0
    0.1890  -11.9963    3.1638 C   0  0  0  0  0  0  0  0  0  0  0  0
   -0.1980  -14.0452    1.8400 O   0  0  0  0  0  0  0  0  0  0  0  0
    1.1322  -14.3673    2.1111 C   0  0  0  0  0  0  0  0  0  0  0  0
    2.0459  -13.9854    1.3122 C   0  0  0  0  0  0  0  0  0  0  0  0
  1  2  1  0
  2  3  2  3
  3  4  1  0
  4  5  1  1
  4  6  1  0
  6  7  1  0
  6  8  2  0
  2  9  1  0
  9 10  1  0
 14 16  1  0
 16 17  1  0
 17 18  1  0
 10 11  2  0
 11 12  1  0
 12 13  2  0
 13 14  1  0
 14 15  2  0
 10 15  1  0
M  END

$$$$
No_3668-/export/home/yangzhenyu/potential_scad_32_flow//YTHDC2/2024-12-06-03-22-00/
     RDKit          3D

 18 19  0  0  1  0  0  0  0  0999 V2000
    1.1787   -8.0297    3.5154 N   0  0  0  0  0  0  0  0  0  0  0  0
    1.0818   -9.0751    3.2053 C   0  0  0  0  0  0  0  0  0  0  0  0
    1.5216  -10.1164    3.9747 C   0  0  0  0  0  0  0  0  0  0  0  0
    1.4420  -11.4363    3.6461 C   0  0  0  0  0  0  0  0  0  0  0  0
    0.5969  -11.7648    2.6785 C   0  0  0  0  0  0  0  0  0  0  0  0
    0.0096  -10.8332    1.9506 C   0  0  0  0  0  0  0  0  0  0  0  0
    0.3359   -9.5186    2.1388 C   0  0  0  0  0  0  0  0  0  0  0  0
    0.8819   -6.9011    2.6487 C   0  0  0  0  0  0  0  0  0  0  0  0
    0.4076   -7.2265    1.4607 C   0  0  0  0  0  0  0  0  0  0  0  0
    0.0604   -8.4780    1.1746 C   0  0  0  0  0  0  0  0  0  0  0  0
    1.3141   -5.5339    3.0609 C   0  0  0  0  0  0  0  0  0  0  0  0
    0.3089  -13.1703    2.3858 C   0  0  0  0  0  0  0  0  0  0  0  0
   -0.9194  -13.6196    2.2319 C   0  0  1  0  0  0  0  0  0  0  0  0
   -1.9947  -12.9743    2.3726 N   0  0  0  0  0  0  0  0  0  0  0  0
   -1.0849  -14.9108    1.7024 C   0  0  0  0  0  0  0  0  0  0  0  0
   -3.1554  -13.4775    2.1742 N   0  0  0  0  0  0  0  0  0  0  0  0
    0.0526  -15.7482    1.5798 C   0  0  0  0  0  0  0  0  0  0  0  0
   -3.2456  -14.4421    1.8886 H   0  0  0  0  0  0  0  0  0  0  0  0
  8 11  1  0
  5 12  1  0
 13 12  1  6
 13 14  1  0
 13 15  1  0
 14 16  2  0
 15 17  2  0
  2  3  1  0
  3  4  2  0
  4  5  1  0
  5  6  2  0
  6  7  1  0
  1  2  2  0
  2  7  1  0
  7 10  2  0
  9 10  1  0
  8  9  2  0
  1  8  1  0
 16 18  1  0
M  END

$$$$
No_3669-/export/home/yangzhenyu/potential_scad_32_flow//YTHDC2/2024-12-06-03-22-00/
     RDKit          3D

 19 20  0  0  1  0  0  0  0  0999 V2000
    1.1787   -8.0297    3.5154 C   0  0  0  0  0  0  0  0  0  0  0  0
    1.0491   -6.8434    2.9820 C   0  0  0  0  0  0  0  0  0  0  0  0
    1.9985   -8.9840    2.8958 C   0  0  2  0  0  0  0  0  0  0  0  0
    1.7297   -9.2108    1.6335 C   0  0  1  0  0  0  0  0  0  0  0  0
    1.7343   -8.0566    0.8408 C   0  0  0  0  0  0  0  0  0  0  0  0
    1.0269   -6.8892    1.4456 C   0  0  0  0  0  0  0  0  0  0  0  0
    2.0740   -7.9416   -0.3682 O   0  0  0  0  0  0  0  0  0  0  0  0
    1.9646  -10.3580    3.5767 C   0  0  0  0  0  0  0  0  0  0  0  0
    1.1665  -11.3332    3.3170 C   0  0  2  0  0  0  0  0  0  0  0  0
    1.4579  -12.6468    3.4877 C   0  0  0  0  0  0  0  0  0  0  0  0
    0.4791  -13.5451    2.9665 C   0  0  0  0  0  0  0  0  0  0  0  0
   -0.5977  -12.6454    2.4158 C   0  0  0  0  0  0  0  0  0  0  0  0
   -0.0779  -11.3377    2.6912 C   0  0  0  0  0  0  0  0  0  0  0  0
    0.5694  -14.9977    2.9257 S   0  0  0  0  0  0  0  0  0  0  0  0
    1.9893  -15.4396    2.8273 C   0  0  0  0  0  0  0  0  0  0  0  0
    2.4077  -16.9131    2.8191 O   0  0  0  0  0  0  0  0  0  0  0  0
    2.3962  -10.1425    0.8164 C   0  0  0  0  0  0  0  0  0  0  0  0
    3.5665  -17.1331    2.1984 C   0  0  0  0  0  0  0  0  0  0  0  0
   -1.6282  -13.0406    1.8743 C   0  0  0  0  0  0  0  0  0  0  0  0
  1  2  1  0
  1  3  1  0
  3  4  1  0
  4  5  1  0
  2  6  1  0
  5  6  1  0
  5  7  2  0
  3  8  1  1
  9  8  1  6
  9 10  1  0
 10 11  2  0
 11 12  1  0
  9 13  1  0
 12 13  1  0
 11 14  1  0
 14 15  1  0
 15 16  1  0
  4 17  1  6
 16 18  1  0
 12 19  1  0
M  END

$$$$
No_3670-/export/home/yangzhenyu/potential_scad_32_flow//YTHDC2/2024-12-06-03-22-00/
     RDKit          3D

 19 19  0  0  1  0  0  0  0  0999 V2000
    1.1787   -8.0297    3.5154 C   0  0  0  0  0  0  0  0  0  0  0  0
    1.0491   -6.8434    2.9820 C   0  0  0  0  0  0  0  0  0  0  0  0
    1.9985   -8.9840    2.8958 C   0  0  0  0  0  0  0  0  0  0  0  0
    1.9135  -10.3404    3.6266 C   0  0  0  0  0  0  0  0  0  0  0  0
    1.3291  -11.3908    3.0222 C   0  0  1  0  0  0  0  0  0  0  0  0
    1.0344  -11.3281    1.7959 C   0  0  0  0  0  0  0  0  0  0  0  0
    1.7340   -5.8103    3.4001 C   0  0  0  0  0  0  0  0  0  0  0  0
    0.4356  -12.5675    1.2737 Cl  0  0  0  0  0  0  0  0  0  0  0  0
    1.3807   -4.5022    2.8193 C   0  0  0  0  0  0  0  0  0  0  0  0
    0.5862   -4.3756    1.8062 C   0  0  0  0  0  0  0  0  0  0  0  0
   -0.0068   -5.5114    1.2739 C   0  0  0  0  0  0  0  0  0  0  0  0
    0.2021   -6.7670    1.8207 C   0  0  0  0  0  0  0  0  0  0  0  0
   -0.4538   -7.8224    1.4365 C   0  0  0  0  0  0  0  0  0  0  0  0
    1.9829  -12.5763    3.4241 C   0  0  0  0  0  0  0  0  0  0  0  0
   -1.5019   -7.8811    0.8884 O   0  0  0  0  0  0  0  0  0  0  0  0
    1.5585  -13.4568    4.0937 O   0  0  0  0  0  0  0  0  0  0  0  0
    0.2857   -3.1402    1.1597 Br  0  0  0  0  0  0  0  0  0  0  0  0
    0.2488   -9.0251    1.2728 O   0  0  0  0  0  0  0  0  0  0  0  0
    2.4270  -10.2766    4.8587 O   0  0  0  0  0  0  0  0  0  0  0  0
  1  2  1  0
  1  3  1  0
  3  4  1  0
  4  5  1  0
  5  6  1  6
  6  8  1  0
 12 13  1  0
  5 14  1  0
 13 15  2  0
 14 16  1  0
 10 17  1  0
 13 18  1  0
  4 19  2  0
  2  7  2  0
  7  9  1  0
  9 10  2  0
 10 11  1  0
 11 12  2  0
  2 12  1  0
M  END

$$$$
No_3671-/export/home/yangzhenyu/potential_scad_32_flow//YTHDC2/2024-12-06-03-22-00/
     RDKit          3D

 20 22  0  0  1  0  0  0  0  0999 V2000
    1.1787   -8.0297    3.5154 C   0  0  0  0  0  0  0  0  0  0  0  0
    1.1048   -9.2215    3.2892 C   0  0  0  0  0  0  0  0  0  0  0  0
    1.3627  -10.1721    4.3044 C   0  0  0  0  0  0  0  0  0  0  0  0
    1.0682  -11.5187    4.0618 C   0  0  0  0  0  0  0  0  0  0  0  0
    0.6332  -11.9655    2.9682 C   0  0  0  0  0  0  0  0  0  0  0  0
    0.4776  -11.1308    1.9203 C   0  0  0  0  0  0  0  0  0  0  0  0
    0.7470   -9.8274    2.0368 C   0  0  0  0  0  0  0  0  0  0  0  0
    0.5535   -7.1314    2.6861 N   0  0  0  0  0  0  0  0  0  0  0  0
    0.3069   -7.6119    1.3920 C   0  0  0  0  0  0  0  0  0  0  0  0
    0.2579   -8.8240    1.1187 C   0  0  1  0  0  0  0  0  0  0  0  0
   -0.0936   -6.6529    0.5865 O   0  0  0  0  0  0  0  0  0  0  0  0
    0.4909  -13.3930    2.7171 C   0  0  0  0  0  0  0  0  0  0  0  0
    1.3694  -14.3253    2.7675 C   0  0  0  0  0  0  0  0  0  0  0  0
    1.1185  -15.6625    2.7129 C   0  0  0  0  0  0  0  0  0  0  0  0
   -0.0448  -16.1188    2.3419 C   0  0  0  0  0  0  0  0  0  0  0  0
   -1.0900  -15.1927    2.2537 C   0  0  0  0  0  0  0  0  0  0  0  0
   -0.8160  -13.8656    2.4326 C   0  0  0  0  0  0  0  0  0  0  0  0
   -1.7568  -12.9525    2.1034 C   0  0  0  0  0  0  0  0  0  0  0  0
    0.0246   -9.2443   -0.1697 C   0  0  0  0  0  0  0  0  0  0  0  0
   -1.2249   -9.8334   -0.4225 O   0  0  0  0  0  0  0  0  0  0  0  0
  1  2  1  0
  8  9  1  0
  7 10  1  0
  9 10  1  0
  9 11  2  0
  5 12  1  0
 17 18  1  0
 10 19  1  6
 19 20  2  0
  1  8  1  0
 12 13  2  0
 13 14  1  0
 14 15  2  0
 15 16  1  0
 16 17  2  0
 12 17  1  0
  2  3  2  0
  3  4  1  0
  4  5  2  0
  5  6  1  0
  6  7  2  0
  2  7  1  0
M  END

$$$$
No_3672-/export/home/yangzhenyu/potential_scad_32_flow//YTHDC2/2024-12-06-03-22-00/
     RDKit          3D

 19 19  0  0  1  0  0  0  0  0999 V2000
    1.1787   -8.0297    3.5154 C   0  0  0  0  0  0  0  0  0  0  0  0
    1.1048   -9.2215    3.2892 C   0  0  0  0  0  0  0  0  0  0  0  0
    1.4683  -10.2314    4.1915 C   0  0  0  0  0  0  0  0  0  0  0  0
    0.8445   -6.9865    2.5175 C   0  0  0  0  0  0  0  0  0  0  0  0
    0.3587   -7.3973    1.3953 C   0  0  0  0  0  0  0  0  0  0  0  0
    0.1901   -8.6971    1.0711 C   0  0  1  0  0  0  0  0  0  0  0  0
   -0.2481   -9.0184   -0.2764 C   0  0  0  0  0  0  0  0  0  0  0  0
    0.5993   -9.7155    1.9143 C   0  0  0  0  0  0  0  0  0  0  0  0
    0.6757  -11.4266    4.2569 O   0  0  0  0  0  0  0  0  0  0  0  0
   -0.5339  -10.2883   -0.5091 O   0  0  0  0  0  0  0  0  0  0  0  0
   -0.0512   -8.2038   -1.2951 O   0  0  0  0  0  0  0  0  0  0  0  0
    2.5965  -10.2302    4.8459 O   0  0  0  0  0  0  0  0  0  0  0  0
    1.0015   -5.5412    2.7839 C   0  0  1  0  0  0  0  0  0  0  0  0
    1.2694  -10.7511    1.4434 O   0  0  0  0  0  0  0  0  0  0  0  0
    1.6946   -5.2785    3.9014 C   0  0  0  0  0  0  0  0  0  0  0  0
    0.6758   -4.6885    1.8691 C   0  0  0  0  0  0  0  0  0  0  0  0
   -0.2320   -4.2361    1.4886 C   0  0  0  0  0  0  0  0  0  0  0  0
   -0.7841   -3.3407    1.2825 C   0  0  0  0  0  0  0  0  0  0  0  0
   -1.9403   -2.9154    0.7564 C   0  0  0  0  0  0  0  0  0  0  0  0
  2  3  1  0
  1  4  1  0
  5  6  1  0
  6  7  1  6
  2  8  1  0
  6  8  1  0
  3  9  1  0
  7 10  2  0
  7 11  1  0
  3 12  2  0
  4 13  1  0
  8 14  2  0
 13 15  1  6
 13 16  1  0
 16 17  2  3
 17 18  1  0
 18 19  2  0
  1  2  1  0
  4  5  1  0
M  END

$$$$
No_3673-/export/home/yangzhenyu/potential_scad_32_flow//YTHDC2/2024-12-06-03-22-00/
     RDKit          3D

 20 21  0  0  1  0  0  0  0  0999 V2000
    1.1787   -8.0297    3.5154 C   0  0  0  0  0  0  0  0  0  0  0  0
    1.0491   -6.8434    2.9820 C   0  0  0  0  0  0  0  0  0  0  0  0
    0.9905   -9.0774    2.6527 C   0  0  0  0  0  0  0  0  0  0  0  0
    0.7897   -8.9519    1.3691 C   0  0  0  0  0  0  0  0  0  0  0  0
    0.7018   -7.7198    0.7892 C   0  0  0  0  0  0  0  0  0  0  0  0
    0.8918   -6.5957    1.6117 C   0  0  0  0  0  0  0  0  0  0  0  0
    1.0711  -10.4814    3.2282 C   0  0  2  0  0  0  0  0  0  0  0  0
    2.1432  -11.0138    3.5962 C   0  0  0  0  0  0  0  0  0  0  0  0
   -0.0553  -11.2345    3.2841 C   0  0  0  0  0  0  0  0  0  0  0  0
   -0.7563  -11.4623    2.5482 C   0  0  0  0  0  0  0  0  0  0  0  0
   -2.0734  -12.1021    2.5891 N   0  0  0  0  0  0  0  0  0  0  0  0
    0.8655   -5.0656    1.0628 O   0  0  0  0  0  0  0  0  0  0  0  0
   -2.8033  -12.2626    1.6907 C   0  0  0  0  0  0  0  0  0  0  0  0
   -3.9763  -12.8568    1.8988 C   0  0  0  0  0  0  0  0  0  0  0  0
   -4.1568  -13.3808    3.0438 C   0  0  0  0  0  0  0  0  0  0  0  0
   -5.3846  -14.0164    3.1874 C   0  0  0  0  0  0  0  0  0  0  0  0
   -5.6918  -14.7871    4.4518 C   0  0  0  0  0  0  0  0  0  0  0  0
   -4.6906  -14.8253    5.4711 C   0  0  0  0  0  0  0  0  0  0  0  0
   -3.4837  -14.1928    5.3763 C   0  0  0  0  0  0  0  0  0  0  0  0
   -3.2237  -13.5781    4.1638 C   0  0  0  0  0  0  0  0  0  0  0  0
  3  7  1  0
  7  8  1  6
  7  9  1  0
  9 10  2  3
 10 11  1  0
  6 12  1  0
 11 13  1  0
 13 14  1  0
 14 15  1  0
 15 16  2  0
 16 17  1  0
 17 18  2  0
 18 19  1  0
 19 20  2  0
 15 20  1  0
  1  2  2  0
  2  6  1  0
  5  6  2  0
  4  5  1  0
  3  4  2  0
  1  3  1  0
M  END

$$$$
No_3674-/export/home/yangzhenyu/potential_scad_32_flow//YTHDC2/2024-12-06-03-22-00/
     RDKit          3D

 18 19  0  0  0  0  0  0  0  0999 V2000
    1.1787   -8.0297    3.5154 C   0  0  0  0  0  0  0  0  0  0  0  0
    1.0491   -6.8434    2.9820 C   0  0  0  0  0  0  0  0  0  0  0  0
    0.0950   -8.8404    3.2292 C   0  0  0  0  0  0  0  0  0  0  0  0
   -0.9173   -8.4596    2.5152 C   0  0  0  0  0  0  0  0  0  0  0  0
   -1.0331   -7.2162    2.0653 C   0  0  0  0  0  0  0  0  0  0  0  0
   -0.0105   -6.3168    2.3081 C   0  0  0  0  0  0  0  0  0  0  0  0
    0.1935  -10.3737    3.7416 C   0  0  0  0  0  0  0  0  0  0  0  0
    1.2406  -10.8901    4.0986 C   0  0  0  0  0  0  0  0  0  0  0  0
    1.1186  -12.3145    4.4006 C   0  0  0  0  0  0  0  0  0  0  0  0
    0.8333  -12.9811    3.2728 C   0  0  0  0  0  0  0  0  0  0  0  0
    0.1619  -12.5098    2.4239 C   0  0  0  0  0  0  0  0  0  0  0  0
   -0.2274  -11.1008    2.4965 C   0  0  0  0  0  0  0  0  0  0  0  0
    1.1084  -14.4568    3.2848 Cl  0  0  0  0  0  0  0  0  0  0  0  0
   -0.1086   -4.9912    1.8573 C   0  0  0  0  0  0  0  0  0  0  0  0
    0.7212   -4.0103    2.3770 C   0  0  0  0  0  0  0  0  0  0  0  0
    0.7006   -2.6332    2.0848 C   0  0  0  0  0  0  0  0  0  0  0  0
    1.1895   -1.7285    2.8647 C   0  0  0  0  0  0  0  0  0  0  0  0
   -0.7699   -4.3867    0.7975 C   0  0  0  0  0  0  0  0  0  0  0  0
  3  7  1  0
 10 13  1  0
  6 14  1  0
 14 15  2  3
 15 16  1  0
 16 17  1  0
 14 18  1  0
  1  2  2  0
  2  6  1  0
  5  6  2  0
  4  5  1  0
  3  4  2  0
  1  3  1  0
  7  8  2  0
  8  9  1  0
  9 10  2  0
 10 11  1  0
 11 12  2  0
  7 12  1  0
M  END

$$$$
No_3675-/export/home/yangzhenyu/potential_scad_32_flow//YTHDC2/2024-12-06-03-22-00/
     RDKit          3D

 18 19  0  0  0  0  0  0  0  0999 V2000
    1.1787   -8.0297    3.5154 C   0  0  0  0  0  0  0  0  0  0  0  0
    1.0491   -6.8434    2.9820 C   0  0  0  0  0  0  0  0  0  0  0  0
    0.0950   -8.8404    3.2292 C   0  0  0  0  0  0  0  0  0  0  0  0
   -0.9173   -8.4596    2.5152 C   0  0  0  0  0  0  0  0  0  0  0  0
   -1.0331   -7.2162    2.0653 C   0  0  0  0  0  0  0  0  0  0  0  0
   -0.0105   -6.3168    2.3081 C   0  0  0  0  0  0  0  0  0  0  0  0
    0.1465  -10.2446    3.6981 C   0  0  0  0  0  0  0  0  0  0  0  0
   -1.0337  -10.8619    3.9439 C   0  0  0  0  0  0  0  0  0  0  0  0
   -2.1702  -10.4673    3.2991 C   0  0  0  0  0  0  0  0  0  0  0  0
   -2.1358   -9.2084    2.5791 C   0  0  0  0  0  0  0  0  0  0  0  0
   -0.0407   -4.9560    1.8452 C   0  0  0  0  0  0  0  0  0  0  0  0
    0.8459   -4.0706    2.2047 O   0  0  0  0  0  0  0  0  0  0  0  0
   -1.1570   -4.4383    1.2695 O   0  0  0  0  0  0  0  0  0  0  0  0
    1.3065  -10.7272    4.5343 C   0  0  0  0  0  0  0  0  0  0  0  0
    2.1932  -11.4638    3.7007 C   0  0  0  0  0  0  0  0  0  0  0  0
    1.7762  -11.8523    2.5709 C   0  0  0  0  0  0  0  0  0  0  0  0
    1.9519  -11.1182    1.3684 C   0  0  0  0  0  0  0  0  0  0  0  0
    1.2748  -11.3970    0.2890 C   0  0  0  0  0  0  0  0  0  0  0  0
  6 11  1  0
 11 12  2  0
 11 13  1  0
  7 14  1  0
 14 15  1  0
 15 16  1  0
 16 17  1  0
 17 18  2  0
  4 10  2  0
  9 10  1  0
  8  9  2  0
  7  8  1  0
  3  7  2  0
  1  2  2  0
  2  6  1  0
  5  6  2  0
  4  5  1  0
  3  4  1  0
  1  3  1  0
M  END

$$$$
No_3676-/export/home/yangzhenyu/potential_scad_32_flow//YTHDC2/2024-12-06-03-22-00/
     RDKit          3D

 19 20  0  0  0  0  0  0  0  0999 V2000
    1.1787   -8.0297    3.5154 C   0  0  0  0  0  0  0  0  0  0  0  0
    1.0491   -6.8434    2.9820 C   0  0  0  0  0  0  0  0  0  0  0  0
    0.9905   -9.0774    2.6527 C   0  0  0  0  0  0  0  0  0  0  0  0
    0.7897   -8.9519    1.3691 C   0  0  0  0  0  0  0  0  0  0  0  0
    0.7018   -7.7198    0.7892 C   0  0  0  0  0  0  0  0  0  0  0  0
    0.8918   -6.5957    1.6117 C   0  0  0  0  0  0  0  0  0  0  0  0
    1.0711  -10.4814    3.2282 C   0  0  0  0  0  0  0  0  0  0  0  0
    1.1227  -11.5770    2.4616 C   0  0  0  0  0  0  0  0  0  0  0  0
    1.2925  -12.6410    2.9041 C   0  0  0  0  0  0  0  0  0  0  0  0
    1.0966  -13.8838    1.9999 C   0  0  0  0  0  0  0  0  0  0  0  0
    0.7332  -13.6893    0.7603 C   0  0  0  0  0  0  0  0  0  0  0  0
    0.5115  -12.3960    0.3288 C   0  0  0  0  0  0  0  0  0  0  0  0
    0.7081  -11.3001    1.1522 C   0  0  0  0  0  0  0  0  0  0  0  0
    1.4265  -10.5199    4.5649 O   0  0  0  0  0  0  0  0  0  0  0  0
    0.8293   -5.2675    1.1523 O   0  0  0  0  0  0  0  0  0  0  0  0
    1.4347  -15.2270    2.5116 Cl  0  0  0  0  0  0  0  0  0  0  0  0
    0.3877   -4.2032    1.8352 C   0  0  0  0  0  0  0  0  0  0  0  0
   -1.0248   -4.1810    1.7693 C   0  0  0  0  0  0  0  0  0  0  0  0
   -1.6963   -4.2870    0.7894 C   0  0  0  0  0  0  0  0  0  0  0  0
  3  7  1  0
  7  8  1  0
  7 14  2  0
  6 15  1  0
 10 16  1  0
 15 17  1  0
 17 18  1  0
 18 19  1  0
  1  2  2  0
  2  6  1  0
  5  6  2  0
  4  5  1  0
  3  4  2  0
  1  3  1  0
  8  9  2  0
  9 10  1  0
 10 11  2  0
 11 12  1  0
 12 13  2  0
  8 13  1  0
M  END

$$$$
No_3677-/export/home/yangzhenyu/potential_scad_32_flow//YTHDC2/2024-12-06-03-22-00/
     RDKit          3D

 19 21  0  0  0  0  0  0  0  0999 V2000
    1.1787   -8.0297    3.5154 C   0  0  0  0  0  0  0  0  0  0  0  0
    1.0491   -6.8434    2.9820 C   0  0  0  0  0  0  0  0  0  0  0  0
    0.0950   -8.8404    3.2292 C   0  0  0  0  0  0  0  0  0  0  0  0
   -0.7663   -8.2602    2.4375 C   0  0  0  0  0  0  0  0  0  0  0  0
   -0.3589   -6.8665    2.1913 C   0  0  0  0  0  0  0  0  0  0  0  0
    0.1638  -10.2973    3.6395 C   0  0  0  0  0  0  0  0  0  0  0  0
   -0.8136  -11.0731    3.3786 C   0  0  0  0  0  0  0  0  0  0  0  0
   -0.5006  -12.5031    3.6095 C   0  0  0  0  0  0  0  0  0  0  0  0
    0.7560  -12.8505    3.8762 C   0  0  0  0  0  0  0  0  0  0  0  0
    1.7854  -11.9594    3.9588 C   0  0  0  0  0  0  0  0  0  0  0  0
    1.5349  -10.5945    3.9356 C   0  0  0  0  0  0  0  0  0  0  0  0
    1.0501  -14.1819    3.9988 Cl  0  0  0  0  0  0  0  0  0  0  0  0
   -0.8851   -5.7807    1.6433 C   0  0  0  0  0  0  0  0  0  0  0  0
   -1.7881   -6.1762    0.6453 C   0  0  0  0  0  0  0  0  0  0  0  0
   -0.5208   -4.4749    1.9198 C   0  0  0  0  0  0  0  0  0  0  0  0
   -1.2500   -3.4013    1.4663 C   0  0  0  0  0  0  0  0  0  0  0  0
   -2.2654   -4.9619    0.0170 C   0  0  0  0  0  0  0  0  0  0  0  0
   -2.0630   -3.6969    0.3389 C   0  0  0  0  0  0  0  0  0  0  0  0
   -3.0318   -2.7226    0.0458 C   0  0  0  0  0  0  0  0  0  0  0  0
  1  2  1  0
  1  3  2  0
  3  4  1  0
  2  5  1  0
  4  5  2  0
  3  6  1  0
  9 12  1  0
  5 13  1  0
 18 19  1  0
  6  7  2  0
  7  8  1  0
  8  9  2  0
  9 10  1  0
 10 11  2  0
  6 11  1  0
 13 14  2  0
 14 17  1  0
 17 18  2  0
 16 18  1  0
 15 16  2  0
 13 15  1  0
M  END

$$$$
No_3678-/export/home/yangzhenyu/potential_scad_32_flow//YTHDC2/2024-12-06-03-22-00/
     RDKit          3D

 19 20  0  0  1  0  0  0  0  0999 V2000
    1.1787   -8.0297    3.5154 C   0  0  0  0  0  0  0  0  0  0  0  0
    1.1048   -9.2215    3.2892 C   0  0  0  0  0  0  0  0  0  0  0  0
    1.2339   -9.7611    2.0189 C   0  0  0  0  0  0  0  0  0  0  0  0
    1.3583   -9.0036    0.9764 C   0  0  0  0  0  0  0  0  0  0  0  0
    1.5996   -7.6362    1.1311 C   0  0  0  0  0  0  0  0  0  0  0  0
    1.4830   -7.0928    2.3626 C   0  0  0  0  0  0  0  0  0  0  0  0
    1.4898   -5.7274    2.6199 C   0  0  0  0  0  0  0  0  0  0  0  0
    1.1681  -11.2222    1.8390 C   0  0  1  0  0  0  0  0  0  0  0  0
    0.7145  -11.5870    0.5424 C   0  0  0  0  0  0  0  0  0  0  0  0
   -0.5241  -12.2512    0.6171 C   0  0  0  0  0  0  0  0  0  0  0  0
   -0.5383  -13.4429    1.3130 N   0  0  0  0  0  0  0  0  0  0  0  0
    0.5847  -14.0089    1.7599 C   0  0  1  0  0  0  0  0  0  0  0  0
    1.5840  -13.5300    2.0082 C   0  0  0  0  0  0  0  0  0  0  0  0
    2.0781  -12.2675    2.2067 C   0  0  0  0  0  0  0  0  0  0  0  0
    0.3309  -15.3617    2.2827 C   0  0  0  0  0  0  0  0  0  0  0  0
    1.2510  -16.0245    3.0673 C   0  0  0  0  0  0  0  0  0  0  0  0
    0.9261  -17.3136    3.6850 C   0  0  0  0  0  0  0  0  0  0  0  0
   -0.3013  -17.7390    3.6145 C   0  0  0  0  0  0  0  0  0  0  0  0
   -1.2835  -17.1712    2.8936 C   0  0  0  0  0  0  0  0  0  0  0  0
  6  7  1  0
  8  3  1  6
  8  9  1  0
  9 10  1  0
 10 11  1  0
 11 12  1  0
 12 13  1  0
  8 14  1  0
 13 14  1  0
 12 15  1  1
 15 16  1  0
 16 17  2  3
 17 18  1  0
 18 19  2  0
  1  2  2  0
  2  3  1  0
  3  4  2  0
  4  5  1  0
  5  6  2  0
  1  6  1  0
M  END

$$$$
No_3679-/export/home/yangzhenyu/potential_scad_32_flow//YTHDC2/2024-12-06-03-22-00/
     RDKit          3D

 18 20  0  0  1  0  0  0  0  0999 V2000
    1.1787   -8.0297    3.5154 N   0  0  0  0  0  0  0  0  0  0  0  0
    0.8669   -7.0905    2.8589 C   0  0  1  0  0  0  0  0  0  0  0  0
    0.8842   -5.8387    3.2677 C   0  0  0  0  0  0  0  0  0  0  0  0
    1.2042   -9.3413    3.1417 C   0  0  0  0  0  0  0  0  0  0  0  0
    1.6339  -10.3283    4.2202 C   0  0  0  0  0  0  0  0  0  0  0  0
    1.5627  -11.6969    3.9597 C   0  0  0  0  0  0  0  0  0  0  0  0
    1.0111  -12.0871    2.7192 C   0  0  0  0  0  0  0  0  0  0  0  0
    0.6888  -11.2298    1.8072 C   0  0  0  0  0  0  0  0  0  0  0  0
    0.8175   -9.8618    2.0077 C   0  0  0  0  0  0  0  0  0  0  0  0
    0.3765   -4.7790    2.3566 C   0  0  0  0  0  0  0  0  0  0  0  0
    0.0739   -5.1446    1.0690 C   0  0  0  0  0  0  0  0  0  0  0  0
    0.4466   -6.9567    1.3609 C   0  0  0  0  0  0  0  0  0  0  0  0
    0.9624  -13.6433    2.4306 C   0  0  2  0  0  0  0  0  0  0  0  0
   -0.2445  -14.0367    2.3369 C   0  0  0  0  0  0  0  0  0  0  0  0
   -0.3073  -15.4958    2.2485 C   0  0  0  0  0  0  0  0  0  0  0  0
    1.2690  -15.9318    2.4679 C   0  0  0  0  0  0  0  0  0  0  0  0
    2.0344  -14.6911    2.7720 C   0  0  0  0  0  0  0  0  0  0  0  0
    0.2049   -3.3758    2.7183 C   0  0  0  0  0  0  0  0  0  0  0  0
  2  1  1  6
  2  3  1  0
  1  4  1  0
  3 10  2  0
 10 11  1  0
  2 12  1  0
 11 12  1  0
 13  7  1  1
 13 14  1  0
 14 15  2  0
 15 16  1  0
 13 17  1  0
 16 17  1  0
 10 18  1  0
  4  5  2  0
  5  6  1  0
  6  7  2  0
  7  8  1  0
  8  9  2  0
  4  9  1  0
M  END

$$$$
No_3680-/export/home/yangzhenyu/potential_scad_32_flow//YTHDC2/2024-12-06-03-22-00/
     RDKit          3D

 18 18  0  0  0  0  0  0  0  0999 V2000
    1.1787   -8.0297    3.5154 O   0  0  0  0  0  0  0  0  0  0  0  0
    0.6747   -7.4019    2.7838 C   0  0  0  0  0  0  0  0  0  0  0  0
    0.7594   -8.0032    1.4295 C   0  0  0  0  0  0  0  0  0  0  0  0
    0.3459   -9.1500    1.3581 C   0  0  0  0  0  0  0  0  0  0  0  0
   -0.4155   -9.6726    2.0241 C   0  0  0  0  0  0  0  0  0  0  0  0
   -0.3639  -10.4103    2.7362 C   0  0  0  0  0  0  0  0  0  0  0  0
    0.1006  -11.2938    3.1398 C   0  0  0  0  0  0  0  0  0  0  0  0
    1.4113   -7.0490    0.6082 O   0  0  0  0  0  0  0  0  0  0  0  0
    1.6477  -11.2575    2.9973 C   0  0  0  0  0  0  0  0  0  0  0  0
    0.0340  -12.7145    3.8232 C   0  0  0  0  0  0  0  0  0  0  0  0
   -0.8673  -13.4487    2.9999 C   0  0  0  0  0  0  0  0  0  0  0  0
   -0.7575  -14.7926    2.9032 C   0  0  0  0  0  0  0  0  0  0  0  0
    0.5221  -15.3186    3.2049 C   0  0  0  0  0  0  0  0  0  0  0  0
    0.7483  -16.6962    3.2988 C   0  0  0  0  0  0  0  0  0  0  0  0
   -0.1880  -17.5045    3.1661 C   0  0  0  0  0  0  0  0  0  0  0  0
   -1.4357  -17.0843    2.9201 C   0  0  0  0  0  0  0  0  0  0  0  0
   -1.6991  -15.7755    2.8313 C   0  0  0  0  0  0  0  0  0  0  0  0
   -3.0166  -15.3983    2.6489 C   0  0  0  0  0  0  0  0  0  0  0  0
  1  2  1  0
  2  3  1  0
  3  4  1  0
  4  5  2  3
  5  6  1  0
  6  7  2  3
  3  8  2  0
  7  9  1  0
  7 10  1  0
 10 11  1  0
 11 12  1  0
 17 18  1  0
 12 13  2  0
 13 14  1  0
 14 15  2  0
 15 16  1  0
 16 17  2  0
 12 17  1  0
M  END

$$$$
No_3681-/export/home/yangzhenyu/potential_scad_32_flow//YTHDC2/2024-12-06-03-22-00/
     RDKit          3D

 19 19  0  0  1  0  0  0  0  0999 V2000
    1.1787   -8.0297    3.5154 O   0  0  0  0  0  0  0  0  0  0  0  0
    0.6747   -7.4019    2.7838 C   0  0  0  0  0  0  0  0  0  0  0  0
    0.7594   -8.0032    1.4295 C   0  0  0  0  0  0  0  0  0  0  0  0
    0.3459   -9.1500    1.3581 C   0  0  1  0  0  0  0  0  0  0  0  0
   -0.4155   -9.6726    2.0241 C   0  0  0  0  0  0  0  0  0  0  0  0
   -1.5426   -9.2172    2.3159 C   0  0  0  0  0  0  0  0  0  0  0  0
    0.7919   -9.7858    0.0487 C   0  0  0  0  0  0  0  0  0  0  0  0
    0.3087  -10.9441   -0.1381 C   0  0  0  0  0  0  0  0  0  0  0  0
    1.7042   -9.2978   -0.7663 O   0  0  0  0  0  0  0  0  0  0  0  0
   -2.0265   -8.0385    1.7100 C   0  0  0  0  0  0  0  0  0  0  0  0
   -2.3320   -8.0477    0.5120 S   0  0  0  0  0  0  0  0  0  0  0  0
   -2.7258   -9.1603    0.0259 C   0  0  0  0  0  0  0  0  0  0  0  0
    0.6200   -6.0821    3.0076 O   0  0  0  0  0  0  0  0  0  0  0  0
   -2.4956   -9.7172   -1.4328 C   0  0  0  0  0  0  0  0  0  0  0  0
   -2.7948  -10.9054   -1.8281 C   0  0  0  0  0  0  0  0  0  0  0  0
   -3.5001  -11.6346   -1.1741 C   0  0  0  0  0  0  0  0  0  0  0  0
   -3.8039  -11.3488    0.0932 C   0  0  0  0  0  0  0  0  0  0  0  0
   -3.4452  -10.1247    0.6535 C   0  0  0  0  0  0  0  0  0  0  0  0
   -3.5987   -7.0631    0.1291 O   0  0  0  0  0  0  0  0  0  0  0  0
  1  2  1  0
  2  3  1  0
  4  3  1  6
  4  5  1  0
  5  6  2  3
  4  7  1  0
  7  8  1  0
  7  9  2  0
  6 10  1  0
 11 10  1  1
 11 12  1  0
  2 13  2  0
 11 19  2  0
 12 14  2  0
 14 15  1  0
 15 16  2  0
 16 17  1  0
 17 18  2  0
 12 18  1  0
M  END

$$$$
No_3682-/export/home/yangzhenyu/potential_scad_32_flow//YTHDC2/2024-12-06-03-22-00/
     RDKit          3D

 18 18  0  0  1  0  0  0  0  0999 V2000
    1.1787   -8.0297    3.5154 C   0  0  2  0  0  0  0  0  0  0  0  0
    1.1048   -9.2215    3.2892 F   0  0  0  0  0  0  0  0  0  0  0  0
    0.9433   -7.2612    2.2563 C   0  0  1  0  0  0  0  0  0  0  0  0
    0.8072   -5.8679    2.2742 O   0  0  0  0  0  0  0  0  0  0  0  0
    1.1676   -7.8089    1.1938 C   0  0  0  0  0  0  0  0  0  0  0  0
    2.5061   -7.9913    0.7831 C   0  0  0  0  0  0  0  0  0  0  0  0
    2.6540   -8.6371   -0.5202 C   0  0  0  0  0  0  0  0  0  0  0  0
    2.7200   -8.1119   -1.6250 O   0  0  0  0  0  0  0  0  0  0  0  0
    2.5217   -9.9863   -0.5588 O   0  0  0  0  0  0  0  0  0  0  0  0
    2.5935   -7.6663    3.7798 O   0  0  0  0  0  0  0  0  0  0  0  0
   -0.3021   -5.2084    1.9508 C   0  0  0  0  0  0  0  0  0  0  0  0
   -0.1842   -3.8705    1.6622 C   0  0  0  0  0  0  0  0  0  0  0  0
   -0.4149   -3.5694    0.4514 C   0  0  0  0  0  0  0  0  0  0  0  0
    0.3284   -2.4522   -0.1582 C   0  0  0  0  0  0  0  0  0  0  0  0
    0.9997   -1.6305    0.6795 C   0  0  0  0  0  0  0  0  0  0  0  0
    1.3237   -2.0135    1.9351 C   0  0  0  0  0  0  0  0  0  0  0  0
    0.7650   -3.0786    2.4689 C   0  0  0  0  0  0  0  0  0  0  0  0
   -1.3027   -5.9375    2.0590 O   0  0  0  0  0  0  0  0  0  0  0  0
  1  2  1  0
  1  3  1  0
  3  4  1  0
  3  5  1  6
  5  6  1  0
  6  7  1  0
  7  8  2  0
  7  9  1  0
  1 10  1  6
  4 11  1  0
 11 12  1  0
 11 18  2  0
 12 13  2  0
 13 14  1  0
 14 15  2  0
 15 16  1  0
 16 17  2  0
 12 17  1  0
M  END

$$$$
No_3683-/export/home/yangzhenyu/potential_scad_32_flow//YTHDC2/2024-12-06-03-22-00/
     RDKit          3D

 17 17  0  0  1  0  0  0  0  0999 V2000
    1.1787   -8.0297    3.5154 C   0  0  0  0  0  0  0  0  0  0  0  0
    1.0491   -6.8434    2.9820 O   0  0  0  0  0  0  0  0  0  0  0  0
   -0.0075   -8.7761    3.2545 C   0  0  0  0  0  0  0  0  0  0  0  0
   -0.1756   -9.2452    2.3665 C   0  0  1  0  0  0  0  0  0  0  0  0
   -0.9380   -8.6551    1.4862 C   0  0  0  0  0  0  0  0  0  0  0  0
   -0.7283   -8.8050    0.1179 C   0  0  0  0  0  0  0  0  0  0  0  0
   -1.5143   -8.2094   -0.8127 C   0  0  0  0  0  0  0  0  0  0  0  0
   -2.3683   -7.2084   -0.4422 C   0  0  0  0  0  0  0  0  0  0  0  0
   -2.5020   -6.8816    0.8808 C   0  0  0  0  0  0  0  0  0  0  0  0
   -1.7820   -7.5491    1.8251 C   0  0  0  0  0  0  0  0  0  0  0  0
    0.5451  -10.4310    2.0131 C   0  0  0  0  0  0  0  0  0  0  0  0
    1.7148  -10.4065    1.2053 C   0  0  0  0  0  0  0  0  0  0  0  0
    2.2608  -11.5293    0.7907 O   0  0  0  0  0  0  0  0  0  0  0  0
    2.5065   -9.3797    1.1283 O   0  0  0  0  0  0  0  0  0  0  0  0
   -3.1843   -6.4615   -1.4662 O   0  0  0  0  0  0  0  0  0  0  0  0
   -3.6177   -7.2040   -2.4223 C   0  0  0  0  0  0  0  0  0  0  0  0
   -2.9533   -6.8838   -3.6055 C   0  0  0  0  0  0  0  0  0  0  0  0
  1  2  1  0
  1  3  1  0
  4  3  1  6
  4  5  1  0
  4 11  1  0
 11 12  1  0
 12 13  2  0
 12 14  1  0
  8 15  1  0
 15 16  1  0
 16 17  1  0
  5  6  2  0
  6  7  1  0
  7  8  2  0
  8  9  1  0
  9 10  2  0
  5 10  1  0
M  END

$$$$
No_3684-/export/home/yangzhenyu/potential_scad_32_flow//YTHDC2/2024-12-06-03-22-00/
     RDKit          3D

 19 20  0  0  1  0  0  0  0  0999 V2000
    1.1787   -8.0297    3.5154 C   0  0  0  0  0  0  0  0  0  0  0  0
    1.1048   -9.2215    3.2892 C   0  0  0  0  0  0  0  0  0  0  0  0
    1.0239   -9.7790    2.0239 C   0  0  0  0  0  0  0  0  0  0  0  0
    1.1393   -9.0211    0.9686 C   0  0  0  0  0  0  0  0  0  0  0  0
    1.4051   -7.6500    1.1251 C   0  0  0  0  0  0  0  0  0  0  0  0
    1.4868   -7.1041    2.3534 C   0  0  1  0  0  0  0  0  0  0  0  0
    1.5885   -5.7190    2.5687 C   0  0  0  0  0  0  0  0  0  0  0  0
    0.8710  -11.2137    1.9144 C   0  0  0  0  0  0  0  0  0  0  0  0
    1.8887  -12.0352    2.0512 C   0  0  0  0  0  0  0  0  0  0  0  0
    1.7070  -13.3672    1.7487 C   0  0  0  0  0  0  0  0  0  0  0  0
    0.5963  -13.8403    1.2955 C   0  0  0  0  0  0  0  0  0  0  0  0
   -0.4368  -13.0391    0.9937 C   0  0  0  0  0  0  0  0  0  0  0  0
   -0.2989  -11.6535    1.3070 C   0  0  0  0  0  0  0  0  0  0  0  0
   -1.4604  -10.8855    1.3232 F   0  0  0  0  0  0  0  0  0  0  0  0
    1.6290   -6.8651    0.1438 O   0  0  0  0  0  0  0  0  0  0  0  0
    1.0450   -4.7633    1.6894 N   0  0  0  0  0  0  0  0  0  0  0  0
   -0.3157   -4.4604    1.8895 C   0  0  0  0  0  0  0  0  0  0  0  0
   -0.5447   -3.3152    2.6006 C   0  0  0  0  0  0  0  0  0  0  0  0
   -1.6595   -3.4660    3.3107 C   0  0  0  0  0  0  0  0  0  0  0  0
  2  3  1  0
  4  5  1  0
  1  6  1  0
  5  6  1  0
  6  7  1  6
  3  8  1  0
 13 14  1  0
  5 15  2  0
  7 16  1  0
 16 17  1  0
 17 18  1  0
 18 19  2  0
  3  4  1  0
  1  2  1  0
  8  9  2  0
  9 10  1  0
 10 11  2  0
 11 12  1  0
 12 13  2  0
  8 13  1  0
M  END

$$$$
No_3685-/export/home/yangzhenyu/potential_scad_32_flow//YTHDC2/2024-12-06-03-22-00/
     RDKit          3D

 19 20  0  0  0  0  0  0  0  0999 V2000
    1.1787   -8.0297    3.5154 N   0  0  0  0  0  0  0  0  0  0  0  0
    0.8669   -7.0905    2.8589 C   0  0  0  0  0  0  0  0  0  0  0  0
    1.0447   -7.3244    1.4123 C   0  0  0  0  0  0  0  0  0  0  0  0
    1.3746   -8.4389    1.0864 C   0  0  0  0  0  0  0  0  0  0  0  0
    1.6686   -9.1952    2.5608 C   0  0  0  0  0  0  0  0  0  0  0  0
    2.0183  -10.4317    2.7666 C   0  0  0  0  0  0  0  0  0  0  0  0
    1.2297  -11.4561    2.8555 C   0  0  0  0  0  0  0  0  0  0  0  0
    1.7390  -12.7475    3.2025 C   0  0  0  0  0  0  0  0  0  0  0  0
    0.8644  -13.9139    2.9943 C   0  0  0  0  0  0  0  0  0  0  0  0
   -0.3956  -13.7003    2.4880 C   0  0  0  0  0  0  0  0  0  0  0  0
   -0.9007  -12.5474    2.2450 C   0  0  0  0  0  0  0  0  0  0  0  0
   -0.1257  -11.4162    2.4234 C   0  0  0  0  0  0  0  0  0  0  0  0
    1.7402   -9.0792   -0.0606 C   0  0  0  0  0  0  0  0  0  0  0  0
    1.9657   -8.5098   -1.0709 O   0  0  0  0  0  0  0  0  0  0  0  0
    1.6829  -10.4252   -0.1669 O   0  0  0  0  0  0  0  0  0  0  0  0
    1.5244  -15.4115    3.4722 O   0  0  0  0  0  0  0  0  0  0  0  0
    2.1649  -15.9522    2.4573 C   0  0  0  0  0  0  0  0  0  0  0  0
   -1.2516  -14.9937    2.3171 O   0  0  0  0  0  0  0  0  0  0  0  0
    2.5355  -17.2924    2.7319 C   0  0  0  0  0  0  0  0  0  0  0  0
  1  2  1  0
  2  3  2  0
  3  4  1  0
  1  5  1  0
  4  5  2  0
  5  6  1  0
  6  7  1  0
  4 13  1  0
 13 14  2  0
 13 15  1  0
  9 16  1  0
 16 17  1  0
 10 18  1  0
 17 19  1  0
  7  8  2  0
  8  9  1  0
  9 10  2  0
 10 11  1  0
 11 12  2  0
  7 12  1  0
M  END

$$$$
No_3686-/export/home/yangzhenyu/potential_scad_32_flow//YTHDC2/2024-12-06-03-22-00/
     RDKit          3D

 18 19  0  0  0  0  0  0  0  0999 V2000
    1.1787   -8.0297    3.5154 C   0  0  0  0  0  0  0  0  0  0  0  0
    1.0491   -6.8434    2.9820 C   0  0  0  0  0  0  0  0  0  0  0  0
    0.9905   -9.0774    2.6527 C   0  0  0  0  0  0  0  0  0  0  0  0
    0.7897   -8.9519    1.3691 C   0  0  0  0  0  0  0  0  0  0  0  0
    0.7018   -7.7198    0.7892 C   0  0  0  0  0  0  0  0  0  0  0  0
    0.8918   -6.5957    1.6117 C   0  0  0  0  0  0  0  0  0  0  0  0
    1.0711  -10.4814    3.2282 C   0  0  0  0  0  0  0  0  0  0  0  0
   -0.1055  -11.1328    3.5223 C   0  0  0  0  0  0  0  0  0  0  0  0
   -0.1824  -12.4513    3.3816 C   0  0  0  0  0  0  0  0  0  0  0  0
    0.9472  -13.2655    3.1726 C   0  0  0  0  0  0  0  0  0  0  0  0
    2.1715  -12.6012    2.9116 C   0  0  0  0  0  0  0  0  0  0  0  0
    2.2064  -11.2741    2.8264 C   0  0  0  0  0  0  0  0  0  0  0  0
    0.9212  -14.7926    3.2458 O   0  0  0  0  0  0  0  0  0  0  0  0
    0.8449   -5.2753    1.1114 O   0  0  0  0  0  0  0  0  0  0  0  0
    1.8866  -15.4153    2.8520 C   0  0  0  0  0  0  0  0  0  0  0  0
    0.4228   -4.1910    1.8240 C   0  0  0  0  0  0  0  0  0  0  0  0
    1.6426  -16.8051    3.1114 C   0  0  0  0  0  0  0  0  0  0  0  0
    0.6241  -17.1796    3.8234 Cl  0  0  0  0  0  0  0  0  0  0  0  0
  3  7  1  0
 10 13  1  0
  6 14  1  0
 13 15  1  0
 14 16  1  0
 15 17  1  0
 17 18  1  0
  1  2  2  0
  2  6  1  0
  5  6  2  0
  4  5  1  0
  3  4  2  0
  1  3  1  0
  7  8  2  0
  8  9  1  0
  9 10  2  0
 10 11  1  0
 11 12  2  0
  7 12  1  0
M  END

$$$$
No_3687-/export/home/yangzhenyu/potential_scad_32_flow//YTHDC2/2024-12-06-03-22-00/
     RDKit          3D

 19 20  0  0  1  0  0  0  0  0999 V2000
    1.1787   -8.0297    3.5154 C   0  0  0  0  0  0  0  0  0  0  0  0
    1.1048   -9.2215    3.2892 C   0  0  0  0  0  0  0  0  0  0  0  0
    1.3627  -10.1721    4.3044 C   0  0  0  0  0  0  0  0  0  0  0  0
    1.7354  -11.4730    3.9023 C   0  0  0  0  0  0  0  0  0  0  0  0
    1.8080  -11.8127    2.7216 C   0  0  0  0  0  0  0  0  0  0  0  0
    1.4028  -10.9289    1.8117 C   0  0  0  0  0  0  0  0  0  0  0  0
    1.2324   -9.6663    1.9861 C   0  0  0  0  0  0  0  0  0  0  0  0
    1.1223   -8.7716    0.9645 C   0  0  0  0  0  0  0  0  0  0  0  0
    0.6910   -7.5259    1.1890 C   0  0  0  0  0  0  0  0  0  0  0  0
    0.8699   -6.9773    2.4690 C   0  0  0  0  0  0  0  0  0  0  0  0
    0.7725   -5.5968    2.6775 C   0  0  0  0  0  0  0  0  0  0  0  0
    1.9775  -13.2469    2.4170 C   0  0  2  0  0  0  0  0  0  0  0  0
    2.5186  -13.7280    1.3313 C   0  0  0  0  0  0  0  0  0  0  0  0
    1.7033   -4.9536    3.3021 C   0  0  0  0  0  0  0  0  0  0  0  0
    0.6988  -14.0830    2.6874 C   0  0  0  0  0  0  0  0  0  0  0  0
    0.9472  -15.3312    3.1284 C   0  0  0  0  0  0  0  0  0  0  0  0
   -0.0240  -16.1903    3.4564 C   0  0  0  0  0  0  0  0  0  0  0  0
   -1.2913  -15.7531    3.3990 C   0  0  0  0  0  0  0  0  0  0  0  0
   -1.6187  -14.5254    2.9708 C   0  0  0  0  0  0  0  0  0  0  0  0
 10 11  1  0
  5 12  1  0
 12 13  1  6
 11 14  1  0
 12 15  1  0
 15 16  1  0
 16 17  2  3
 17 18  1  0
 18 19  2  0
  1  2  2  0
  7  8  2  0
  8  9  1  0
  9 10  2  0
  1 10  1  0
  2  3  1  0
  3  4  2  0
  4  5  1  0
  5  6  2  0
  6  7  1  0
  2  7  1  0
M  END

$$$$
No_3688-/export/home/yangzhenyu/potential_scad_32_flow//YTHDC2/2024-12-06-03-22-00/
     RDKit          3D

 18 19  0  0  0  0  0  0  0  0999 V2000
    1.1787   -8.0297    3.5154 C   0  0  0  0  0  0  0  0  0  0  0  0
    1.0491   -6.8434    2.9820 C   0  0  0  0  0  0  0  0  0  0  0  0
    1.9985   -8.9840    2.8958 C   0  0  0  0  0  0  0  0  0  0  0  0
    1.9135  -10.3404    3.6266 C   0  0  0  0  0  0  0  0  0  0  0  0
    1.3291  -11.3908    3.0222 C   0  0  0  0  0  0  0  0  0  0  0  0
    1.2749  -12.5326    3.7562 C   0  0  0  0  0  0  0  0  0  0  0  0
    0.4248   -6.6481    1.7861 C   0  0  0  0  0  0  0  0  0  0  0  0
    0.4186   -7.4786    1.0077 C   0  0  0  0  0  0  0  0  0  0  0  0
    0.7923  -13.6634    3.1270 C   0  0  0  0  0  0  0  0  0  0  0  0
    0.4633  -13.6746    1.8523 C   0  0  0  0  0  0  0  0  0  0  0  0
    0.5910  -12.6127    1.0903 C   0  0  0  0  0  0  0  0  0  0  0  0
    1.1058  -11.4527    1.6029 C   0  0  0  0  0  0  0  0  0  0  0  0
    1.1541  -10.3506    0.7757 C   0  0  0  0  0  0  0  0  0  0  0  0
   -0.0541   -7.6777   -0.2830 C   0  0  0  0  0  0  0  0  0  0  0  0
    0.1944   -8.8670   -1.1758 C   0  0  0  0  0  0  0  0  0  0  0  0
    0.8798   -9.7119   -0.3187 C   0  0  0  0  0  0  0  0  0  0  0  0
   -0.1450   -5.4363    1.6979 C   0  0  0  0  0  0  0  0  0  0  0  0
    2.6603  -10.3941    4.7510 O   0  0  0  0  0  0  0  0  0  0  0  0
  1  2  1  0
  1  3  1  0
  3  4  1  0
  4  5  1  0
  2  7  1  0
  7  8  1  0
 12 13  1  0
  8 14  1  0
 14 15  2  3
 13 16  2  3
 15 16  1  0
  7 17  1  0
  4 18  2  0
  5  6  2  0
  6  9  1  0
  9 10  2  0
 10 11  1  0
 11 12  2  0
  5 12  1  0
M  END

$$$$
No_3689-/export/home/yangzhenyu/potential_scad_32_flow//YTHDC2/2024-12-06-03-22-00/
     RDKit          3D

 18 19  0  0  1  0  0  0  0  0999 V2000
    1.1787   -8.0297    3.5154 C   0  0  0  0  0  0  0  0  0  0  0  0
    1.0491   -6.8434    2.9820 C   0  0  0  0  0  0  0  0  0  0  0  0
    0.9905   -9.0774    2.6527 C   0  0  0  0  0  0  0  0  0  0  0  0
    0.7897   -8.9519    1.3691 C   0  0  0  0  0  0  0  0  0  0  0  0
    0.7018   -7.7198    0.7892 C   0  0  0  0  0  0  0  0  0  0  0  0
    0.8918   -6.5957    1.6117 C   0  0  0  0  0  0  0  0  0  0  0  0
    1.0998  -10.4710    3.2437 C   0  0  2  0  0  0  0  0  0  0  0  0
    0.0471  -11.2546    3.3963 C   0  0  0  0  0  0  0  0  0  0  0  0
   -1.1989  -10.6161    3.7011 C   0  0  0  0  0  0  0  0  0  0  0  0
    0.8958   -5.2750    1.1754 C   0  0  0  0  0  0  0  0  0  0  0  0
   -2.3154  -10.8612    3.0663 C   0  0  0  0  0  0  0  0  0  0  0  0
   -2.3995  -12.0318    2.3626 C   0  0  0  0  0  0  0  0  0  0  0  0
   -1.2372  -12.7721    2.1357 C   0  0  0  0  0  0  0  0  0  0  0  0
    0.0099  -12.3594    2.5663 C   0  0  0  0  0  0  0  0  0  0  0  0
    2.0969  -10.3782    4.2827 C   0  0  0  0  0  0  0  0  0  0  0  0
    1.1490  -13.0850    2.3715 C   0  0  0  0  0  0  0  0  0  0  0  0
    1.9530  -12.8330    1.3376 C   0  0  0  0  0  0  0  0  0  0  0  0
    1.5604  -14.1779    3.2342 C   0  0  0  0  0  0  0  0  0  0  0  0
  3  7  1  0
  7  8  1  0
  6 10  1  0
  7 15  1  1
 14 16  1  0
 16 17  1  0
 16 18  1  0
  1  2  2  0
  2  6  1  0
  5  6  2  0
  4  5  1  0
  3  4  2  0
  1  3  1  0
  8  9  2  0
  9 11  1  0
 11 12  2  0
 12 13  1  0
 13 14  2  0
  8 14  1  0
M  END

$$$$
No_3690-/export/home/yangzhenyu/potential_scad_32_flow//YTHDC2/2024-12-06-03-22-00/
     RDKit          3D

 18 18  0  0  1  0  0  0  0  0999 V2000
    1.1787   -8.0297    3.5154 C   0  0  0  0  0  0  0  0  0  0  0  0
    1.1048   -9.2215    3.2892 C   0  0  0  0  0  0  0  0  0  0  0  0
    1.2339   -9.7611    2.0189 C   0  0  0  0  0  0  0  0  0  0  0  0
    1.3583   -9.0036    0.9764 C   0  0  0  0  0  0  0  0  0  0  0  0
    1.5996   -7.6362    1.1311 C   0  0  0  0  0  0  0  0  0  0  0  0
    1.4830   -7.0928    2.3626 C   0  0  0  0  0  0  0  0  0  0  0  0
    1.1171  -11.3311    1.8661 C   0  0  1  0  0  0  0  0  0  0  0  0
    0.5022  -11.6388    0.6531 C   0  0  0  0  0  0  0  0  0  0  0  0
   -0.4019  -11.0045    0.0890 O   0  0  0  0  0  0  0  0  0  0  0  0
    0.3980  -13.0026    0.4663 O   0  0  0  0  0  0  0  0  0  0  0  0
    1.5671   -5.6537    2.7042 C   0  0  0  0  0  0  0  0  0  0  0  0
    1.8641  -12.0393    2.5575 C   0  0  0  0  0  0  0  0  0  0  0  0
    1.1150  -12.7246    3.6198 C   0  0  0  0  0  0  0  0  0  0  0  0
    1.1567  -14.2090    3.2830 O   0  0  0  0  0  0  0  0  0  0  0  0
    0.2798  -15.1275    3.3738 C   0  0  0  0  0  0  0  0  0  0  0  0
    1.4202   -5.0864    3.7539 O   0  0  0  0  0  0  0  0  0  0  0  0
    1.8246   -4.8904    1.5951 O   0  0  0  0  0  0  0  0  0  0  0  0
    0.5307  -16.3684    3.7696 C   0  0  0  0  0  0  0  0  0  0  0  0
  3  7  1  0
  7  8  1  0
  8  9  2  0
  8 10  1  0
  6 11  1  0
  7 12  1  6
 12 13  1  0
 13 14  1  0
 14 15  1  0
 11 16  1  0
 11 17  2  0
 15 18  1  0
  1  2  2  0
  2  3  1  0
  3  4  2  0
  4  5  1  0
  5  6  2  0
  1  6  1  0
M  END

$$$$
No_3691-/export/home/yangzhenyu/potential_scad_32_flow//YTHDC2/2024-12-06-03-22-00/
     RDKit          3D

 19 20  0  0  0  0  0  0  0  0999 V2000
    1.1787   -8.0297    3.5154 C   0  0  0  0  0  0  0  0  0  0  0  0
    1.1048   -9.2215    3.2892 C   0  0  0  0  0  0  0  0  0  0  0  0
    1.2339   -9.7611    2.0189 C   0  0  0  0  0  0  0  0  0  0  0  0
    1.3583   -9.0036    0.9764 C   0  0  0  0  0  0  0  0  0  0  0  0
    1.5996   -7.6362    1.1311 C   0  0  0  0  0  0  0  0  0  0  0  0
    1.4830   -7.0928    2.3626 C   0  0  0  0  0  0  0  0  0  0  0  0
    1.1008  -11.2372    1.8542 C   0  0  0  0  0  0  0  0  0  0  0  0
    0.5178  -11.9759    2.3445 C   0  0  0  0  0  0  0  0  0  0  0  0
    0.4575  -13.3705    2.1281 C   0  0  0  0  0  0  0  0  0  0  0  0
   -0.4455  -13.9844    1.5571 C   0  0  0  0  0  0  0  0  0  0  0  0
   -0.4380  -15.3838    1.3067 C   0  0  0  0  0  0  0  0  0  0  0  0
    0.7051  -16.0983    1.9315 C   0  0  0  0  0  0  0  0  0  0  0  0
    1.6299  -15.5240    2.5821 C   0  0  0  0  0  0  0  0  0  0  0  0
    1.5398  -14.1300    2.8462 C   0  0  0  0  0  0  0  0  0  0  0  0
    1.5722   -5.6574    2.6492 C   0  0  0  0  0  0  0  0  0  0  0  0
    0.7348   -4.8233    2.6087 C   0  0  0  0  0  0  0  0  0  0  0  0
    0.8099   -3.3923    2.8302 C   0  0  0  0  0  0  0  0  0  0  0  0
   -0.6513   -5.1537    1.9317 C   0  0  0  0  0  0  0  0  0  0  0  0
   -1.6173   -5.6697    2.5003 C   0  0  0  0  0  0  0  0  0  0  0  0
  3  7  1  0
  7  8  2  3
  8  9  1  0
  6 15  1  0
 15 16  2  3
 16 17  1  0
 16 18  1  0
 18 19  1  0
  1  2  2  0
  2  3  1  0
  3  4  2  0
  4  5  1  0
  5  6  2  0
  1  6  1  0
  9 10  2  0
 10 11  1  0
 11 12  2  0
 12 13  1  0
 13 14  2  0
  9 14  1  0
M  END

$$$$
No_3692-/export/home/yangzhenyu/potential_scad_32_flow//YTHDC2/2024-12-06-03-22-00/
     RDKit          3D

 17 18  0  0  1  0  0  0  0  0999 V2000
    1.1787   -8.0297    3.5154 C   0  0  0  0  0  0  0  0  0  0  0  0
    1.0491   -6.8434    2.9820 C   0  0  0  0  0  0  0  0  0  0  0  0
    0.0950   -8.8404    3.2292 C   0  0  0  0  0  0  0  0  0  0  0  0
    0.0602  -10.1764    3.8231 C   0  0  0  0  0  0  0  0  0  0  0  0
    0.2248   -6.3830    2.0648 C   0  0  1  0  0  0  0  0  0  0  0  0
    0.2296   -4.9688    1.6202 C   0  0  0  0  0  0  0  0  0  0  0  0
    0.2681  -11.2863    3.3463 C   0  0  0  0  0  0  0  0  0  0  0  0
    0.7376  -11.3582    1.9933 C   0  0  0  0  0  0  0  0  0  0  0  0
    0.7404  -10.1717    1.2871 C   0  0  0  0  0  0  0  0  0  0  0  0
    0.5126   -8.9704    1.9521 C   0  0  0  0  0  0  0  0  0  0  0  0
    0.5379   -7.7614    1.1533 C   0  0  0  0  0  0  0  0  0  0  0  0
    0.1470   -7.6932   -0.1012 O   0  0  0  0  0  0  0  0  0  0  0  0
    0.8607  -12.5845    1.3177 C   0  0  0  0  0  0  0  0  0  0  0  0
   -0.0531  -13.0079    0.3740 C   0  0  0  0  0  0  0  0  0  0  0  0
   -0.9754  -12.2442   -0.1857 C   0  0  0  0  0  0  0  0  0  0  0  0
   -1.8363  -12.5574   -1.1172 C   0  0  0  0  0  0  0  0  0  0  0  0
   -1.6626  -13.8674   -1.5951 C   0  0  0  0  0  0  0  0  0  0  0  0
  1  2  1  0
  5  6  1  6
  5 11  1  0
 10 11  1  0
 11 12  2  0
  8 13  1  0
 13 14  1  0
 14 15  2  3
 15 16  1  0
 16 17  2  0
  2  5  1  0
  1  3  1  0
  3  4  2  0
  4  7  1  0
  7  8  2  0
  8  9  1  0
  9 10  2  0
  3 10  1  0
M  END

$$$$
No_3693-/export/home/yangzhenyu/potential_scad_32_flow//YTHDC2/2024-12-06-03-22-00/
     RDKit          3D

 19 19  0  0  1  0  0  0  0  0999 V2000
    1.1787   -8.0297    3.5154 C   0  0  0  0  0  0  0  0  0  0  0  0
    1.1048   -9.2215    3.2892 C   0  0  0  0  0  0  0  0  0  0  0  0
    1.2339   -9.7611    2.0189 C   0  0  0  0  0  0  0  0  0  0  0  0
    1.3583   -9.0036    0.9764 C   0  0  0  0  0  0  0  0  0  0  0  0
    1.5996   -7.6362    1.1311 C   0  0  0  0  0  0  0  0  0  0  0  0
    1.4830   -7.0928    2.3626 C   0  0  0  0  0  0  0  0  0  0  0  0
    1.4898   -5.7274    2.6199 C   0  0  0  0  0  0  0  0  0  0  0  0
    1.1681  -11.2222    1.8390 C   0  0  0  0  0  0  0  0  0  0  0  0
    0.7145  -11.5870    0.5424 O   0  0  0  0  0  0  0  0  0  0  0  0
    1.6537  -12.0580    2.6183 N   0  0  0  0  0  0  0  0  0  0  0  0
    1.6651  -13.4392    2.3517 C   0  0  1  0  0  0  0  0  0  0  0  0
    2.7106  -14.1509    1.7548 C   0  0  0  0  0  0  0  0  0  0  0  0
    1.0048  -14.2481    3.4221 C   0  0  0  0  0  0  0  0  0  0  0  0
    0.4002  -15.4502    2.9725 C   0  0  0  0  0  0  0  0  0  0  0  0
    0.8555  -16.5673    3.5616 C   0  0  0  0  0  0  0  0  0  0  0  0
    1.2414   -4.8544    1.6254 O   0  0  0  0  0  0  0  0  0  0  0  0
    1.7695   -5.1405    3.7989 O   0  0  0  0  0  0  0  0  0  0  0  0
    1.8927  -17.1776    2.7899 C   0  0  0  0  0  0  0  0  0  0  0  0
    2.8819  -18.0689    3.4439 C   0  0  0  0  0  0  0  0  0  0  0  0
  6  7  1  0
  3  8  1  0
  8  9  2  0
  8 10  1  0
 10 11  1  0
 11 12  1  1
 11 13  1  0
 13 14  1  0
 14 15  1  0
  7 16  2  0
  7 17  1  0
 15 18  1  0
 18 19  1  0
  1  2  2  0
  2  3  1  0
  3  4  2  0
  4  5  1  0
  5  6  2  0
  1  6  1  0
M  END

$$$$
No_3694-/export/home/yangzhenyu/potential_scad_32_flow//YTHDC2/2024-12-06-03-22-00/
     RDKit          3D

 19 19  0  0  1  0  0  0  0  0999 V2000
    1.1787   -8.0297    3.5154 C   0  0  0  0  0  0  0  0  0  0  0  0
    1.1048   -9.2215    3.2892 C   0  0  0  0  0  0  0  0  0  0  0  0
    1.2339   -9.7611    2.0189 C   0  0  0  0  0  0  0  0  0  0  0  0
    1.3583   -9.0036    0.9764 C   0  0  0  0  0  0  0  0  0  0  0  0
    1.7077   -9.6100   -0.3010 C   0  0  0  0  0  0  0  0  0  0  0  0
    1.3637   -7.1087    2.3226 C   0  0  0  0  0  0  0  0  0  0  0  0
    1.4257   -7.6645    1.0231 C   0  0  0  0  0  0  0  0  0  0  0  0
    1.9364   -8.8976   -1.3212 O   0  0  0  0  0  0  0  0  0  0  0  0
    1.0218  -10.6394   -0.4427 O   0  0  0  0  0  0  0  0  0  0  0  0
    1.3508   -5.6187    2.4784 C   0  0  0  0  0  0  0  0  0  0  0  0
    1.0102   -4.8744    1.3924 O   0  0  0  0  0  0  0  0  0  0  0  0
    1.9914   -5.0553    3.5104 O   0  0  0  0  0  0  0  0  0  0  0  0
    1.2467  -11.1766    1.9370 C   0  0  1  0  0  0  0  0  0  0  0  0
    2.5345  -11.8839    2.1151 O   0  0  0  0  0  0  0  0  0  0  0  0
    0.4165  -11.9260    2.9546 C   0  0  0  0  0  0  0  0  0  0  0  0
    0.0728  -13.3133    2.5802 C   0  0  0  0  0  0  0  0  0  0  0  0
   -0.9884  -13.7241    2.4337 C   0  0  0  0  0  0  0  0  0  0  0  0
   -1.2280  -15.0323    2.0698 C   0  0  0  0  0  0  0  0  0  0  0  0
   -0.0892  -15.8822    1.9771 C   0  0  0  0  0  0  0  0  0  0  0  0
  4  5  1  0
  5  8  1  0
  5  9  2  0
  6 10  1  0
 10 11  2  0
 10 12  1  0
  3 13  1  0
 13 14  1  1
 13 15  1  0
 15 16  1  0
 16 17  2  3
 17 18  1  0
 18 19  2  0
  1  2  2  0
  2  3  1  0
  3  4  2  0
  4  7  1  0
  6  7  2  0
  1  6  1  0
M  END

$$$$
No_3695-/export/home/yangzhenyu/potential_scad_32_flow//YTHDC2/2024-12-06-03-22-00/
     RDKit          3D

 18 18  0  0  1  0  0  0  0  0999 V2000
    1.1787   -8.0297    3.5154 C   0  0  0  0  0  0  0  0  0  0  0  0
    1.0491   -6.8434    2.9820 C   0  0  0  0  0  0  0  0  0  0  0  0
    2.0004   -8.9805    3.0498 C   0  0  1  0  0  0  0  0  0  0  0  0
    1.9318  -10.3260    3.8082 C   0  0  0  0  0  0  0  0  0  0  0  0
    1.5629   -6.7698    1.6212 C   0  0  1  0  0  0  0  0  0  0  0  0
    2.0874   -7.7993    0.9845 C   0  0  0  0  0  0  0  0  0  0  0  0
    2.2492   -9.0232    1.6778 C   0  0  0  0  0  0  0  0  0  0  0  0
    1.0062  -11.2026    3.6470 O   0  0  0  0  0  0  0  0  0  0  0  0
    3.1569  -10.7816    4.2939 N   0  0  0  0  0  0  0  0  0  0  0  0
    2.7754  -10.0408    1.0266 O   0  0  0  0  0  0  0  0  0  0  0  0
    1.3481   -5.5593    0.9280 O   0  0  0  0  0  0  0  0  0  0  0  0
    0.6361   -4.5765    1.5515 C   0  0  1  0  0  0  0  0  0  0  0  0
    1.3413   -3.5056    2.0924 C   0  0  0  0  0  0  0  0  0  0  0  0
    0.7805   -2.6383    3.1029 C   0  0  0  0  0  0  0  0  0  0  0  0
   -0.4524   -3.9916    0.5496 C   0  0  0  0  0  0  0  0  0  0  0  0
   -1.5026   -4.7504    0.2923 C   0  0  0  0  0  0  0  0  0  0  0  0
   -2.1121   -5.3084    1.3083 O   0  0  0  0  0  0  0  0  0  0  0  0
   -1.8556   -4.9315   -0.9220 O   0  0  0  0  0  0  0  0  0  0  0  0
  1  3  1  0
  3  4  1  6
  2  5  1  0
  3  7  1  0
  6  7  1  0
  4  8  2  0
  4  9  1  0
  7 10  2  0
  5 11  1  6
 11 12  1  0
 12 13  1  6
 13 14  1  0
 12 15  1  0
 15 16  1  0
 16 17  2  0
 16 18  1  0
  1  2  1  0
  5  6  1  0
M  END

$$$$
No_3696-/export/home/yangzhenyu/potential_scad_32_flow//YTHDC2/2024-12-06-03-22-00/
     RDKit          3D

 18 18  0  0  0  0  0  0  0  0999 V2000
    1.1787   -8.0297    3.5154 C   0  0  0  0  0  0  0  0  0  0  0  0
    1.1048   -9.2215    3.2892 C   0  0  0  0  0  0  0  0  0  0  0  0
    1.2339   -9.7611    2.0189 C   0  0  0  0  0  0  0  0  0  0  0  0
    1.3583   -9.0036    0.9764 C   0  0  0  0  0  0  0  0  0  0  0  0
    1.5996   -7.6362    1.1311 C   0  0  0  0  0  0  0  0  0  0  0  0
    1.4830   -7.0928    2.3626 C   0  0  0  0  0  0  0  0  0  0  0  0
    1.4898   -5.7274    2.6199 C   0  0  0  0  0  0  0  0  0  0  0  0
    1.1681  -11.2222    1.8390 C   0  0  0  0  0  0  0  0  0  0  0  0
    0.5014  -11.9760    2.2068 C   0  0  0  0  0  0  0  0  0  0  0  0
   -0.6069  -11.4784    3.2188 C   0  0  0  0  0  0  0  0  0  0  0  0
    0.3337  -13.3591    1.8506 C   0  0  0  0  0  0  0  0  0  0  0  0
    1.4599  -14.2040    2.3016 C   0  0  0  0  0  0  0  0  0  0  0  0
    1.4604  -14.7713    3.2897 C   0  0  0  0  0  0  0  0  0  0  0  0
    0.8485  -16.1216    3.2825 C   0  0  0  0  0  0  0  0  0  0  0  0
    1.5757  -17.0731    2.6379 C   0  0  0  0  0  0  0  0  0  0  0  0
    2.8875  -16.9794    2.4619 C   0  0  0  0  0  0  0  0  0  0  0  0
    1.2582   -4.8442    1.6133 O   0  0  0  0  0  0  0  0  0  0  0  0
    1.7627   -5.1595    3.8074 N   0  0  0  0  0  0  0  0  0  0  0  0
  6  7  1  0
  3  8  1  0
  8  9  2  3
  9 10  1  0
  9 11  1  0
 11 12  1  0
 12 13  1  0
 13 14  1  0
 14 15  1  0
 15 16  1  0
  7 17  2  0
  7 18  1  0
  1  2  2  0
  2  3  1  0
  3  4  2  0
  4  5  1  0
  5  6  2  0
  1  6  1  0
M  END

$$$$
No_3697-/export/home/yangzhenyu/potential_scad_32_flow//YTHDC2/2024-12-06-03-22-00/
     RDKit          3D

 17 19  0  0  0  0  0  0  0  0999 V2000
    1.1787   -8.0297    3.5154 C   0  0  0  0  0  0  0  0  0  0  0  0
    1.1048   -9.2215    3.2892 C   0  0  0  0  0  0  0  0  0  0  0  0
    1.3627  -10.1721    4.3044 C   0  0  0  0  0  0  0  0  0  0  0  0
    1.0682  -11.5187    4.0618 C   0  0  0  0  0  0  0  0  0  0  0  0
    0.6332  -11.9655    2.9682 C   0  0  0  0  0  0  0  0  0  0  0  0
    0.4776  -11.1308    1.9203 C   0  0  0  0  0  0  0  0  0  0  0  0
    0.7470   -9.8274    2.0368 C   0  0  0  0  0  0  0  0  0  0  0  0
    1.0387   -7.0301    2.5175 C   0  0  0  0  0  0  0  0  0  0  0  0
    0.9130   -7.5288    1.2013 C   0  0  0  0  0  0  0  0  0  0  0  0
    0.7893   -8.7979    0.9542 C   0  0  0  0  0  0  0  0  0  0  0  0
    0.3851  -13.5918    2.7030 C   0  0  0  0  0  0  0  0  0  0  0  0
   -0.6308  -13.9568    2.4558 N   0  0  0  0  0  0  0  0  0  0  0  0
    1.4529  -14.3996    3.1184 C   0  0  0  0  0  0  0  0  0  0  0  0
    1.1608  -15.6622    2.8350 C   0  0  0  0  0  0  0  0  0  0  0  0
    0.0696  -16.1567    2.4734 C   0  0  0  0  0  0  0  0  0  0  0  0
   -0.8842  -15.1595    2.1768 C   0  0  0  0  0  0  0  0  0  0  0  0
    0.4345   -9.2809   -0.3595 C   0  0  0  0  0  0  0  0  0  0  0  0
  5 11  1  0
 10 17  1  0
  2  3  1  0
  3  4  2  0
  4  5  1  0
  5  6  2  0
  6  7  1  0
  1  2  2  0
  2  7  1  0
  7 10  2  0
  9 10  1  0
  8  9  2  0
  1  8  1  0
 11 12  2  0
 12 16  1  0
 15 16  2  0
 14 15  1  0
 13 14  2  0
 11 13  1  0
M  END

$$$$
No_3698-/export/home/yangzhenyu/potential_scad_32_flow//YTHDC2/2024-12-06-03-22-00/
     RDKit          3D

 18 20  0  0  0  0  0  0  0  0999 V2000
    1.1787   -8.0297    3.5154 C   0  0  0  0  0  0  0  0  0  0  0  0
    1.0491   -6.8434    2.9820 C   0  0  0  0  0  0  0  0  0  0  0  0
    0.0950   -8.8404    3.2292 C   0  0  0  0  0  0  0  0  0  0  0  0
   -0.9173   -8.4596    2.5152 C   0  0  0  0  0  0  0  0  0  0  0  0
   -1.0331   -7.2162    2.0653 C   0  0  0  0  0  0  0  0  0  0  0  0
   -0.0105   -6.3168    2.3081 C   0  0  0  0  0  0  0  0  0  0  0  0
    0.1150   -4.9910    1.8495 C   0  0  0  0  0  0  0  0  0  0  0  0
   -0.5774   -4.1593    2.0596 C   0  0  0  0  0  0  0  0  0  0  0  0
   -0.5028   -2.7328    1.5284 C   0  0  0  0  0  0  0  0  0  0  0  0
    0.1510  -10.2710    3.6783 C   0  0  0  0  0  0  0  0  0  0  0  0
    1.2359  -10.8928    4.0838 C   0  0  0  0  0  0  0  0  0  0  0  0
    1.1380  -12.3113    3.9954 C   0  0  0  0  0  0  0  0  0  0  0  0
    0.0493  -12.9198    3.6578 C   0  0  0  0  0  0  0  0  0  0  0  0
   -1.0044  -12.2771    3.2078 C   0  0  0  0  0  0  0  0  0  0  0  0
   -0.9936  -10.9197    3.2431 C   0  0  0  0  0  0  0  0  0  0  0  0
    0.4703   -2.6222    0.5732 C   0  0  0  0  0  0  0  0  0  0  0  0
    1.2002   -3.5293    0.0735 C   0  0  0  0  0  0  0  0  0  0  0  0
    1.1328   -4.7377    0.7476 C   0  0  0  0  0  0  0  0  0  0  0  0
  6  7  1  0
  3 10  1  0
  1  2  2  0
  2  6  1  0
  5  6  2  0
  4  5  1  0
  3  4  2  0
  1  3  1  0
 10 11  2  0
 11 12  1  0
 12 13  2  0
 13 14  1  0
 14 15  2  0
 10 15  1  0
  7  8  2  0
  8  9  1  0
  9 16  2  0
 16 17  1  0
 17 18  2  0
  7 18  1  0
M  END

$$$$
No_3699-/export/home/yangzhenyu/potential_scad_32_flow//YTHDC2/2024-12-06-03-22-00/
     RDKit          3D

 19 19  0  0  0  0  0  0  0  0999 V2000
    1.1787   -8.0297    3.5154 C   0  0  0  0  0  0  0  0  0  0  0  0
    1.1048   -9.2215    3.2892 C   0  0  0  0  0  0  0  0  0  0  0  0
    1.2339   -9.7611    2.0189 C   0  0  0  0  0  0  0  0  0  0  0  0
    1.3583   -9.0036    0.9764 C   0  0  0  0  0  0  0  0  0  0  0  0
    1.5996   -7.6362    1.1311 C   0  0  0  0  0  0  0  0  0  0  0  0
    1.4830   -7.0928    2.3626 C   0  0  0  0  0  0  0  0  0  0  0  0
    1.3121   -5.7497    2.5440 C   0  0  0  0  0  0  0  0  0  0  0  0
    1.2165  -11.3822    1.8530 C   0  0  0  0  0  0  0  0  0  0  0  0
    1.1161  -11.6714    0.5452 O   0  0  0  0  0  0  0  0  0  0  0  0
    1.3271  -12.0413    2.8109 O   0  0  0  0  0  0  0  0  0  0  0  0
    1.7692   -5.1328    3.6674 O   0  0  0  0  0  0  0  0  0  0  0  0
    0.9087   -4.9554    1.5939 O   0  0  0  0  0  0  0  0  0  0  0  0
    1.5683   -9.4497   -0.3576 C   0  0  0  0  0  0  0  0  0  0  0  0
    0.4055   -9.5972   -1.0261 O   0  0  0  0  0  0  0  0  0  0  0  0
    2.6721   -9.4843   -0.9547 O   0  0  0  0  0  0  0  0  0  0  0  0
    0.9068  -10.1259    4.4310 C   0  0  0  0  0  0  0  0  0  0  0  0
    1.7172  -10.5273    5.3332 O   0  0  0  0  0  0  0  0  0  0  0  0
   -0.4413  -10.4192    4.7983 O   0  0  0  0  0  0  0  0  0  0  0  0
    0.5612  -13.0054    0.4908 C   0  0  0  0  0  0  0  0  0  0  0  0
  6  7  1  0
  3  8  1  0
  8  9  1  0
  8 10  2  0
  7 11  1  0
  7 12  2  0
  4 13  1  0
 13 14  1  0
 13 15  2  0
  2 16  1  0
 16 17  2  0
 16 18  1  0
  9 19  1  0
  1  2  2  0
  2  3  1  0
  3  4  2  0
  4  5  1  0
  5  6  2  0
  1  6  1  0
M  END

$$$$
No_3700-/export/home/yangzhenyu/potential_scad_32_flow//YTHDC2/2024-12-06-03-22-00/
     RDKit          3D

 19 20  0  0  1  0  0  0  0  0999 V2000
    1.1787   -8.0297    3.5154 C   0  0  0  0  0  0  0  0  0  0  0  0
    1.0491   -6.8434    2.9820 C   0  0  0  0  0  0  0  0  0  0  0  0
    0.9905   -9.0774    2.6527 C   0  0  1  0  0  0  0  0  0  0  0  0
    1.1655  -10.4663    3.1286 C   0  0  0  0  0  0  0  0  0  0  0  0
    1.7409  -10.6480    4.4599 O   0  0  0  0  0  0  0  0  0  0  0  0
    0.5862   -6.5895    1.6995 C   0  0  0  0  0  0  0  0  0  0  0  0
    0.3253   -7.6295    0.9212 C   0  0  0  0  0  0  0  0  0  0  0  0
    0.4959   -8.9244    1.3258 C   0  0  1  0  0  0  0  0  0  0  0  0
    1.0875  -11.4617    2.3716 N   0  0  0  0  0  0  0  0  0  0  0  0
    0.3776  -10.0157    0.5149 C   0  0  0  0  0  0  0  0  0  0  0  0
    1.4576  -12.6979    3.0006 C   0  0  0  0  0  0  0  0  0  0  0  0
    0.8286  -13.7922    2.7425 C   0  0  0  0  0  0  0  0  0  0  0  0
    1.2456  -15.1034    3.4110 C   0  0  0  0  0  0  0  0  0  0  0  0
    2.4118  -15.5558    3.1067 C   0  0  0  0  0  0  0  0  0  0  0  0
   -0.0610   -7.4091   -0.2931 O   0  0  0  0  0  0  0  0  0  0  0  0
    2.5796  -17.0181    3.0477 C   0  0  0  0  0  0  0  0  0  0  0  0
    1.7225  -17.7903    3.5906 C   0  0  0  0  0  0  0  0  0  0  0  0
    0.4737  -17.3109    3.8969 C   0  0  0  0  0  0  0  0  0  0  0  0
    0.2391  -15.9388    3.8031 C   0  0  0  0  0  0  0  0  0  0  0  0
  1  2  1  0
  3  4  1  0
  4  5  1  0
  6  7  1  0
  3  8  1  0
  7  8  1  0
  4  9  2  3
  8 10  1  6
  9 11  1  0
 11 12  1  0
 12 13  1  0
  7 15  2  0
  2  6  1  0
  3  1  1  1
 13 14  2  0
 14 16  1  0
 16 17  2  0
 17 18  1  0
 18 19  2  0
 13 19  1  0
M  END

$$$$
No_3701-/export/home/yangzhenyu/potential_scad_32_flow//YTHDC2/2024-12-06-03-22-00/
     RDKit          3D

 20 21  0  0  0  0  0  0  0  0999 V2000
    1.1787   -8.0297    3.5154 C   0  0  0  0  0  0  0  0  0  0  0  0
    1.0491   -6.8434    2.9820 C   0  0  0  0  0  0  0  0  0  0  0  0
    0.9905   -9.0774    2.6527 C   0  0  0  0  0  0  0  0  0  0  0  0
    0.7897   -8.9519    1.3691 C   0  0  0  0  0  0  0  0  0  0  0  0
    0.7018   -7.7198    0.7892 C   0  0  0  0  0  0  0  0  0  0  0  0
    0.8918   -6.5957    1.6117 C   0  0  0  0  0  0  0  0  0  0  0  0
    1.0998  -10.4710    3.2437 C   0  0  0  0  0  0  0  0  0  0  0  0
    1.3102  -11.5554    2.5214 C   0  0  0  0  0  0  0  0  0  0  0  0
    1.4257  -12.8124    3.1919 C   0  0  0  0  0  0  0  0  0  0  0  0
    0.9222  -13.9339    2.5039 C   0  0  0  0  0  0  0  0  0  0  0  0
    1.2953  -15.2608    3.1588 C   0  0  0  0  0  0  0  0  0  0  0  0
    0.8538   -5.2538    1.2443 C   0  0  0  0  0  0  0  0  0  0  0  0
    1.1765  -16.3996    2.7257 C   0  0  0  0  0  0  0  0  0  0  0  0
    0.4313  -16.5766    1.6594 C   0  0  0  0  0  0  0  0  0  0  0  0
   -0.0101  -15.5273    0.8970 C   0  0  0  0  0  0  0  0  0  0  0  0
    0.1993  -14.2510    1.2784 C   0  0  0  0  0  0  0  0  0  0  0  0
   -0.2066   -4.7669    0.7266 C   0  0  0  0  0  0  0  0  0  0  0  0
   -0.3447   -3.4146    0.3795 C   0  0  0  0  0  0  0  0  0  0  0  0
   -0.9665   -2.9656   -0.6508 C   0  0  0  0  0  0  0  0  0  0  0  0
   -0.7796   -1.6952   -1.1793 C   0  0  0  0  0  0  0  0  0  0  0  0
  3  7  1  0
  7  8  2  3
  8  9  1  0
  9 10  1  0
  6 12  1  0
 12 17  2  3
 17 18  1  0
 18 19  1  0
 19 20  2  0
  1  2  2  0
  2  6  1  0
  5  6  2  0
  4  5  1  0
  3  4  2  0
  1  3  1  0
 10 11  2  0
 11 13  1  0
 13 14  2  0
 14 15  1  0
 15 16  2  0
 10 16  1  0
M  END

$$$$
No_3702-/export/home/yangzhenyu/potential_scad_32_flow//YTHDC2/2024-12-06-03-22-00/
     RDKit          3D

 18 20  0  0  0  0  0  0  0  0999 V2000
    1.1787   -8.0297    3.5154 N   0  0  0  0  0  0  0  0  0  0  0  0
    1.0818   -9.0751    3.2053 C   0  0  0  0  0  0  0  0  0  0  0  0
    1.5216  -10.1164    3.9747 C   0  0  0  0  0  0  0  0  0  0  0  0
    1.4420  -11.4363    3.6461 C   0  0  0  0  0  0  0  0  0  0  0  0
    0.5969  -11.7648    2.6785 C   0  0  0  0  0  0  0  0  0  0  0  0
    0.0096  -10.8332    1.9506 C   0  0  0  0  0  0  0  0  0  0  0  0
    0.3359   -9.5186    2.1388 C   0  0  0  0  0  0  0  0  0  0  0  0
    0.8819   -6.9011    2.6487 C   0  0  0  0  0  0  0  0  0  0  0  0
    0.4076   -7.2265    1.4607 N   0  0  0  0  0  0  0  0  0  0  0  0
    0.0633   -8.4448    1.1740 C   0  0  0  0  0  0  0  0  0  0  0  0
   -0.4997   -8.6880    0.0350 C   0  0  0  0  0  0  0  0  0  0  0  0
   -1.8434   -8.4057   -0.1295 C   0  0  0  0  0  0  0  0  0  0  0  0
   -2.3127   -8.7244   -1.5154 C   0  0  0  0  0  0  0  0  0  0  0  0
   -1.5119   -9.0550   -2.5546 C   0  0  0  0  0  0  0  0  0  0  0  0
   -0.2180   -9.3495   -2.2552 C   0  0  0  0  0  0  0  0  0  0  0  0
    0.3631   -9.2122   -1.0105 C   0  0  0  0  0  0  0  0  0  0  0  0
   -2.0992   -9.3719   -3.7580 C   0  0  0  0  0  0  0  0  0  0  0  0
   -2.6987   -8.5995   -4.5127 O   0  0  0  0  0  0  0  0  0  0  0  0
 10 11  1  0
 14 17  1  0
 17 18  2  0
 11 12  2  0
 12 13  1  0
 13 14  2  0
 14 15  1  0
 15 16  2  0
 11 16  1  0
  2  3  1  0
  3  4  2  0
  4  5  1  0
  5  6  2  0
  6  7  1  0
  1  2  2  0
  2  7  1  0
  7 10  2  0
  9 10  1  0
  8  9  2  0
  1  8  1  0
M  END

$$$$
No_3703-/export/home/yangzhenyu/potential_scad_32_flow//YTHDC2/2024-12-06-03-22-00/
     RDKit          3D

 20 20  0  0  0  0  0  0  0  0999 V2000
    1.1787   -8.0297    3.5154 C   0  0  0  0  0  0  0  0  0  0  0  0
    1.1048   -9.2215    3.2892 C   0  0  0  0  0  0  0  0  0  0  0  0
    1.2339   -9.7611    2.0189 C   0  0  0  0  0  0  0  0  0  0  0  0
    1.3583   -9.0036    0.9764 C   0  0  0  0  0  0  0  0  0  0  0  0
    1.5996   -7.6362    1.1311 C   0  0  0  0  0  0  0  0  0  0  0  0
    1.4830   -7.0928    2.3626 C   0  0  0  0  0  0  0  0  0  0  0  0
    1.5395   -5.7300    2.6182 C   0  0  0  0  0  0  0  0  0  0  0  0
    1.1775  -11.2233    1.8407 C   0  0  0  0  0  0  0  0  0  0  0  0
    0.7252  -11.5870    0.5413 O   0  0  0  0  0  0  0  0  0  0  0  0
    1.6561  -12.0585    2.6191 N   0  0  0  0  0  0  0  0  0  0  0  0
    1.6681  -13.4386    2.3529 C   0  0  0  0  0  0  0  0  0  0  0  0
    0.4974  -14.0334    2.8946 C   0  0  0  0  0  0  0  0  0  0  0  0
    0.6109  -15.5169    2.8669 O   0  0  0  0  0  0  0  0  0  0  0  0
   -0.5927  -13.6421    2.7778 O   0  0  0  0  0  0  0  0  0  0  0  0
    1.2721   -4.7966    1.7099 C   0  0  0  0  0  0  0  0  0  0  0  0
    1.2253   -3.3745    1.9463 C   0  0  0  0  0  0  0  0  0  0  0  0
    1.0389   -2.5002    1.0648 C   0  0  0  0  0  0  0  0  0  0  0  0
    0.5074   -2.9885   -0.2339 C   0  0  0  0  0  0  0  0  0  0  0  0
    0.2875   -1.8689   -1.1757 C   0  0  0  0  0  0  0  0  0  0  0  0
   -0.3921   -0.8329   -0.9625 C   0  0  0  0  0  0  0  0  0  0  0  0
  6  7  1  0
  3  8  1  0
  8  9  2  0
  8 10  1  0
 10 11  1  0
 11 12  1  0
 12 13  2  0
 12 14  1  0
  7 15  2  3
 15 16  1  0
 16 17  2  3
 17 18  1  0
 18 19  2  3
 19 20  1  0
  1  2  2  0
  2  3  1  0
  3  4  2  0
  4  5  1  0
  5  6  2  0
  1  6  1  0
M  END

$$$$
No_3704-/export/home/yangzhenyu/potential_scad_32_flow//YTHDC2/2024-12-06-03-22-00/
     RDKit          3D

 19 20  0  0  1  0  0  0  0  0999 V2000
    1.1787   -8.0297    3.5154 C   0  0  0  0  0  0  0  0  0  0  0  0
    1.1048   -9.2215    3.2892 C   0  0  0  0  0  0  0  0  0  0  0  0
    1.2339   -9.7611    2.0189 C   0  0  0  0  0  0  0  0  0  0  0  0
    1.3583   -9.0036    0.9764 C   0  0  0  0  0  0  0  0  0  0  0  0
    1.5996   -7.6362    1.1311 C   0  0  0  0  0  0  0  0  0  0  0  0
    1.4830   -7.0928    2.3626 C   0  0  0  0  0  0  0  0  0  0  0  0
    1.1008  -11.2372    1.8542 C   0  0  2  0  0  0  0  0  0  0  0  0
    1.9749  -12.0938    2.2342 C   0  0  0  0  0  0  0  0  0  0  0  0
    1.7533  -13.4231    1.8956 C   0  0  0  0  0  0  0  0  0  0  0  0
    0.8624  -13.8318    1.1071 C   0  0  0  0  0  0  0  0  0  0  0  0
    0.0173  -12.3388    0.8496 C   0  0  0  0  0  0  0  0  0  0  0  0
    1.5379   -5.6484    2.6265 Br  0  0  0  0  0  0  0  0  0  0  0  0
    2.5818  -14.5870    2.1824 C   0  0  0  0  0  0  0  0  0  0  0  0
    0.2311  -14.6961    0.4187 C   0  0  0  0  0  0  0  0  0  0  0  0
   -0.8938  -14.8830    0.4714 N   0  0  0  0  0  0  0  0  0  0  0  0
   -1.3510  -15.2997    1.7167 C   0  0  1  0  0  0  0  0  0  0  0  0
   -2.1768  -14.7003    2.4734 C   0  0  0  0  0  0  0  0  0  0  0  0
   -2.4498  -13.3540    2.2419 C   0  0  0  0  0  0  0  0  0  0  0  0
   -1.4695  -16.8089    1.7715 C   0  0  0  0  0  0  0  0  0  0  0  0
  7  3  1  6
  7  8  1  0
  8  9  2  0
  9 10  1  0
  7 11  1  0
 10 11  1  0
  6 12  1  0
  9 13  1  0
 10 14  1  0
 14 15  1  0
 15 16  1  0
 16 17  1  0
 17 18  2  0
 16 19  1  6
  1  2  2  0
  2  3  1  0
  3  4  2  0
  4  5  1  0
  5  6  2  0
  1  6  1  0
M  END

$$$$
No_3705-/export/home/yangzhenyu/potential_scad_32_flow//YTHDC2/2024-12-06-03-22-00/
     RDKit          3D

 17 18  0  0  1  0  0  0  0  0999 V2000
    1.1787   -8.0297    3.5154 C   0  0  0  0  0  0  0  0  0  0  0  0
    1.0491   -6.8434    2.9820 C   0  0  0  0  0  0  0  0  0  0  0  0
    0.9905   -9.0774    2.6527 C   0  0  0  0  0  0  0  0  0  0  0  0
    1.1655  -10.4663    3.1286 C   0  0  0  0  0  0  0  0  0  0  0  0
    1.2197  -11.4898    2.5831 C   0  0  0  0  0  0  0  0  0  0  0  0
    1.0589  -11.4458    1.1293 C   0  0  0  0  0  0  0  0  0  0  0  0
    0.9638  -10.3069    0.4651 C   0  0  0  0  0  0  0  0  0  0  0  0
    0.9191   -9.0789    1.1942 C   0  0  0  0  0  0  0  0  0  0  0  0
    0.9198   -7.8339    0.6158 C   0  0  0  0  0  0  0  0  0  0  0  0
    1.0184   -6.6904    1.4953 C   0  0  0  0  0  0  0  0  0  0  0  0
    1.3841  -13.0355    3.2102 C   0  0  0  0  0  0  0  0  0  0  0  0
    2.3066  -13.7823    2.5817 C   0  0  0  0  0  0  0  0  0  0  0  0
    1.7879  -15.2373    2.5956 C   0  0  1  0  0  0  0  0  0  0  0  0
    0.6494  -15.5859    3.3392 C   0  0  0  0  0  0  0  0  0  0  0  0
    2.0193  -15.8363    1.4119 C   0  0  0  0  0  0  0  0  0  0  0  0
    2.0819  -15.2007    0.4055 C   0  0  0  0  0  0  0  0  0  0  0  0
    0.7931   -7.6471   -0.5341 O   0  0  0  0  0  0  0  0  0  0  0  0
  1  2  1  0
  8  9  1  0
  9 10  1  0
  5 11  1  0
 11 12  1  0
 12 13  1  0
 13 14  1  6
 13 15  1  0
 15 16  1  0
  9 17  2  0
  1  3  1  0
  2 10  1  0
  3  4  2  0
  4  5  1  0
  5  6  2  0
  6  7  1  0
  7  8  2  0
  3  8  1  0
M  END

$$$$
No_3706-/export/home/yangzhenyu/potential_scad_32_flow//YTHDC2/2024-12-06-03-22-00/
     RDKit          3D

 19 20  0  0  0  0  0  0  0  0999 V2000
    1.1787   -8.0297    3.5154 C   0  0  0  0  0  0  0  0  0  0  0  0
    1.1048   -9.2215    3.2892 C   0  0  0  0  0  0  0  0  0  0  0  0
    1.2339   -9.7611    2.0189 C   0  0  0  0  0  0  0  0  0  0  0  0
    1.3583   -9.0036    0.9764 C   0  0  0  0  0  0  0  0  0  0  0  0
    1.5996   -7.6362    1.1311 C   0  0  0  0  0  0  0  0  0  0  0  0
    1.4830   -7.0928    2.3626 C   0  0  0  0  0  0  0  0  0  0  0  0
    1.5395   -5.7300    2.6182 C   0  0  0  0  0  0  0  0  0  0  0  0
    1.1775  -11.2233    1.8407 C   0  0  0  0  0  0  0  0  0  0  0  0
    1.9057  -12.1147    2.3397 C   0  0  0  0  0  0  0  0  0  0  0  0
    1.2923  -13.3224    2.7485 C   0  0  0  0  0  0  0  0  0  0  0  0
    0.7433  -14.1681    1.8127 C   0  0  0  0  0  0  0  0  0  0  0  0
   -0.1483  -14.6146    2.2382 C   0  0  0  0  0  0  0  0  0  0  0  0
   -0.7097  -15.6479    1.5008 C   0  0  0  0  0  0  0  0  0  0  0  0
   -0.1635  -16.1245    0.3230 C   0  0  0  0  0  0  0  0  0  0  0  0
    0.8898  -15.3681   -0.1046 C   0  0  0  0  0  0  0  0  0  0  0  0
    1.3966  -14.3609    0.6392 C   0  0  0  0  0  0  0  0  0  0  0  0
    1.3007   -4.8072    1.6831 C   0  0  0  0  0  0  0  0  0  0  0  0
    1.2404   -3.3712    1.9043 C   0  0  0  0  0  0  0  0  0  0  0  0
    0.3514  -11.5033    0.6586 O   0  0  0  0  0  0  0  0  0  0  0  0
  6  7  1  0
  3  8  1  0
  8  9  1  0
  9 10  1  0
 10 11  1  0
  7 17  2  3
 17 18  1  0
  8 19  2  0
 11 12  2  0
 12 13  1  0
 13 14  2  0
 14 15  1  0
 15 16  2  0
 11 16  1  0
  1  2  2  0
  2  3  1  0
  3  4  2  0
  4  5  1  0
  5  6  2  0
  1  6  1  0
M  END

$$$$
No_3707-/export/home/yangzhenyu/potential_scad_32_flow//YTHDC2/2024-12-06-03-22-00/
     RDKit          3D

 18 19  0  0  0  0  0  0  0  0999 V2000
    1.1787   -8.0297    3.5154 C   0  0  0  0  0  0  0  0  0  0  0  0
    1.0491   -6.8434    2.9820 N   0  0  0  0  0  0  0  0  0  0  0  0
    1.0164   -9.0814    2.6596 C   0  0  0  0  0  0  0  0  0  0  0  0
    0.8420   -8.8183    1.4191 C   0  0  0  0  0  0  0  0  0  0  0  0
    0.8257   -7.4377    1.2233 C   0  0  0  0  0  0  0  0  0  0  0  0
    0.9947   -6.4434    1.9274 C   0  0  0  0  0  0  0  0  0  0  0  0
    0.9888   -5.1011    1.4900 C   0  0  0  0  0  0  0  0  0  0  0  0
    1.1310  -10.6585    3.2396 C   0  0  0  0  0  0  0  0  0  0  0  0
    1.2657  -11.5855    2.5567 C   0  0  0  0  0  0  0  0  0  0  0  0
    1.3982  -12.8653    3.1247 C   0  0  0  0  0  0  0  0  0  0  0  0
    1.2638  -14.0457    2.4539 C   0  0  0  0  0  0  0  0  0  0  0  0
    1.5420  -14.3780    1.2926 Cl  0  0  0  0  0  0  0  0  0  0  0  0
    0.8239  -15.1768    3.3953 Cl  0  0  0  0  0  0  0  0  0  0  0  0
    0.2300   -4.1785    2.1414 O   0  0  0  0  0  0  0  0  0  0  0  0
    0.7404   -9.7749    0.3442 C   0  0  0  0  0  0  0  0  0  0  0  0
    0.5473   -9.6148   -0.7435 O   0  0  0  0  0  0  0  0  0  0  0  0
    0.5880  -11.1242    0.7170 O   0  0  0  0  0  0  0  0  0  0  0  0
    1.2310  -11.5926    1.1535 C   0  0  0  0  0  0  0  0  0  0  0  0
  6  7  1  0
  3  8  1  0
  8  9  2  0
  9 10  1  0
 10 11  1  0
 11 12  1  0
 11 13  1  0
  7 14  1  0
  4 15  1  0
 15 16  2  0
 15 17  1  0
  9 18  1  0
 17 18  1  0
  1  2  2  0
  2  6  1  0
  5  6  2  0
  4  5  1  0
  3  4  2  0
  1  3  1  0
M  END

$$$$
No_3708-/export/home/yangzhenyu/potential_scad_32_flow//YTHDC2/2024-12-06-03-22-00/
     RDKit          3D

 17 18  0  0  1  0  0  0  0  0999 V2000
    1.1787   -8.0297    3.5154 C   0  0  0  0  0  0  0  0  0  0  0  0
    1.1048   -9.2215    3.2892 C   0  0  0  0  0  0  0  0  0  0  0  0
    1.2339   -9.7611    2.0189 C   0  0  0  0  0  0  0  0  0  0  0  0
    1.1954  -11.2312    1.8661 C   0  0  0  0  0  0  0  0  0  0  0  0
    1.5546  -12.1691    2.7931 C   0  0  0  0  0  0  0  0  0  0  0  0
    0.5849   -7.0929    2.5729 C   0  0  0  0  0  0  0  0  0  0  0  0
    0.5567   -7.6699    1.1955 C   0  0  0  0  0  0  0  0  0  0  0  0
    0.7903   -8.9699    0.9209 C   0  0  0  0  0  0  0  0  0  0  0  0
    1.5479  -13.4950    2.3569 C   0  0  0  0  0  0  0  0  0  0  0  0
    1.2456  -13.9001    1.1648 C   0  0  0  0  0  0  0  0  0  0  0  0
    1.0233  -13.0589    0.1983 C   0  0  0  0  0  0  0  0  0  0  0  0
    0.9548  -11.6626    0.4956 C   0  0  0  0  0  0  0  0  0  0  0  0
    0.6175   -5.4409    2.6606 C   0  0  2  0  0  0  0  0  0  0  0  0
    1.7159   -4.9469    3.1881 C   0  0  0  0  0  0  0  0  0  0  0  0
    2.0176  -14.5411    3.5804 C   0  0  0  0  0  0  0  0  0  0  0  0
    1.4863   -3.5118    3.2605 C   0  0  0  0  0  0  0  0  0  0  0  0
   -0.5740   -4.9916    2.2438 C   0  0  0  0  0  0  0  0  0  0  0  0
  3  4  1  0
  6 13  1  0
 13 14  1  0
  9 15  1  0
 14 16  2  0
 13 17  1  1
  1  2  2  0
  2  3  1  0
  3  8  2  0
  7  8  1  0
  6  7  2  0
  1  6  1  0
  4  5  2  0
  5  9  1  0
  9 10  2  0
 10 11  1  0
 11 12  2  0
  4 12  1  0
M  END

$$$$
No_3709-/export/home/yangzhenyu/potential_scad_32_flow//YTHDC2/2024-12-06-03-22-00/
     RDKit          3D

 18 19  0  0  1  0  0  0  0  0999 V2000
    1.1787   -8.0297    3.5154 C   0  0  0  0  0  0  0  0  0  0  0  0
    1.1048   -9.2215    3.2892 C   0  0  0  0  0  0  0  0  0  0  0  0
    1.2339   -9.7611    2.0189 C   0  0  1  0  0  0  0  0  0  0  0  0
    1.1954  -11.2312    1.8661 C   0  0  0  0  0  0  0  0  0  0  0  0
    1.5546  -12.1691    2.7931 C   0  0  0  0  0  0  0  0  0  0  0  0
    0.5849   -7.0929    2.5729 C   0  0  2  0  0  0  0  0  0  0  0  0
    0.5567   -7.6699    1.1955 C   0  0  0  0  0  0  0  0  0  0  0  0
    0.7903   -8.9699    0.9209 C   0  0  0  0  0  0  0  0  0  0  0  0
    1.5521  -13.4960    2.3485 C   0  0  0  0  0  0  0  0  0  0  0  0
    1.2403  -13.8919    1.1557 C   0  0  0  0  0  0  0  0  0  0  0  0
    1.0311  -12.9707    0.1488 C   0  0  0  0  0  0  0  0  0  0  0  0
    0.9678  -11.6394    0.4949 C   0  0  0  0  0  0  0  0  0  0  0  0
    0.6075   -5.5221    2.6486 C   0  0  0  0  0  0  0  0  0  0  0  0
    0.3323   -6.8583    0.1749 O   0  0  0  0  0  0  0  0  0  0  0  0
   -0.6082   -4.9840    2.5593 C   0  0  0  0  0  0  0  0  0  0  0  0
   -0.6347   -3.5320    2.4599 C   0  0  0  0  0  0  0  0  0  0  0  0
    0.5817   -2.8795    2.6791 C   0  0  0  0  0  0  0  0  0  0  0  0
    1.7791   -3.5103    2.9578 C   0  0  0  0  0  0  0  0  0  0  0  0
  1  2  1  0
  3  4  1  1
  6  7  1  0
  3  8  1  0
  7  8  1  0
  6 13  1  6
  7 14  2  0
 13 15  1  0
 15 16  2  3
 16 17  1  0
 17 18  2  0
  1  6  1  0
  2  3  1  0
  4  5  2  0
  5  9  1  0
  9 10  2  0
 10 11  1  0
 11 12  2  0
  4 12  1  0
M  END

$$$$
No_3710-/export/home/yangzhenyu/potential_scad_32_flow//YTHDC2/2024-12-06-03-22-00/
     RDKit          3D

 21 22  0  0  1  0  0  0  0  0999 V2000
    1.1787   -8.0297    3.5154 C   0  0  0  0  0  0  0  0  0  0  0  0
    1.0491   -6.8434    2.9820 C   0  0  0  0  0  0  0  0  0  0  0  0
    0.9905   -9.0774    2.6527 C   0  0  2  0  0  0  0  0  0  0  0  0
    1.1655  -10.4663    3.1286 C   0  0  0  0  0  0  0  0  0  0  0  0
    1.2197  -11.4898    2.5831 C   0  0  2  0  0  0  0  0  0  0  0  0
    1.0589  -11.4458    1.1293 C   0  0  2  0  0  0  0  0  0  0  0  0
    1.0997  -12.7066    0.4829 C   0  0  0  0  0  0  0  0  0  0  0  0
    0.2236   -6.3334    2.2789 N   0  0  0  0  0  0  0  0  0  0  0  0
    1.1611  -10.3687    0.4317 C   0  0  0  0  0  0  0  0  0  0  0  0
    1.0500   -9.0846    1.2325 C   0  0  0  0  0  0  0  0  0  0  0  0
    0.3642   -5.0272    1.7963 C   0  0  0  0  0  0  0  0  0  0  0  0
    0.9780  -10.1345   -0.7382 O   0  0  0  0  0  0  0  0  0  0  0  0
   -0.4448   -4.4194    1.0261 C   0  0  0  0  0  0  0  0  0  0  0  0
   -0.2892   -3.2237    0.4434 C   0  0  0  0  0  0  0  0  0  0  0  0
    0.8297   -2.4843    0.8301 C   0  0  0  0  0  0  0  0  0  0  0  0
    1.6104   -4.2962    2.0061 C   0  0  0  0  0  0  0  0  0  0  0  0
    1.8305   -3.0721    1.4961 C   0  0  0  0  0  0  0  0  0  0  0  0
    1.2822  -12.7137    3.2298 O   0  0  0  0  0  0  0  0  0  0  0  0
   -1.3566   -2.6043   -0.2928 Cl  0  0  0  0  0  0  0  0  0  0  0  0
    1.0981   -7.9296    0.5365 O   0  0  0  0  0  0  0  0  0  0  0  0
    1.3748  -10.5645    4.7088 O   0  0  0  0  0  0  0  0  0  0  0  0
  1  2  1  0
  3  4  1  0
  5  6  1  0
  6  7  1  6
  2  8  2  3
  6  9  1  0
  3 10  1  0
  9 10  1  0
  8 11  1  0
  9 12  2  0
  5 18  1  1
 14 19  1  0
 10 20  2  0
  4 21  1  0
  3  1  1  1
  4  5  1  0
 11 13  2  0
 13 14  1  0
 14 15  2  0
 15 17  1  0
 16 17  2  0
 11 16  1  0
M  END

$$$$
No_3711-/export/home/yangzhenyu/potential_scad_32_flow//YTHDC2/2024-12-06-03-22-00/
     RDKit          3D

 18 18  0  0  0  0  0  0  0  0999 V2000
    1.1787   -8.0297    3.5154 C   0  0  0  0  0  0  0  0  0  0  0  0
    1.1048   -9.2215    3.2892 C   0  0  0  0  0  0  0  0  0  0  0  0
    1.3627  -10.1721    4.3044 C   0  0  0  0  0  0  0  0  0  0  0  0
    1.7354  -11.4730    3.9023 C   0  0  0  0  0  0  0  0  0  0  0  0
    1.8080  -11.8127    2.7216 C   0  0  0  0  0  0  0  0  0  0  0  0
    1.5854  -11.0021    1.7249 C   0  0  0  0  0  0  0  0  0  0  0  0
    1.3573   -9.7389    1.9287 C   0  0  0  0  0  0  0  0  0  0  0  0
    1.2865   -8.8078    0.9161 C   0  0  0  0  0  0  0  0  0  0  0  0
    1.6845   -9.1638   -0.2896 C   0  0  0  0  0  0  0  0  0  0  0  0
    2.0917  -13.3473    2.3482 O   0  0  0  0  0  0  0  0  0  0  0  0
    1.6805   -8.1271   -1.3859 C   0  0  0  0  0  0  0  0  0  0  0  0
    0.1535   -7.2155    3.2073 O   0  0  0  0  0  0  0  0  0  0  0  0
    2.1750   -7.1932    3.9545 O   0  0  0  0  0  0  0  0  0  0  0  0
    1.1990  -14.2486    2.0934 C   0  0  0  0  0  0  0  0  0  0  0  0
    0.0149  -13.8243    1.6746 C   0  0  0  0  0  0  0  0  0  0  0  0
   -0.8926  -14.7016    1.4359 C   0  0  0  0  0  0  0  0  0  0  0  0
   -0.6285  -16.0161    1.4225 C   0  0  0  0  0  0  0  0  0  0  0  0
    0.6059  -16.4515    1.8851 C   0  0  0  0  0  0  0  0  0  0  0  0
  1  2  1  0
  7  8  1  0
  8  9  2  3
  5 10  1  0
  9 11  1  0
  1 12  2  0
  1 13  1  0
 10 14  1  0
 14 15  1  0
 15 16  2  3
 16 17  1  0
 17 18  2  0
  2  3  2  0
  3  4  1  0
  4  5  2  0
  5  6  1  0
  6  7  2  0
  2  7  1  0
M  END

$$$$
No_3712-/export/home/yangzhenyu/potential_scad_32_flow//YTHDC2/2024-12-06-03-22-00/
     RDKit          3D

 12 13  0  0  0  0  0  0  0  0999 V2000
    1.1787   -8.0297    3.5154 C   0  0  0  0  0  0  0  0  0  0  0  0
    1.1048   -9.2215    3.2892 C   0  0  0  0  0  0  0  0  0  0  0  0
    1.3627  -10.1721    4.3044 C   0  0  0  0  0  0  0  0  0  0  0  0
    1.0682  -11.5187    4.0618 C   0  0  0  0  0  0  0  0  0  0  0  0
    0.6332  -11.9655    2.9682 C   0  0  0  0  0  0  0  0  0  0  0  0
    0.4776  -11.1308    1.9203 C   0  0  0  0  0  0  0  0  0  0  0  0
    0.7470   -9.8274    2.0368 C   0  0  0  0  0  0  0  0  0  0  0  0
    1.0387   -7.0301    2.5175 C   0  0  0  0  0  0  0  0  0  0  0  0
    0.9130   -7.5288    1.2013 C   0  0  0  0  0  0  0  0  0  0  0  0
    1.0339   -6.5946    0.2140 C   0  0  0  0  0  0  0  0  0  0  0  0
    0.8501   -8.8374    0.9631 C   0  0  0  0  0  0  0  0  0  0  0  0
    0.6142   -7.0635   -0.8501 C   0  0  0  0  0  0  0  0  0  0  0  0
  9 10  1  0
 10 12  2  0
  2  3  1  0
  3  4  2  0
  4  5  1  0
  5  6  2  0
  6  7  1  0
  1  2  2  0
  2  7  1  0
  7 11  2  0
  9 11  1  0
  8  9  2  0
  1  8  1  0
M  END

$$$$
No_3713-/export/home/yangzhenyu/potential_scad_32_flow//YTHDC2/2024-12-06-03-22-00/
     RDKit          3D

 16 17  0  0  0  0  0  0  0  0999 V2000
    1.1787   -8.0297    3.5154 C   0  0  0  0  0  0  0  0  0  0  0  0
    1.1048   -9.2215    3.2892 C   0  0  0  0  0  0  0  0  0  0  0  0
    1.2339   -9.7611    2.0189 C   0  0  0  0  0  0  0  0  0  0  0  0
    1.1954  -11.2312    1.8661 C   0  0  0  0  0  0  0  0  0  0  0  0
    1.5546  -12.1691    2.7931 C   0  0  0  0  0  0  0  0  0  0  0  0
    0.9527   -7.0669    2.3918 C   0  0  0  0  0  0  0  0  0  0  0  0
    1.0618   -7.6392    1.0692 C   0  0  0  0  0  0  0  0  0  0  0  0
    1.2060   -8.9530    0.8578 C   0  0  0  0  0  0  0  0  0  0  0  0
    1.5110  -13.5006    2.3856 C   0  0  0  0  0  0  0  0  0  0  0  0
    1.1461  -13.9087    1.2014 C   0  0  0  0  0  0  0  0  0  0  0  0
    0.9324  -13.0660    0.2177 C   0  0  0  0  0  0  0  0  0  0  0  0
    0.9275  -11.6786    0.5224 C   0  0  0  0  0  0  0  0  0  0  0  0
    1.0094   -5.6129    2.4729 C   0  0  0  0  0  0  0  0  0  0  0  0
    1.7702   -5.1447    3.4223 C   0  0  0  0  0  0  0  0  0  0  0  0
    1.5123   -3.6833    3.5001 N   0  0  0  0  0  0  0  0  0  0  0  0
    0.4342   -4.8097    1.5756 O   0  0  0  0  0  0  0  0  0  0  0  0
  3  4  1  0
  6 13  1  0
 13 14  1  0
 14 15  1  0
 13 16  2  0
  1  2  2  0
  2  3  1  0
  3  8  2  0
  7  8  1  0
  6  7  2  0
  1  6  1  0
  4  5  2  0
  5  9  1  0
  9 10  2  0
 10 11  1  0
 11 12  2  0
  4 12  1  0
M  END

$$$$
No_3714-/export/home/yangzhenyu/potential_scad_32_flow//YTHDC2/2024-12-06-03-22-00/
     RDKit          3D

 19 20  0  0  1  0  0  0  0  0999 V2000
    1.1787   -8.0297    3.5154 C   0  0  0  0  0  0  0  0  0  0  0  0
    1.1048   -9.2215    3.2892 C   0  0  0  0  0  0  0  0  0  0  0  0
    1.2339   -9.7611    2.0189 C   0  0  0  0  0  0  0  0  0  0  0  0
    1.3583   -9.0036    0.9764 C   0  0  0  0  0  0  0  0  0  0  0  0
    1.5996   -7.6362    1.1311 C   0  0  0  0  0  0  0  0  0  0  0  0
    1.4830   -7.0928    2.3626 C   0  0  0  0  0  0  0  0  0  0  0  0
    1.5395   -5.7300    2.6182 C   0  0  0  0  0  0  0  0  0  0  0  0
    1.1775  -11.2233    1.8407 C   0  0  0  0  0  0  0  0  0  0  0  0
    1.9057  -12.1147    2.3397 C   0  0  0  0  0  0  0  0  0  0  0  0
    1.6867  -13.4551    2.0621 C   0  0  2  0  0  0  0  0  0  0  0  0
    0.7025  -13.8511    1.3021 C   0  0  0  0  0  0  0  0  0  0  0  0
   -0.1111  -12.9140    0.6527 C   0  0  0  0  0  0  0  0  0  0  0  0
    0.1535  -11.5434    0.9240 C   0  0  0  0  0  0  0  0  0  0  0  0
    1.6688   -5.1779    3.8866 O   0  0  0  0  0  0  0  0  0  0  0  0
    1.4063   -4.8344    1.6658 O   0  0  0  0  0  0  0  0  0  0  0  0
    2.5143  -14.4249    2.7647 Cl  0  0  0  0  0  0  0  0  0  0  0  0
   -0.7692  -10.6980    0.4302 O   0  0  0  0  0  0  0  0  0  0  0  0
    1.6041   -9.3996   -0.3639 C   0  0  0  0  0  0  0  0  0  0  0  0
    2.4117  -10.2991   -0.7255 O   0  0  0  0  0  0  0  0  0  0  0  0
  6  7  1  0
  3  8  1  0
  8  9  1  0
 10 11  1  0
  8 13  1  0
 12 13  1  0
  7 14  1  0
  7 15  2  0
 10 16  1  1
 13 17  2  0
  4 18  1  0
 18 19  2  0
  9 10  1  0
 11 12  1  0
  1  2  2  0
  2  3  1  0
  3  4  2  0
  4  5  1  0
  5  6  2  0
  1  6  1  0
M  END

$$$$
No_3715-/export/home/yangzhenyu/potential_scad_32_flow//YTHDC2/2024-12-06-03-22-00/
     RDKit          3D

 19 20  0  0  1  0  0  0  0  0999 V2000
    1.1787   -8.0297    3.5154 C   0  0  0  0  0  0  0  0  0  0  0  0
    1.0491   -6.8434    2.9820 C   0  0  0  0  0  0  0  0  0  0  0  0
    0.9905   -9.0774    2.6527 C   0  0  0  0  0  0  0  0  0  0  0  0
    0.7897   -8.9519    1.3691 C   0  0  0  0  0  0  0  0  0  0  0  0
    0.7018   -7.7198    0.7892 C   0  0  0  0  0  0  0  0  0  0  0  0
    0.8918   -6.5957    1.6117 C   0  0  0  0  0  0  0  0  0  0  0  0
    1.0998  -10.4710    3.2437 C   0  0  1  0  0  0  0  0  0  0  0  0
    0.0472  -11.2546    3.3963 C   0  0  0  0  0  0  0  0  0  0  0  0
   -1.1989  -10.6161    3.7011 C   0  0  0  0  0  0  0  0  0  0  0  0
    0.8958   -5.2750    1.1754 C   0  0  0  0  0  0  0  0  0  0  0  0
   -2.3154  -10.8612    3.0663 C   0  0  0  0  0  0  0  0  0  0  0  0
   -2.3995  -12.0318    2.3626 C   0  0  0  0  0  0  0  0  0  0  0  0
   -1.2372  -12.7722    2.1357 C   0  0  0  0  0  0  0  0  0  0  0  0
    0.0099  -12.3594    2.5663 C   0  0  0  0  0  0  0  0  0  0  0  0
    2.3913  -10.8231    3.5247 C   0  0  0  0  0  0  0  0  0  0  0  0
    1.1176  -13.0980    2.3703 C   0  0  2  0  0  0  0  0  0  0  0  0
    1.7417  -13.0741    1.1946 C   0  0  0  0  0  0  0  0  0  0  0  0
    1.0943  -14.5968    2.7124 C   0  0  0  0  0  0  0  0  0  0  0  0
    1.1479  -15.4627    2.0514 O   0  0  0  0  0  0  0  0  0  0  0  0
  3  7  1  0
  7  8  1  0
  6 10  1  0
  7 15  1  6
 14 16  1  0
 16 17  1  6
 16 18  1  0
 18 19  2  0
  1  2  2  0
  2  6  1  0
  5  6  2  0
  4  5  1  0
  3  4  2  0
  1  3  1  0
  8  9  2  0
  9 11  1  0
 11 12  2  0
 12 13  1  0
 13 14  2  0
  8 14  1  0
M  END

$$$$
No_3716-/export/home/yangzhenyu/potential_scad_32_flow//YTHDC2/2024-12-06-03-22-00/
     RDKit          3D

 18 19  0  0  1  0  0  0  0  0999 V2000
    1.1787   -8.0297    3.5154 C   0  0  0  0  0  0  0  0  0  0  0  0
    1.0491   -6.8434    2.9820 C   0  0  0  0  0  0  0  0  0  0  0  0
    1.9985   -8.9840    2.8958 C   0  0  0  0  0  0  0  0  0  0  0  0
    1.7297   -9.2108    1.6335 C   0  0  0  0  0  0  0  0  0  0  0  0
    1.5234   -8.1478    0.8618 C   0  0  0  0  0  0  0  0  0  0  0  0
    1.0558   -6.9632    1.4912 C   0  0  0  0  0  0  0  0  0  0  0  0
    2.2104  -10.4378    3.7113 C   0  0  0  0  0  0  0  0  0  0  0  0
    3.0996  -10.3856    4.4149 O   0  0  0  0  0  0  0  0  0  0  0  0
    1.5854  -11.4797    3.4189 N   0  0  0  0  0  0  0  0  0  0  0  0
    1.4680   -8.1359   -0.5881 N   0  0  0  0  0  0  0  0  0  0  0  0
    0.3625  -11.6653    2.7195 C   0  0  2  0  0  0  0  0  0  0  0  0
   -0.7432  -11.4625    3.4071 C   0  0  0  0  0  0  0  0  0  0  0  0
   -1.9135  -11.8423    2.9168 C   0  0  0  0  0  0  0  0  0  0  0  0
   -1.9231  -12.6389    1.8781 C   0  0  0  0  0  0  0  0  0  0  0  0
   -0.8108  -12.8456    1.1429 C   0  0  0  0  0  0  0  0  0  0  0  0
    0.4320  -12.4492    1.6423 C   0  0  0  0  0  0  0  0  0  0  0  0
    0.6984   -5.7109    3.4682 F   0  0  0  0  0  0  0  0  0  0  0  0
    1.6569  -12.7299    0.9881 O   0  0  0  0  0  0  0  0  0  0  0  0
  3  7  1  0
  7  8  2  0
  7  9  1  0
  5 10  1  0
 11  9  1  1
 11 12  1  0
 13 14  1  0
 11 16  1  0
 15 16  1  0
  2 17  1  0
 16 18  2  0
 12 13  1  0
 14 15  1  0
  1  2  2  0
  2  6  1  0
  5  6  2  0
  4  5  1  0
  3  4  2  0
  1  3  1  0
M  END

$$$$
No_3717-/export/home/yangzhenyu/potential_scad_32_flow//YTHDC2/2024-12-06-03-22-00/
     RDKit          3D

 17 17  0  0  1  0  0  0  0  0999 V2000
    1.1787   -8.0297    3.5154 C   0  0  0  0  0  0  0  0  0  0  0  0
    1.1048   -9.2215    3.2892 C   0  0  0  0  0  0  0  0  0  0  0  0
    1.2339   -9.7611    2.0189 C   0  0  0  0  0  0  0  0  0  0  0  0
    1.1954  -11.2312    1.8661 C   0  0  2  0  0  0  0  0  0  0  0  0
    1.2996  -11.5815    0.5387 C   0  0  0  0  0  0  0  0  0  0  0  0
    1.3263   -7.1208    2.3229 C   0  0  0  0  0  0  0  0  0  0  0  0
    1.3693   -7.6408    1.0625 C   0  0  0  0  0  0  0  0  0  0  0  0
    1.5228   -8.9954    0.8505 C   0  0  0  0  0  0  0  0  0  0  0  0
    0.8848  -11.9503    2.8725 C   0  0  0  0  0  0  0  0  0  0  0  0
    1.6782  -12.5529    3.4909 C   0  0  0  0  0  0  0  0  0  0  0  0
    1.3609   -5.6345    2.5569 Cl  0  0  0  0  0  0  0  0  0  0  0  0
    0.5715  -12.4435    0.2263 O   0  0  0  0  0  0  0  0  0  0  0  0
    1.5812  -14.0015    3.2295 O   0  0  0  0  0  0  0  0  0  0  0  0
    0.2579  -14.5622    3.2957 C   0  0  0  0  0  0  0  0  0  0  0  0
    2.2881  -11.5009    0.0006 O   0  0  0  0  0  0  0  0  0  0  0  0
    0.4000  -16.0062    3.2335 C   0  0  0  0  0  0  0  0  0  0  0  0
   -0.6384  -16.6556    3.6721 O   0  0  0  0  0  0  0  0  0  0  0  0
  3  4  1  0
  4  5  1  0
  4  9  1  6
  9 10  1  0
  6 11  1  0
  5 12  1  0
 10 13  1  0
 13 14  1  0
  5 15  2  0
 14 16  1  0
 16 17  2  0
  1  2  2  0
  2  3  1  0
  3  8  2  0
  7  8  1  0
  6  7  2  0
  1  6  1  0
M  END

$$$$
No_3718-/export/home/yangzhenyu/potential_scad_32_flow//YTHDC2/2024-12-06-03-22-00/
     RDKit          3D

 18 20  0  0  0  0  0  0  0  0999 V2000
    1.1787   -8.0297    3.5154 C   0  0  0  0  0  0  0  0  0  0  0  0
    1.1048   -9.2215    3.2892 C   0  0  0  0  0  0  0  0  0  0  0  0
    1.3627  -10.1721    4.3044 C   0  0  0  0  0  0  0  0  0  0  0  0
    1.7354  -11.4730    3.9023 C   0  0  0  0  0  0  0  0  0  0  0  0
    1.8080  -11.8127    2.7216 C   0  0  0  0  0  0  0  0  0  0  0  0
    1.5854  -11.0021    1.7249 C   0  0  0  0  0  0  0  0  0  0  0  0
    1.3573   -9.7389    1.9287 C   0  0  0  0  0  0  0  0  0  0  0  0
    1.1102   -8.8712    0.9017 C   0  0  0  0  0  0  0  0  0  0  0  0
    0.5299   -7.6926    1.0325 C   0  0  0  0  0  0  0  0  0  0  0  0
    0.7526   -7.0802    2.3301 C   0  0  0  0  0  0  0  0  0  0  0  0
    2.0515  -13.2522    2.4284 C   0  0  0  0  0  0  0  0  0  0  0  0
    1.1057  -14.0132    1.8338 C   0  0  0  0  0  0  0  0  0  0  0  0
    0.8014  -15.0409    2.4765 C   0  0  0  0  0  0  0  0  0  0  0  0
    0.3343  -16.1521    1.8805 C   0  0  0  0  0  0  0  0  0  0  0  0
    0.0631  -16.1575    0.5982 C   0  0  0  0  0  0  0  0  0  0  0  0
    0.5292  -15.0993   -0.1538 C   0  0  0  0  0  0  0  0  0  0  0  0
    1.0340  -13.9738    0.4885 C   0  0  0  0  0  0  0  0  0  0  0  0
    0.4899   -5.6507    2.5309 C   0  0  0  0  0  0  0  0  0  0  0  0
  5 11  1  0
 11 12  1  0
 10 18  1  0
  1  2  2  0
  7  8  2  0
  8  9  1  0
  9 10  2  0
  1 10  1  0
  2  3  1  0
  3  4  2  0
  4  5  1  0
  5  6  2  0
  6  7  1  0
  2  7  1  0
 12 13  2  0
 13 14  1  0
 14 15  2  0
 15 16  1  0
 16 17  2  0
 12 17  1  0
M  END

$$$$
No_3719-/export/home/yangzhenyu/potential_scad_32_flow//YTHDC2/2024-12-06-03-22-00/
     RDKit          3D

 18 19  0  0  0  0  0  0  0  0999 V2000
    1.1787   -8.0297    3.5154 C   0  0  0  0  0  0  0  0  0  0  0  0
    1.0491   -6.8434    2.9820 C   0  0  0  0  0  0  0  0  0  0  0  0
    0.0950   -8.8404    3.2292 C   0  0  0  0  0  0  0  0  0  0  0  0
    0.0602  -10.1764    3.8231 C   0  0  0  0  0  0  0  0  0  0  0  0
    0.3808   -6.2771    2.2009 C   0  0  0  0  0  0  0  0  0  0  0  0
   -0.5785   -7.1471    1.7089 C   0  0  0  0  0  0  0  0  0  0  0  0
   -0.6899   -8.4051    2.1311 C   0  0  0  0  0  0  0  0  0  0  0  0
   -0.0847  -11.3251    3.0187 C   0  0  0  0  0  0  0  0  0  0  0  0
    1.1315  -12.2544    3.1101 C   0  0  0  0  0  0  0  0  0  0  0  0
    1.0458  -13.4765    2.5282 C   0  0  0  0  0  0  0  0  0  0  0  0
   -0.0588  -13.9200    2.0156 C   0  0  0  0  0  0  0  0  0  0  0  0
   -1.1519  -13.1619    1.9256 C   0  0  0  0  0  0  0  0  0  0  0  0
   -1.1647  -11.9109    2.4786 C   0  0  0  0  0  0  0  0  0  0  0  0
    0.5749   -4.9822    1.6358 O   0  0  0  0  0  0  0  0  0  0  0  0
    2.2399  -14.2754    2.6695 C   0  0  0  0  0  0  0  0  0  0  0  0
    2.5444  -15.0247    1.4991 O   0  0  0  0  0  0  0  0  0  0  0  0
    0.1257   -3.8852    2.1795 C   0  0  0  0  0  0  0  0  0  0  0  0
   -2.3253  -11.1281    2.3312 C   0  0  0  0  0  0  0  0  0  0  0  0
  3  4  1  0
  4  8  1  0
  5 14  1  0
 10 15  1  0
 15 16  2  0
 14 17  1  0
 13 18  1  0
  8  9  2  0
  9 10  1  0
 10 11  2  0
 11 12  1  0
 12 13  2  0
  8 13  1  0
  1  2  2  0
  2  5  1  0
  5  6  2  0
  6  7  1  0
  3  7  2  0
  1  3  1  0
M  END

$$$$
No_3720-/export/home/yangzhenyu/potential_scad_32_flow//YTHDC2/2024-12-06-03-22-00/
     RDKit          3D

 18 18  0  0  0  0  0  0  0  0999 V2000
    1.1787   -8.0297    3.5154 C   0  0  0  0  0  0  0  0  0  0  0  0
    1.0491   -6.8434    2.9820 C   0  0  0  0  0  0  0  0  0  0  0  0
    0.9905   -9.0774    2.6527 C   0  0  0  0  0  0  0  0  0  0  0  0
    0.7897   -8.9519    1.3691 C   0  0  0  0  0  0  0  0  0  0  0  0
    0.7018   -7.7198    0.7892 C   0  0  0  0  0  0  0  0  0  0  0  0
    0.8918   -6.5957    1.6117 C   0  0  0  0  0  0  0  0  0  0  0  0
    1.0774  -10.6059    3.3145 C   0  0  0  0  0  0  0  0  0  0  0  0
    2.1444  -11.0408    3.6446 C   0  0  0  0  0  0  0  0  0  0  0  0
   -0.0506  -11.2314    3.3994 C   0  0  0  0  0  0  0  0  0  0  0  0
   -1.1898  -10.5223    3.9624 C   0  0  0  0  0  0  0  0  0  0  0  0
    2.5665  -10.8307    4.9738 O   0  0  0  0  0  0  0  0  0  0  0  0
    0.8372   -5.2949    1.0784 O   0  0  0  0  0  0  0  0  0  0  0  0
   -1.0795   -9.7462    5.0894 F   0  0  0  0  0  0  0  0  0  0  0  0
   -2.0350  -11.6002    4.4911 F   0  0  0  0  0  0  0  0  0  0  0  0
   -1.9593   -9.8307    3.2379 I   0  0  0  0  0  0  0  0  0  0  0  0
    1.1854   -4.1984    1.8636 C   0  0  0  0  0  0  0  0  0  0  0  0
    3.1386  -11.6065    2.9635 N   0  0  0  0  0  0  0  0  0  0  0  0
    2.2952   -3.9951    2.1806 C   0  0  0  0  0  0  0  0  0  0  0  0
  3  7  1  0
  7  8  1  0
  7  9  1  0
  9 10  1  0
  8 11  2  0
  6 12  1  0
 10 13  1  0
 10 14  1  0
 10 15  1  0
 12 16  1  0
  8 17  1  0
 16 18  1  0
  1  2  2  0
  2  6  1  0
  5  6  2  0
  4  5  1  0
  3  4  2  0
  1  3  1  0
M  END

$$$$
No_3721-/export/home/yangzhenyu/potential_scad_32_flow//YTHDC2/2024-12-06-03-22-00/
     RDKit          3D

 19 20  0  0  0  0  0  0  0  0999 V2000
    1.1787   -8.0297    3.5154 C   0  0  0  0  0  0  0  0  0  0  0  0
    1.0491   -6.8434    2.9820 C   0  0  0  0  0  0  0  0  0  0  0  0
    0.9905   -9.0774    2.6527 C   0  0  0  0  0  0  0  0  0  0  0  0
    0.7897   -8.9519    1.3691 C   0  0  0  0  0  0  0  0  0  0  0  0
    0.7018   -7.7198    0.7892 C   0  0  0  0  0  0  0  0  0  0  0  0
    0.8918   -6.5957    1.6117 C   0  0  0  0  0  0  0  0  0  0  0  0
    1.0998  -10.4710    3.2437 C   0  0  0  0  0  0  0  0  0  0  0  0
    1.3102  -11.5554    2.5214 C   0  0  0  0  0  0  0  0  0  0  0  0
    1.4257  -12.8124    3.1919 C   0  0  0  0  0  0  0  0  0  0  0  0
    1.4301  -14.0627    2.4374 C   0  0  0  0  0  0  0  0  0  0  0  0
    0.8588   -5.2558    1.2463 C   0  0  0  0  0  0  0  0  0  0  0  0
    2.4123  -14.2023    1.4711 C   0  0  0  0  0  0  0  0  0  0  0  0
    1.6034  -15.2824    3.4057 C   0  0  0  0  0  0  0  0  0  0  0  0
    0.1829   -4.2988    2.0157 C   0  0  0  0  0  0  0  0  0  0  0  0
    0.9263   -3.3623    2.6230 C   0  0  0  0  0  0  0  0  0  0  0  0
    0.2370   -2.6620    3.7347 C   0  0  0  0  0  0  0  0  0  0  0  0
   -1.0852   -2.6311    3.6498 C   0  0  0  0  0  0  0  0  0  0  0  0
   -1.8831   -3.3782    2.9647 C   0  0  0  0  0  0  0  0  0  0  0  0
   -1.2692   -4.2147    2.0611 C   0  0  0  0  0  0  0  0  0  0  0  0
  3  7  1  0
  7  8  2  3
  8  9  1  0
  9 10  1  0
  6 11  1  0
 10 12  1  0
 10 13  1  0
 11 14  1  0
 14 15  2  0
 15 16  1  0
 16 17  2  0
 17 18  1  0
 18 19  2  0
 14 19  1  0
  1  2  2  0
  2  6  1  0
  5  6  2  0
  4  5  1  0
  3  4  2  0
  1  3  1  0
M  END

$$$$
No_3722-/export/home/yangzhenyu/potential_scad_32_flow//YTHDC2/2024-12-06-03-22-00/
     RDKit          3D

 16 17  0  0  0  0  0  0  0  0999 V2000
    1.1787   -8.0297    3.5154 C   0  0  0  0  0  0  0  0  0  0  0  0
    1.1048   -9.2215    3.2892 C   0  0  0  0  0  0  0  0  0  0  0  0
    1.3627  -10.1721    4.3044 C   0  0  0  0  0  0  0  0  0  0  0  0
    1.7354  -11.4730    3.9023 C   0  0  0  0  0  0  0  0  0  0  0  0
    1.8080  -11.8127    2.7216 C   0  0  0  0  0  0  0  0  0  0  0  0
    1.5854  -11.0021    1.7249 C   0  0  0  0  0  0  0  0  0  0  0  0
    1.3573   -9.7389    1.9287 C   0  0  0  0  0  0  0  0  0  0  0  0
    1.2865   -8.8078    0.9161 C   0  0  0  0  0  0  0  0  0  0  0  0
    0.9210   -7.5140    1.1674 C   0  0  0  0  0  0  0  0  0  0  0  0
    1.0097   -7.0192    2.4369 C   0  0  0  0  0  0  0  0  0  0  0  0
    2.0228  -13.2586    2.4222 C   0  0  0  0  0  0  0  0  0  0  0  0
    2.3575  -13.7715    1.2631 N   0  0  0  0  0  0  0  0  0  0  0  0
    1.8005  -14.1907    3.3956 O   0  0  0  0  0  0  0  0  0  0  0  0
    0.8513   -5.6108    2.7024 C   0  0  0  0  0  0  0  0  0  0  0  0
    1.7975   -4.9317    3.2477 N   0  0  0  0  0  0  0  0  0  0  0  0
   -0.2463   -5.0240    2.3646 O   0  0  0  0  0  0  0  0  0  0  0  0
  5 11  1  0
 11 12  1  0
 11 13  2  0
 10 14  1  0
 14 15  1  0
 14 16  2  0
  1  2  2  0
  7  8  2  0
  8  9  1  0
  9 10  2  0
  1 10  1  0
  2  3  1  0
  3  4  2  0
  4  5  1  0
  5  6  2  0
  6  7  1  0
  2  7  1  0
M  END

$$$$
No_3723-/export/home/yangzhenyu/potential_scad_32_flow//YTHDC2/2024-12-06-03-22-00/
     RDKit          3D

 12 12  0  0  0  0  0  0  0  0999 V2000
    1.1787   -8.0297    3.5154 C   0  0  0  0  0  0  0  0  0  0  0  0
    1.1048   -9.2215    3.2892 C   0  0  0  0  0  0  0  0  0  0  0  0
    1.3627  -10.1721    4.3044 C   0  0  0  0  0  0  0  0  0  0  0  0
    1.7354  -11.4730    3.9023 C   0  0  0  0  0  0  0  0  0  0  0  0
    1.8080  -11.8127    2.7216 C   0  0  0  0  0  0  0  0  0  0  0  0
    1.5854  -11.0021    1.7249 C   0  0  0  0  0  0  0  0  0  0  0  0
    1.3573   -9.7389    1.9287 C   0  0  0  0  0  0  0  0  0  0  0  0
    1.2865   -8.8078    0.9161 C   0  0  0  0  0  0  0  0  0  0  0  0
    0.9210   -7.5140    1.1674 O   0  0  0  0  0  0  0  0  0  0  0  0
    1.4288   -9.1781   -0.4279 O   0  0  0  0  0  0  0  0  0  0  0  0
    2.0879  -13.2053    2.3135 Cl  0  0  0  0  0  0  0  0  0  0  0  0
    2.4870   -7.3812    3.6912 Cl  0  0  0  0  0  0  0  0  0  0  0  0
  1  2  1  0
  7  8  1  0
  8  9  2  0
  8 10  1  0
  5 11  1  0
  1 12  1  0
  2  3  2  0
  3  4  1  0
  4  5  2  0
  5  6  1  0
  6  7  2  0
  2  7  1  0
M  END

$$$$
No_3724-/export/home/yangzhenyu/potential_scad_32_flow//YTHDC2/2024-12-06-03-22-00/
     RDKit          3D

 14 15  0  0  0  0  0  0  0  0999 V2000
    1.1787   -8.0297    3.5154 C   0  0  0  0  0  0  0  0  0  0  0  0
    1.1048   -9.2215    3.2892 C   0  0  0  0  0  0  0  0  0  0  0  0
    1.3627  -10.1721    4.3044 C   0  0  0  0  0  0  0  0  0  0  0  0
    1.7354  -11.4730    3.9023 C   0  0  0  0  0  0  0  0  0  0  0  0
    1.8080  -11.8127    2.7216 C   0  0  0  0  0  0  0  0  0  0  0  0
    1.5854  -11.0021    1.7249 C   0  0  0  0  0  0  0  0  0  0  0  0
    1.3573   -9.7389    1.9287 C   0  0  0  0  0  0  0  0  0  0  0  0
    1.2865   -8.8078    0.9161 C   0  0  0  0  0  0  0  0  0  0  0  0
    1.6845   -9.1638   -0.2896 O   0  0  0  0  0  0  0  0  0  0  0  0
    1.1989   -7.4617    1.0956 P   0  0  0  0  0  0  0  0  0  0  0  0
    1.3257   -6.9581    2.5988 C   0  0  0  0  0  0  0  0  0  0  0  0
   -0.2212   -6.9388    0.6624 O   0  0  0  0  0  0  0  0  0  0  0  0
    2.0417  -13.2422    2.3810 N   0  0  0  0  0  0  0  0  0  0  0  0
    2.1200  -13.7837    1.1297 O   0  0  0  0  0  0  0  0  0  0  0  0
  1  2  1  0
  7  8  1  0
  8  9  2  0
  8 10  1  0
  1 11  2  0
 10 11  1  0
 10 12  1  0
  5 13  1  0
 13 14  2  0
  2  3  2  0
  3  4  1  0
  4  5  2  0
  5  6  1  0
  6  7  2  0
  2  7  1  0
M  END

$$$$
No_3725-/export/home/yangzhenyu/potential_scad_32_flow//YTHDC2/2024-12-06-03-22-00/
     RDKit          3D

 18 19  0  0  0  0  0  0  0  0999 V2000
    1.1787   -8.0297    3.5154 N   0  0  0  0  0  0  0  0  0  0  0  0
    0.8669   -7.0905    2.8589 C   0  0  0  0  0  0  0  0  0  0  0  0
    0.8842   -5.8387    3.2677 C   0  0  0  0  0  0  0  0  0  0  0  0
    1.2819   -9.4050    3.1259 C   0  0  0  0  0  0  0  0  0  0  0  0
    0.9577   -9.7285    2.0210 C   0  0  0  0  0  0  0  0  0  0  0  0
    0.5397   -8.8365    1.1063 C   0  0  0  0  0  0  0  0  0  0  0  0
    0.5474   -7.4800    1.4498 C   0  0  0  0  0  0  0  0  0  0  0  0
    0.1668   -6.5474    0.6211 C   0  0  0  0  0  0  0  0  0  0  0  0
    1.7684  -10.3713    4.2030 C   0  0  0  0  0  0  0  0  0  0  0  0
    1.0329  -11.6557    4.2829 C   0  0  0  0  0  0  0  0  0  0  0  0
    1.7233  -12.7750    3.7820 N   0  0  0  0  0  0  0  0  0  0  0  0
    1.0753  -13.4470    2.8197 C   0  0  0  0  0  0  0  0  0  0  0  0
   -0.0192  -13.1572    2.3224 C   0  0  0  0  0  0  0  0  0  0  0  0
    1.9069  -14.6474    2.4181 C   0  0  0  0  0  0  0  0  0  0  0  0
   -1.0351  -13.1117    2.7134 O   0  0  0  0  0  0  0  0  0  0  0  0
    0.1675  -12.9449    0.8954 N   0  0  0  0  0  0  0  0  0  0  0  0
    0.3869   -5.3131    0.7475 N   0  0  0  0  0  0  0  0  0  0  0  0
    0.6703   -4.8395    2.1373 C   0  0  0  0  0  0  0  0  0  0  0  0
  2  3  1  0
  7  8  1  0
  4  9  1  0
  9 10  1  0
 10 11  1  0
 11 12  1  0
 12 13  1  0
 12 14  1  0
 13 15  2  0
 13 16  1  0
  8 17  1  0
  3 18  1  0
 17 18  1  0
  1  2  2  0
  2  7  1  0
  6  7  2  0
  5  6  1  0
  4  5  2  0
  1  4  1  0
M  END

$$$$
No_3726-/export/home/yangzhenyu/potential_scad_32_flow//YTHDC2/2024-12-06-03-22-00/
     RDKit          3D

 18 18  0  0  0  0  0  0  0  0999 V2000
    1.1787   -8.0297    3.5154 C   0  0  0  0  0  0  0  0  0  0  0  0
    1.0491   -6.8434    2.9820 C   0  0  0  0  0  0  0  0  0  0  0  0
    1.9985   -8.9840    2.8958 C   0  0  0  0  0  0  0  0  0  0  0  0
    1.9135  -10.3404    3.6266 C   0  0  0  0  0  0  0  0  0  0  0  0
    1.3291  -11.3908    3.0222 C   0  0  0  0  0  0  0  0  0  0  0  0
    1.0344  -11.3281    1.7959 C   0  0  0  0  0  0  0  0  0  0  0  0
    1.7340   -5.8103    3.4001 O   0  0  0  0  0  0  0  0  0  0  0  0
    0.4743  -12.5683    1.2625 C   0  0  0  0  0  0  0  0  0  0  0  0
    0.2565  -13.6841    2.0411 C   0  0  0  0  0  0  0  0  0  0  0  0
    0.6577  -13.5944    3.4101 C   0  0  0  0  0  0  0  0  0  0  0  0
    1.2073  -12.4443    3.9148 C   0  0  0  0  0  0  0  0  0  0  0  0
    0.3663   -6.5647    1.8966 O   0  0  0  0  0  0  0  0  0  0  0  0
   -0.1210  -14.8988    1.5134 N   0  0  0  0  0  0  0  0  0  0  0  0
    0.5400  -15.9608    1.4373 C   0  0  0  0  0  0  0  0  0  0  0  0
    0.9852  -16.6188    2.1620 C   0  0  0  0  0  0  0  0  0  0  0  0
    1.8592  -17.7819    2.0140 C   0  0  0  0  0  0  0  0  0  0  0  0
    1.9935  -18.0894    0.6537 C   0  0  0  0  0  0  0  0  0  0  0  0
    1.3817  -17.4857   -0.2495 C   0  0  0  0  0  0  0  0  0  0  0  0
  1  2  1  0
  1  3  1  0
  3  4  1  0
  4  5  1  0
  2  7  1  0
  2 12  2  0
  9 13  1  0
 13 14  1  0
 14 15  2  3
 15 16  1  0
 16 17  2  3
 17 18  1  0
  5  6  2  0
  6  8  1  0
  8  9  2  0
  9 10  1  0
 10 11  2  0
  5 11  1  0
M  END

$$$$
No_3727-/export/home/yangzhenyu/potential_scad_32_flow//YTHDC2/2024-12-06-03-22-00/
     RDKit          3D

 17 17  0  0  0  0  0  0  0  0999 V2000
    1.1787   -8.0297    3.5154 C   0  0  0  0  0  0  0  0  0  0  0  0
    1.1048   -9.2215    3.2892 C   0  0  0  0  0  0  0  0  0  0  0  0
    1.2339   -9.7611    2.0189 C   0  0  0  0  0  0  0  0  0  0  0  0
    1.3583   -9.0036    0.9764 C   0  0  0  0  0  0  0  0  0  0  0  0
    1.5996   -7.6362    1.1311 C   0  0  0  0  0  0  0  0  0  0  0  0
    1.4758   -7.0006    2.1892 C   0  0  0  0  0  0  0  0  0  0  0  0
    1.2040  -11.2406    1.9066 C   0  0  0  0  0  0  0  0  0  0  0  0
    1.2335  -11.6809    0.6522 O   0  0  0  0  0  0  0  0  0  0  0  0
    1.1284  -11.9845    2.9327 O   0  0  0  0  0  0  0  0  0  0  0  0
    1.4157   -5.4291    2.5342 Cl  0  0  0  0  0  0  0  0  0  0  0  0
    1.5814   -9.4610   -0.3580 C   0  0  0  0  0  0  0  0  0  0  0  0
    2.7359   -9.6079   -0.8235 O   0  0  0  0  0  0  0  0  0  0  0  0
    0.5565   -9.4508   -1.1172 O   0  0  0  0  0  0  0  0  0  0  0  0
    0.9721  -13.3666    2.8760 C   0  0  0  0  0  0  0  0  0  0  0  0
    2.2990  -14.1001    2.7754 C   0  0  0  0  0  0  0  0  0  0  0  0
    2.0928  -15.5591    2.5700 O   0  0  0  0  0  0  0  0  0  0  0  0
    0.9866  -15.9973    2.9680 C   0  0  0  0  0  0  0  0  0  0  0  0
  3  7  1  0
  7  8  2  0
  7  9  1  0
  6 10  1  0
  4 11  1  0
 11 12  2  0
 11 13  1  0
  9 14  1  0
 14 15  1  0
 15 16  1  0
 16 17  1  0
  1  2  2  0
  2  3  1  0
  3  4  2  0
  4  5  1  0
  5  6  2  0
  1  6  1  0
M  END

$$$$
No_3728-/export/home/yangzhenyu/potential_scad_32_flow//YTHDC2/2024-12-06-03-22-00/
     RDKit          3D

 19 20  0  0  1  0  0  0  0  0999 V2000
    1.1787   -8.0297    3.5154 C   0  0  0  0  0  0  0  0  0  0  0  0
    1.1048   -9.2215    3.2892 C   0  0  0  0  0  0  0  0  0  0  0  0
    1.3627  -10.1721    4.3044 C   0  0  0  0  0  0  0  0  0  0  0  0
    1.0682  -11.5187    4.0618 C   0  0  0  0  0  0  0  0  0  0  0  0
    0.6332  -11.9655    2.9682 C   0  0  0  0  0  0  0  0  0  0  0  0
    0.4776  -11.1308    1.9203 C   0  0  0  0  0  0  0  0  0  0  0  0
    0.7470   -9.8274    2.0368 C   0  0  0  0  0  0  0  0  0  0  0  0
    0.5535   -7.1314    2.6861 C   0  0  0  0  0  0  0  0  0  0  0  0
    0.2950   -7.6000    1.3275 C   0  0  0  0  0  0  0  0  0  0  0  0
    0.2693   -8.8631    1.0973 C   0  0  1  0  0  0  0  0  0  0  0  0
   -0.0513   -6.7125    0.4242 O   0  0  0  0  0  0  0  0  0  0  0  0
    0.4918  -13.3974    2.7285 C   0  0  2  0  0  0  0  0  0  0  0  0
    1.3073  -14.3404    3.2390 O   0  0  0  0  0  0  0  0  0  0  0  0
    0.1355  -13.8411    1.4472 C   0  0  0  0  0  0  0  0  0  0  0  0
   -0.1920  -15.2066    1.2936 O   0  0  0  0  0  0  0  0  0  0  0  0
    0.0376   -9.2898   -0.1877 C   0  0  0  0  0  0  0  0  0  0  0  0
    0.8347   -9.1380   -1.1881 C   0  0  0  0  0  0  0  0  0  0  0  0
    2.1574   -9.3031   -0.8960 O   0  0  0  0  0  0  0  0  0  0  0  0
    0.6384   -8.7677   -2.2894 O   0  0  0  0  0  0  0  0  0  0  0  0
  1  2  1  0
  8  9  1  0
  7 10  1  0
  9 10  1  0
  9 11  2  0
  5 12  1  0
 12 13  1  6
 12 14  1  0
 14 15  2  0
 10 16  1  6
 16 17  1  0
 17 18  1  0
 17 19  2  0
  1  8  1  0
  2  3  2  0
  3  4  1  0
  4  5  2  0
  5  6  1  0
  6  7  2  0
  2  7  1  0
M  END

$$$$
No_3729-/export/home/yangzhenyu/potential_scad_32_flow//YTHDC2/2024-12-06-03-22-00/
     RDKit          3D

 18 19  0  0  1  0  0  0  0  0999 V2000
    1.1787   -8.0297    3.5154 C   0  0  0  0  0  0  0  0  0  0  0  0
    1.1048   -9.2215    3.2892 C   0  0  0  0  0  0  0  0  0  0  0  0
    1.2339   -9.7611    2.0189 C   0  0  0  0  0  0  0  0  0  0  0  0
    1.3583   -9.0036    0.9764 C   0  0  0  0  0  0  0  0  0  0  0  0
    1.5996   -7.6362    1.1311 C   0  0  0  0  0  0  0  0  0  0  0  0
    1.4830   -7.0928    2.3626 C   0  0  0  0  0  0  0  0  0  0  0  0
    1.4898   -5.7274    2.6199 C   0  0  1  0  0  0  0  0  0  0  0  0
    1.1681  -11.2222    1.8390 C   0  0  0  0  0  0  0  0  0  0  0  0
    0.5014  -11.9760    2.2068 C   0  0  0  0  0  0  0  0  0  0  0  0
    0.4167  -13.3685    2.0527 C   0  0  1  0  0  0  0  0  0  0  0  0
    1.5984  -14.1574    2.4634 C   0  0  0  0  0  0  0  0  0  0  0  0
    1.8090  -15.4261    2.0927 C   0  0  2  0  0  0  0  0  0  0  0  0
    3.0163  -15.8353    1.7346 C   0  0  0  0  0  0  0  0  0  0  0  0
    1.2513   -4.8471    1.6241 F   0  0  0  0  0  0  0  0  0  0  0  0
    0.7897   -5.3488    3.6782 Br  0  0  0  0  0  0  0  0  0  0  0  0
    0.7915  -16.2895    1.9591 C   0  0  0  0  0  0  0  0  0  0  0  0
   -0.3558  -16.0415    2.6101 C   0  0  0  0  0  0  0  0  0  0  0  0
   -0.8104  -14.5160    2.2457 C   0  0  0  0  0  0  0  0  0  0  0  0
  6  7  1  0
  3  8  1  0
  8  9  2  3
  9 10  1  0
 10 11  1  1
 11 12  1  0
 12 13  1  6
  7 14  1  6
  7 15  1  0
 12 16  1  0
 16 17  1  0
 10 18  1  0
 17 18  1  0
  1  2  2  0
  2  3  1  0
  3  4  2  0
  4  5  1  0
  5  6  2  0
  1  6  1  0
M  END

$$$$
No_3730-/export/home/yangzhenyu/potential_scad_32_flow//YTHDC2/2024-12-06-03-22-00/
     RDKit          3D

 17 18  0  0  0  0  0  0  0  0999 V2000
    1.1787   -8.0297    3.5154 C   0  0  0  0  0  0  0  0  0  0  0  0
    1.1048   -9.2215    3.2892 C   0  0  0  0  0  0  0  0  0  0  0  0
    1.2339   -9.7611    2.0189 C   0  0  0  0  0  0  0  0  0  0  0  0
    1.3583   -9.0036    0.9764 C   0  0  0  0  0  0  0  0  0  0  0  0
    1.5996   -7.6362    1.1311 C   0  0  0  0  0  0  0  0  0  0  0  0
    1.4830   -7.0928    2.3626 C   0  0  0  0  0  0  0  0  0  0  0  0
    1.1171  -11.3311    1.8661 C   0  0  0  0  0  0  0  0  0  0  0  0
    1.9975  -12.1095    2.2478 C   0  0  0  0  0  0  0  0  0  0  0  0
    1.7697  -13.4418    1.9079 C   0  0  0  0  0  0  0  0  0  0  0  0
    0.8824  -13.8564    1.1154 C   0  0  0  0  0  0  0  0  0  0  0  0
   -0.0664  -12.9335    0.5986 C   0  0  0  0  0  0  0  0  0  0  0  0
    0.1158  -11.5559    0.9634 C   0  0  0  0  0  0  0  0  0  0  0  0
    1.5680   -5.4347    2.6963 C   0  0  0  0  0  0  0  0  0  0  0  0
   -0.7969  -10.6598    0.4612 C   0  0  0  0  0  0  0  0  0  0  0  0
   -1.9347  -10.4044    1.1359 N   0  0  0  0  0  0  0  0  0  0  0  0
   -2.7933   -9.4231    0.8993 C   0  0  0  0  0  0  0  0  0  0  0  0
   -2.4893   -8.9022   -0.3346 N   0  0  0  0  0  0  0  0  0  0  0  0
  3  7  1  0
  6 13  1  0
 12 14  1  0
 14 15  1  0
 15 16  2  3
 16 17  1  0
  1  2  2  0
  2  3  1  0
  3  4  2  0
  4  5  1  0
  5  6  2  0
  1  6  1  0
  7  8  2  0
  8  9  1  0
  9 10  2  0
 10 11  1  0
 11 12  2  0
  7 12  1  0
M  END

$$$$
No_3731-/export/home/yangzhenyu/potential_scad_32_flow//YTHDC2/2024-12-06-03-22-00/
     RDKit          3D

 19 21  0  0  0  0  0  0  0  0999 V2000
    1.1787   -8.0297    3.5154 C   0  0  0  0  0  0  0  0  0  0  0  0
    1.1048   -9.2215    3.2892 C   0  0  0  0  0  0  0  0  0  0  0  0
    1.2339   -9.7611    2.0189 C   0  0  0  0  0  0  0  0  0  0  0  0
    1.3583   -9.0036    0.9764 C   0  0  0  0  0  0  0  0  0  0  0  0
    1.5996   -7.6362    1.1311 C   0  0  0  0  0  0  0  0  0  0  0  0
    1.4830   -7.0928    2.3626 C   0  0  0  0  0  0  0  0  0  0  0  0
    1.4898   -5.7274    2.6199 C   0  0  0  0  0  0  0  0  0  0  0  0
    1.1882  -11.3736    1.8424 C   0  0  0  0  0  0  0  0  0  0  0  0
    1.7911  -12.1283    2.5447 C   0  0  0  0  0  0  0  0  0  0  0  0
    1.6235  -13.4929    2.1108 C   0  0  0  0  0  0  0  0  0  0  0  0
    0.9130  -13.8662    1.0879 C   0  0  0  0  0  0  0  0  0  0  0  0
    0.2980  -12.8588    0.2798 C   0  0  0  0  0  0  0  0  0  0  0  0
    0.4407  -11.5560    0.6364 C   0  0  0  0  0  0  0  0  0  0  0  0
    1.2457   -4.8685    1.6168 C   0  0  0  0  0  0  0  0  0  0  0  0
    1.1590   -3.3978    1.8552 C   0  0  0  0  0  0  0  0  0  0  0  0
    2.2706  -14.5041    2.9503 Cl  0  0  0  0  0  0  0  0  0  0  0  0
    2.1618   -2.8336    2.6452 C   0  0  0  0  0  0  0  0  0  0  0  0
    2.4053   -3.6790    3.8139 C   0  0  0  0  0  0  0  0  0  0  0  0
    2.2191   -5.0421    3.7412 N   0  0  0  0  0  0  0  0  0  0  0  0
  6  7  1  0
  3  8  1  0
 10 16  1  0
  1  2  2  0
  2  3  1  0
  3  4  2  0
  4  5  1  0
  5  6  2  0
  1  6  1  0
  7 14  2  0
 14 15  1  0
 15 17  2  0
 17 18  1  0
 18 19  2  0
  7 19  1  0
  8  9  2  0
  9 10  1  0
 10 11  2  0
 11 12  1  0
 12 13  2  0
  8 13  1  0
M  END

$$$$
No_3732-/export/home/yangzhenyu/potential_scad_32_flow//YTHDC2/2024-12-06-03-22-00/
     RDKit          3D

 18 18  0  0  1  0  0  0  0  0999 V2000
    1.1787   -8.0297    3.5154 C   0  0  0  0  0  0  0  0  0  0  0  0
    1.0491   -6.8434    2.9820 C   0  0  0  0  0  0  0  0  0  0  0  0
    0.0950   -8.8404    3.2292 C   0  0  0  0  0  0  0  0  0  0  0  0
   -0.9173   -8.4596    2.5152 C   0  0  0  0  0  0  0  0  0  0  0  0
   -1.0331   -7.2162    2.0653 C   0  0  0  0  0  0  0  0  0  0  0  0
   -0.0105   -6.3168    2.3081 C   0  0  0  0  0  0  0  0  0  0  0  0
    0.0485   -4.9783    1.8782 C   0  0  0  0  0  0  0  0  0  0  0  0
    0.9625   -4.1072    2.3252 O   0  0  0  0  0  0  0  0  0  0  0  0
   -0.5912   -4.4986    0.8553 N   0  0  0  0  0  0  0  0  0  0  0  0
    0.1913  -10.2860    3.6643 C   0  0  2  0  0  0  0  0  0  0  0  0
    1.2883  -10.8957    4.0458 C   0  0  0  0  0  0  0  0  0  0  0  0
    2.3732  -10.5682    4.0901 C   0  0  0  0  0  0  0  0  0  0  0  0
   -1.0522  -11.0606    3.5746 C   0  0  0  0  0  0  0  0  0  0  0  0
   -0.6177   -3.1663    0.4311 C   0  0  0  0  0  0  0  0  0  0  0  0
   -0.0701   -2.9284   -0.7583 C   0  0  0  0  0  0  0  0  0  0  0  0
    0.1952   -1.4988   -1.1607 C   0  0  0  0  0  0  0  0  0  0  0  0
   -0.3438   -0.5317   -0.2931 C   0  0  0  0  0  0  0  0  0  0  0  0
   -0.7383   -0.8596    0.9843 C   0  0  0  0  0  0  0  0  0  0  0  0
  6  7  1  0
  7  8  2  0
  7  9  1  0
  3 10  1  0
 10 11  1  0
 11 12  2  0
 10 13  1  6
  9 14  1  0
 14 15  1  0
 15 16  2  3
 16 17  1  0
 17 18  2  0
  1  2  2  0
  2  6  1  0
  5  6  2  0
  4  5  1  0
  3  4  2  0
  1  3  1  0
M  END

$$$$
No_3733-/export/home/yangzhenyu/potential_scad_32_flow//YTHDC2/2024-12-06-03-22-00/
     RDKit          3D

 17 18  0  0  0  0  0  0  0  0999 V2000
    1.1787   -8.0297    3.5154 C   0  0  0  0  0  0  0  0  0  0  0  0
    1.0491   -6.8434    2.9820 C   0  0  0  0  0  0  0  0  0  0  0  0
    0.9905   -9.0774    2.6527 C   0  0  0  0  0  0  0  0  0  0  0  0
    0.7897   -8.9519    1.3691 C   0  0  0  0  0  0  0  0  0  0  0  0
    0.7018   -7.7198    0.7892 C   0  0  0  0  0  0  0  0  0  0  0  0
    0.8918   -6.5957    1.6117 C   0  0  0  0  0  0  0  0  0  0  0  0
    1.0711  -10.4814    3.2282 C   0  0  0  0  0  0  0  0  0  0  0  0
   -0.1055  -11.1328    3.5223 C   0  0  0  0  0  0  0  0  0  0  0  0
   -0.1824  -12.4513    3.3816 C   0  0  0  0  0  0  0  0  0  0  0  0
    0.9472  -13.2655    3.1726 C   0  0  0  0  0  0  0  0  0  0  0  0
    2.1715  -12.6012    2.9116 C   0  0  0  0  0  0  0  0  0  0  0  0
    2.2064  -11.2741    2.8264 C   0  0  0  0  0  0  0  0  0  0  0  0
    0.8996  -14.6381    3.2447 C   0  0  0  0  0  0  0  0  0  0  0  0
   -0.1167  -15.3378    3.6297 O   0  0  0  0  0  0  0  0  0  0  0  0
    1.8450  -15.3842    2.5811 N   0  0  0  0  0  0  0  0  0  0  0  0
    1.9883  -16.7452    2.5839 C   0  0  0  0  0  0  0  0  0  0  0  0
    0.8437   -5.2746    1.1128 S   0  0  0  0  0  0  0  0  0  0  0  0
  3  7  1  0
 10 13  1  0
 13 14  2  0
 13 15  1  0
 15 16  1  0
  6 17  1  0
  1  2  2  0
  2  6  1  0
  5  6  2  0
  4  5  1  0
  3  4  2  0
  1  3  1  0
  7  8  2  0
  8  9  1  0
  9 10  2  0
 10 11  1  0
 11 12  2  0
  7 12  1  0
M  END

$$$$
No_3734-/export/home/yangzhenyu/potential_scad_32_flow//YTHDC2/2024-12-06-03-22-00/
     RDKit          3D

 19 20  0  0  1  0  0  0  0  0999 V2000
    1.1787   -8.0297    3.5154 C   0  0  0  0  0  0  0  0  0  0  0  0
    1.1048   -9.2215    3.2892 C   0  0  0  0  0  0  0  0  0  0  0  0
    1.2339   -9.7611    2.0189 C   0  0  0  0  0  0  0  0  0  0  0  0
    1.3583   -9.0036    0.9764 C   0  0  0  0  0  0  0  0  0  0  0  0
    1.5996   -7.6362    1.1311 C   0  0  0  0  0  0  0  0  0  0  0  0
    1.4758   -7.0006    2.1892 C   0  0  0  0  0  0  0  0  0  0  0  0
    1.3121   -5.6735    2.4579 C   0  0  0  0  0  0  0  0  0  0  0  0
    1.2301  -11.3660    1.8679 C   0  0  0  0  0  0  0  0  0  0  0  0
    1.7144  -12.0811    2.8017 N   0  0  0  0  0  0  0  0  0  0  0  0
    1.5359  -13.4186    2.7311 C   0  0  0  0  0  0  0  0  0  0  0  0
    1.1088  -13.9557    1.6409 C   0  0  0  0  0  0  0  0  0  0  0  0
    0.9134  -13.1607    0.8076 C   0  0  0  0  0  0  0  0  0  0  0  0
    0.8724  -11.8288    0.7757 C   0  0  0  0  0  0  0  0  0  0  0  0
    1.6301   -4.9584    3.4932 C   0  0  0  0  0  0  0  0  0  0  0  0
    1.3149   -3.5655    3.4487 P   0  0  2  0  0  0  0  0  0  0  0  0
    0.2320   -3.3523    2.4602 O   0  0  0  0  0  0  0  0  0  0  0  0
    2.4974   -2.7569    2.9528 O   0  0  0  0  0  0  0  0  0  0  0  0
    1.1944  -15.3952    1.6497 C   0  0  0  0  0  0  0  0  0  0  0  0
    0.7447  -16.1469    2.2815 O   0  0  0  0  0  0  0  0  0  0  0  0
  6  7  1  0
  3  8  1  0
  7 14  1  0
 14 15  1  0
 15 16  1  6
 15 17  2  0
 11 18  1  0
 18 19  2  0
  1  2  2  0
  2  3  1  0
  3  4  2  0
  4  5  1  0
  5  6  2  0
  1  6  1  0
  8  9  2  0
  9 10  1  0
 10 11  2  0
 11 12  1  0
 12 13  2  0
  8 13  1  0
M  END

$$$$
No_3735-/export/home/yangzhenyu/potential_scad_32_flow//YTHDC2/2024-12-06-03-22-00/
     RDKit          3D

 16 17  0  0  0  0  0  0  0  0999 V2000
    1.1787   -8.0297    3.5154 C   0  0  0  0  0  0  0  0  0  0  0  0
    1.1048   -9.2215    3.2892 C   0  0  0  0  0  0  0  0  0  0  0  0
    1.2339   -9.7611    2.0189 C   0  0  0  0  0  0  0  0  0  0  0  0
    1.1954  -11.2312    1.8661 C   0  0  0  0  0  0  0  0  0  0  0  0
    1.5546  -12.1691    2.7931 C   0  0  0  0  0  0  0  0  0  0  0  0
    0.5849   -7.0929    2.5729 C   0  0  0  0  0  0  0  0  0  0  0  0
    0.5567   -7.6699    1.1955 C   0  0  0  0  0  0  0  0  0  0  0  0
    0.7903   -8.9699    0.9209 C   0  0  0  0  0  0  0  0  0  0  0  0
    1.5479  -13.4950    2.3569 C   0  0  0  0  0  0  0  0  0  0  0  0
    1.2456  -13.9001    1.1648 C   0  0  0  0  0  0  0  0  0  0  0  0
    1.0233  -13.0589    0.1983 C   0  0  0  0  0  0  0  0  0  0  0  0
    0.9548  -11.6626    0.4956 C   0  0  0  0  0  0  0  0  0  0  0  0
    0.6175   -5.4409    2.6606 C   0  0  0  0  0  0  0  0  0  0  0  0
    1.0550   -4.7725    1.7296 C   0  0  0  0  0  0  0  0  0  0  0  0
    0.1689   -4.3743    0.7130 C   0  0  0  0  0  0  0  0  0  0  0  0
   -0.9025   -3.5271    1.2192 C   0  0  0  0  0  0  0  0  0  0  0  0
  3  4  1  0
  6 13  1  0
 13 14  1  0
 14 15  1  0
 15 16  1  0
  1  2  2  0
  2  3  1  0
  3  8  2  0
  7  8  1  0
  6  7  2  0
  1  6  1  0
  4  5  2  0
  5  9  1  0
  9 10  2  0
 10 11  1  0
 11 12  2  0
  4 12  1  0
M  END

$$$$
No_3736-/export/home/yangzhenyu/potential_scad_32_flow//YTHDC2/2024-12-06-03-22-00/
     RDKit          3D

 15 16  0  0  0  0  0  0  0  0999 V2000
    1.1787   -8.0297    3.5154 C   0  0  0  0  0  0  0  0  0  0  0  0
    1.0491   -6.8434    2.9820 C   0  0  0  0  0  0  0  0  0  0  0  0
    0.9905   -9.0774    2.6527 C   0  0  0  0  0  0  0  0  0  0  0  0
    0.7897   -8.9519    1.3691 C   0  0  0  0  0  0  0  0  0  0  0  0
    0.7018   -7.7198    0.7892 C   0  0  0  0  0  0  0  0  0  0  0  0
    0.8918   -6.5957    1.6117 C   0  0  0  0  0  0  0  0  0  0  0  0
    1.0998  -10.4710    3.2437 C   0  0  0  0  0  0  0  0  0  0  0  0
    1.3102  -11.5554    2.5214 N   0  0  0  0  0  0  0  0  0  0  0  0
    0.9818  -12.5824    2.6640 C   0  0  0  0  0  0  0  0  0  0  0  0
    1.6190  -13.8644    2.8135 C   0  0  0  0  0  0  0  0  0  0  0  0
    1.0115  -15.1131    2.9191 C   0  0  0  0  0  0  0  0  0  0  0  0
   -0.3219  -15.1087    2.9112 C   0  0  0  0  0  0  0  0  0  0  0  0
   -1.0954  -14.1142    2.7601 C   0  0  0  0  0  0  0  0  0  0  0  0
   -0.5011  -12.8187    2.6123 C   0  0  0  0  0  0  0  0  0  0  0  0
    1.2715  -10.6016    4.5880 O   0  0  0  0  0  0  0  0  0  0  0  0
  3  7  1  0
  7  8  1  0
  8  9  1  0
  7 15  2  0
  1  2  2  0
  2  6  1  0
  5  6  2  0
  4  5  1  0
  3  4  2  0
  1  3  1  0
  9 10  2  0
 10 11  1  0
 11 12  2  0
 12 13  1  0
 13 14  2  0
  9 14  1  0
M  END

$$$$
No_3737-/export/home/yangzhenyu/potential_scad_32_flow//YTHDC2/2024-12-06-03-22-00/
     RDKit          3D

 18 19  0  0  1  0  0  0  0  0999 V2000
    1.1787   -8.0297    3.5154 C   0  0  0  0  0  0  0  0  0  0  0  0
    1.1048   -9.2215    3.2892 C   0  0  0  0  0  0  0  0  0  0  0  0
    1.2339   -9.7611    2.0189 C   0  0  0  0  0  0  0  0  0  0  0  0
    1.4306   -8.9466    1.1170 C   0  0  0  0  0  0  0  0  0  0  0  0
    1.6532   -7.5949    1.1786 C   0  0  0  0  0  0  0  0  0  0  0  0
    1.4973   -7.0739    2.4258 C   0  0  0  0  0  0  0  0  0  0  0  0
    1.5178   -5.6803    2.7303 C   0  0  0  0  0  0  0  0  0  0  0  0
    1.2507  -11.3384    1.8133 C   0  0  2  0  0  0  0  0  0  0  0  0
    1.2473  -11.6326    0.5245 O   0  0  0  0  0  0  0  0  0  0  0  0
    1.1113  -12.0471    2.8029 C   0  0  0  0  0  0  0  0  0  0  0  0
    1.3006  -13.2787    2.6261 C   0  0  0  0  0  0  0  0  0  0  0  0
    1.6901  -13.9008    1.4628 C   0  0  1  0  0  0  0  0  0  0  0  0
    2.3214  -13.1432    0.7235 C   0  0  0  0  0  0  0  0  0  0  0  0
    2.1248  -15.2018    1.4363 C   0  0  0  0  0  0  0  0  0  0  0  0
    1.4895  -16.2376    1.9269 O   0  0  0  0  0  0  0  0  0  0  0  0
    1.6731   -5.1586    3.9841 O   0  0  0  0  0  0  0  0  0  0  0  0
    1.3411   -4.8025    1.7439 O   0  0  0  0  0  0  0  0  0  0  0  0
    3.0637  -15.6266    0.8012 O   0  0  0  0  0  0  0  0  0  0  0  0
  6  7  1  0
  8  3  1  6
  8  9  1  0
  8 10  1  0
 10 11  2  0
 11 12  1  0
  9 13  1  0
 12 13  1  0
 12 14  1  1
 14 15  2  0
  7 16  1  0
  7 17  2  0
 14 18  1  0
  1  2  2  0
  2  3  1  0
  3  4  2  0
  4  5  1  0
  5  6  2  0
  1  6  1  0
M  END

$$$$
No_3738-/export/home/yangzhenyu/potential_scad_32_flow//YTHDC2/2024-12-06-03-22-00/
     RDKit          3D

 19 20  0  0  1  0  0  0  0  0999 V2000
    1.1787   -8.0297    3.5154 C   0  0  0  0  0  0  0  0  0  0  0  0
    1.0491   -6.8434    2.9820 C   0  0  0  0  0  0  0  0  0  0  0  0
    0.9905   -9.0774    2.6527 C   0  0  0  0  0  0  0  0  0  0  0  0
    0.7897   -8.9519    1.3691 C   0  0  0  0  0  0  0  0  0  0  0  0
    0.6550  -10.0985    0.4848 C   0  0  0  0  0  0  0  0  0  0  0  0
    0.7849   -6.5836    1.6043 C   0  0  0  0  0  0  0  0  0  0  0  0
    0.6652   -7.6671    0.8008 C   0  0  0  0  0  0  0  0  0  0  0  0
    1.2441  -11.1828    0.5777 O   0  0  0  0  0  0  0  0  0  0  0  0
   -0.2030  -10.0131   -0.5296 O   0  0  0  0  0  0  0  0  0  0  0  0
    1.2204  -10.4450    3.2012 C   0  0  2  0  0  0  0  0  0  0  0  0
    0.2195  -11.2540    3.6484 I   0  0  0  0  0  0  0  0  0  0  0  0
    0.6210   -5.1197    1.0218 C   0  0  0  0  0  0  0  0  0  0  0  0
   -0.0231   -4.3019    1.7919 N   0  0  0  0  0  0  0  0  0  0  0  0
    0.7444   -3.2734    2.3307 C   0  0  0  0  0  0  0  0  0  0  0  0
   -1.2008   -3.6395    1.0763 C   0  0  0  0  0  0  0  0  0  0  0  0
    2.4330  -10.3388    4.3826 C   0  0  0  0  0  0  0  0  0  0  0  0
   -1.5457   -2.5457    1.7525 C   0  0  0  0  0  0  0  0  0  0  0  0
   -0.1457   -2.2197    2.4975 C   0  0  0  0  0  0  0  0  0  0  0  0
   -2.0480   -4.3066    0.4697 O   0  0  0  0  0  0  0  0  0  0  0  0
  4  5  1  0
  5  8  1  0
  5  9  2  0
  3 10  1  0
 10 11  1  0
  6 12  1  0
 12 13  1  0
 13 14  1  0
 13 15  1  0
 10 16  1  1
 15 17  1  0
 14 18  1  0
 17 18  1  0
 15 19  2  0
  1  2  2  0
  2  6  1  0
  6  7  2  0
  4  7  1  0
  3  4  2  0
  1  3  1  0
M  END

$$$$
No_3739-/export/home/yangzhenyu/potential_scad_32_flow//YTHDC2/2024-12-06-03-22-00/
     RDKit          3D

 18 18  0  0  0  0  0  0  0  0999 V2000
    1.1787   -8.0297    3.5154 C   0  0  0  0  0  0  0  0  0  0  0  0
    1.1048   -9.2215    3.2892 C   0  0  0  0  0  0  0  0  0  0  0  0
    1.0239   -9.7790    2.0239 C   0  0  0  0  0  0  0  0  0  0  0  0
    1.1393   -9.0211    0.9686 C   0  0  0  0  0  0  0  0  0  0  0  0
    1.3160   -9.6264   -0.3268 C   0  0  0  0  0  0  0  0  0  0  0  0
    1.3620   -7.1064    2.3319 C   0  0  0  0  0  0  0  0  0  0  0  0
    1.2578   -7.6370    1.0089 C   0  0  0  0  0  0  0  0  0  0  0  0
    0.6573   -9.4329   -1.0904 O   0  0  0  0  0  0  0  0  0  0  0  0
    2.2506  -10.5047   -0.3429 O   0  0  0  0  0  0  0  0  0  0  0  0
    1.0291  -10.3284    4.5713 Cl  0  0  0  0  0  0  0  0  0  0  0  0
    1.3842   -5.3624    2.6478 Cl  0  0  0  0  0  0  0  0  0  0  0  0
    0.9697  -11.4158    1.9052 O   0  0  0  0  0  0  0  0  0  0  0  0
   -0.2090  -11.9254    1.6106 C   0  0  0  0  0  0  0  0  0  0  0  0
   -0.1460  -13.2534    1.2259 C   0  0  0  0  0  0  0  0  0  0  0  0
    0.9531  -13.9170    1.6228 C   0  0  0  0  0  0  0  0  0  0  0  0
    0.8151  -15.2663    1.8287 C   0  0  0  0  0  0  0  0  0  0  0  0
   -0.2701  -15.9777    1.5315 C   0  0  0  0  0  0  0  0  0  0  0  0
   -1.2916  -15.3610    1.0330 C   0  0  0  0  0  0  0  0  0  0  0  0
  4  5  1  0
  5  8  1  0
  5  9  2  0
  2 10  1  0
  6 11  1  0
  3 12  1  0
 12 13  1  0
 13 14  1  0
 14 15  1  0
 15 16  2  3
 16 17  1  0
 17 18  2  0
  1  2  2  0
  2  3  1  0
  3  4  2  0
  4  7  1  0
  6  7  2  0
  1  6  1  0
M  END

$$$$
No_3740-/export/home/yangzhenyu/potential_scad_32_flow//YTHDC2/2024-12-06-03-22-00/
     RDKit          3D

 17 17  0  0  0  0  0  0  0  0999 V2000
    1.1787   -8.0297    3.5154 C   0  0  0  0  0  0  0  0  0  0  0  0
    1.1048   -9.2215    3.2892 C   0  0  0  0  0  0  0  0  0  0  0  0
    1.2339   -9.7611    2.0189 C   0  0  0  0  0  0  0  0  0  0  0  0
    1.3583   -9.0036    0.9764 C   0  0  0  0  0  0  0  0  0  0  0  0
    1.7077   -9.6100   -0.3010 C   0  0  0  0  0  0  0  0  0  0  0  0
    1.3637   -7.1087    2.3226 C   0  0  0  0  0  0  0  0  0  0  0  0
    1.4257   -7.6645    1.0231 C   0  0  0  0  0  0  0  0  0  0  0  0
    1.6722  -10.7840   -0.4044 O   0  0  0  0  0  0  0  0  0  0  0  0
    1.4862   -8.9147   -1.4018 S   0  0  0  0  0  0  0  0  0  0  0  0
    1.3276   -5.6202    2.4843 C   0  0  0  0  0  0  0  0  0  0  0  0
    0.9685   -4.8842    1.3917 O   0  0  0  0  0  0  0  0  0  0  0  0
    1.7158   -5.0822    3.6025 N   0  0  0  0  0  0  0  0  0  0  0  0
    1.0695  -10.1614    4.3872 C   0  0  0  0  0  0  0  0  0  0  0  0
   -0.1100  -11.1210    4.2087 C   0  0  0  0  0  0  0  0  0  0  0  0
   -1.3542  -10.6171    4.1233 C   0  0  0  0  0  0  0  0  0  0  0  0
   -1.7431   -9.3695    4.7258 C   0  0  0  0  0  0  0  0  0  0  0  0
   -2.8986   -8.7990    4.6200 C   0  0  0  0  0  0  0  0  0  0  0  0
  4  5  1  0
  5  8  2  0
  5  9  1  0
  6 10  1  0
 10 11  2  0
 10 12  1  0
  2 13  1  0
 13 14  1  0
 14 15  1  0
 15 16  2  3
 16 17  1  0
  1  2  2  0
  2  3  1  0
  3  4  2  0
  4  7  1  0
  6  7  2  0
  1  6  1  0
M  END

$$$$
No_3741-/export/home/yangzhenyu/potential_scad_32_flow//YTHDC2/2024-12-06-03-22-00/
     RDKit          3D

 18 19  0  0  0  0  0  0  0  0999 V2000
    1.1787   -8.0297    3.5154 C   0  0  0  0  0  0  0  0  0  0  0  0
    1.1048   -9.2215    3.2892 C   0  0  0  0  0  0  0  0  0  0  0  0
    1.3627  -10.1721    4.3044 C   0  0  0  0  0  0  0  0  0  0  0  0
    2.3720  -10.8948    4.2468 C   0  0  0  0  0  0  0  0  0  0  0  0
    2.9262  -11.1926    3.1170 C   0  0  0  0  0  0  0  0  0  0  0  0
    2.5807  -10.4593    1.9550 C   0  0  0  0  0  0  0  0  0  0  0  0
    1.7065   -9.4353    2.0233 C   0  0  0  0  0  0  0  0  0  0  0  0
    1.3623   -8.6610    1.0017 C   0  0  0  0  0  0  0  0  0  0  0  0
    0.6938   -7.5136    1.2430 N   0  0  0  0  0  0  0  0  0  0  0  0
    0.6442   -7.0375    2.4346 C   0  0  0  0  0  0  0  0  0  0  0  0
    0.3167   -5.7413    2.6185 C   0  0  0  0  0  0  0  0  0  0  0  0
    1.6236   -9.0505   -0.3857 C   0  0  0  0  0  0  0  0  0  0  0  0
    1.3732   -4.8790    2.9597 C   0  0  0  0  0  0  0  0  0  0  0  0
    0.7952   -9.6046   -1.0110 O   0  0  0  0  0  0  0  0  0  0  0  0
    2.7579   -8.4182   -0.9735 O   0  0  0  0  0  0  0  0  0  0  0  0
    0.9808   -3.4434    2.9347 C   0  0  0  0  0  0  0  0  0  0  0  0
    0.9771   -2.7400    1.8218 C   0  0  0  0  0  0  0  0  0  0  0  0
    0.9286   -1.6503    1.5259 C   0  0  0  0  0  0  0  0  0  0  0  0
 10 11  1  0
  8 12  1  0
 11 13  1  0
 12 14  2  0
 12 15  1  0
 13 16  1  0
 16 17  1  0
 17 18  2  0
  1  2  2  0
  7  8  2  0
  8  9  1  0
  9 10  2  0
  1 10  1  0
  2  3  1  0
  3  4  2  0
  4  5  1  0
  5  6  2  0
  6  7  1  0
  2  7  1  0
M  END

$$$$
No_3742-/export/home/yangzhenyu/potential_scad_32_flow//YTHDC2/2024-12-06-03-22-00/
     RDKit          3D

 17 19  0  0  0  0  0  0  0  0999 V2000
    1.1787   -8.0297    3.5154 N   0  0  0  0  0  0  0  0  0  0  0  0
    1.0818   -9.0751    3.2053 C   0  0  0  0  0  0  0  0  0  0  0  0
    1.5216  -10.1164    3.9747 C   0  0  0  0  0  0  0  0  0  0  0  0
    1.4823  -11.4258    3.6006 C   0  0  0  0  0  0  0  0  0  0  0  0
    0.7594  -11.7488    2.5365 C   0  0  0  0  0  0  0  0  0  0  0  0
    0.1233  -10.8366    1.8408 C   0  0  0  0  0  0  0  0  0  0  0  0
    0.4160   -9.5408    2.0369 C   0  0  0  0  0  0  0  0  0  0  0  0
    0.8716   -6.9542    2.6360 C   0  0  0  0  0  0  0  0  0  0  0  0
    0.4813   -7.1849    1.4227 N   0  0  0  0  0  0  0  0  0  0  0  0
    0.1700   -8.4443    1.1025 C   0  0  0  0  0  0  0  0  0  0  0  0
   -0.3672   -8.6870   -0.0339 C   0  0  0  0  0  0  0  0  0  0  0  0
   -1.6071   -9.1176   -0.2627 C   0  0  0  0  0  0  0  0  0  0  0  0
   -2.1546   -9.3484   -1.6100 C   0  0  0  0  0  0  0  0  0  0  0  0
   -1.2231   -9.2503   -2.7225 C   0  0  0  0  0  0  0  0  0  0  0  0
    0.0081   -8.8004   -2.5228 C   0  0  0  0  0  0  0  0  0  0  0  0
    0.5058   -8.5576   -1.2920 C   0  0  0  0  0  0  0  0  0  0  0  0
    0.5641  -13.2106    2.2447 C   0  0  0  0  0  0  0  0  0  0  0  0
 10 11  1  0
  5 17  1  0
 11 12  2  0
 12 13  1  0
 13 14  2  0
 14 15  1  0
 15 16  2  0
 11 16  1  0
  2  3  1  0
  3  4  2  0
  4  5  1  0
  5  6  2  0
  6  7  1  0
  1  2  2  0
  2  7  1  0
  7 10  2  0
  9 10  1  0
  8  9  2  0
  1  8  1  0
M  END

$$$$
No_3743-/export/home/yangzhenyu/potential_scad_32_flow//YTHDC2/2024-12-06-03-22-00/
     RDKit          3D

 21 23  0  0  0  0  0  0  0  0999 V2000
    1.1787   -8.0297    3.5154 C   0  0  0  0  0  0  0  0  0  0  0  0
    1.0491   -6.8434    2.9820 C   0  0  0  0  0  0  0  0  0  0  0  0
    0.0950   -8.8404    3.2292 C   0  0  0  0  0  0  0  0  0  0  0  0
   -0.9173   -8.4596    2.5152 C   0  0  0  0  0  0  0  0  0  0  0  0
   -1.0331   -7.2162    2.0653 C   0  0  0  0  0  0  0  0  0  0  0  0
   -0.0105   -6.3168    2.3081 C   0  0  0  0  0  0  0  0  0  0  0  0
    0.0485   -4.9783    1.8782 C   0  0  0  0  0  0  0  0  0  0  0  0
    0.9625   -4.1072    2.3252 C   0  0  0  0  0  0  0  0  0  0  0  0
    0.1334  -10.2884    3.6719 C   0  0  0  0  0  0  0  0  0  0  0  0
    1.1795  -10.9472    4.0916 C   0  0  0  0  0  0  0  0  0  0  0  0
    1.0701  -12.3267    4.3460 N   0  0  0  0  0  0  0  0  0  0  0  0
    0.7433  -12.9222    3.2538 C   0  0  0  0  0  0  0  0  0  0  0  0
    0.3583  -12.6138    2.3766 N   0  0  0  0  0  0  0  0  0  0  0  0
   -0.1638  -11.1132    2.4459 C   0  0  0  0  0  0  0  0  0  0  0  0
    1.1362  -14.4319    3.3541 C   0  0  0  0  0  0  0  0  0  0  0  0
    0.3534  -15.4273    3.2047 Cl  0  0  0  0  0  0  0  0  0  0  0  0
   -0.2972   -4.6907    0.4933 C   0  0  0  0  0  0  0  0  0  0  0  0
   -0.3983   -3.4474    0.0948 C   0  0  0  0  0  0  0  0  0  0  0  0
    0.4570   -2.4765    0.7344 C   0  0  0  0  0  0  0  0  0  0  0  0
    1.1136   -2.8146    1.8681 C   0  0  0  0  0  0  0  0  0  0  0  0
   -1.0875   -2.9246   -1.2607 O   0  0  0  0  0  0  0  0  0  0  0  0
  6  7  1  0
  3  9  1  0
 12 15  1  0
 15 16  1  0
 18 21  1  0
  1  2  2  0
  2  6  1  0
  5  6  2  0
  4  5  1  0
  3  4  2  0
  1  3  1  0
  9 10  2  0
 10 11  1  0
 11 12  2  0
 12 13  1  0
 13 14  2  0
  9 14  1  0
  7  8  2  0
  8 20  1  0
 19 20  2  0
 18 19  1  0
 17 18  2  0
  7 17  1  0
M  END

$$$$
No_3744-/export/home/yangzhenyu/potential_scad_32_flow//YTHDC2/2024-12-06-03-22-00/
     RDKit          3D

 18 18  0  0  0  0  0  0  0  0999 V2000
    1.1787   -8.0297    3.5154 C   0  0  0  0  0  0  0  0  0  0  0  0
    1.0491   -6.8434    2.9820 C   0  0  0  0  0  0  0  0  0  0  0  0
    1.9985   -8.9840    2.8958 C   0  0  0  0  0  0  0  0  0  0  0  0
    1.9135  -10.3404    3.6266 C   0  0  0  0  0  0  0  0  0  0  0  0
    1.3291  -11.3908    3.0222 C   0  0  0  0  0  0  0  0  0  0  0  0
    1.2749  -12.5326    3.7562 C   0  0  0  0  0  0  0  0  0  0  0  0
    0.4248   -6.6481    1.7861 C   0  0  0  0  0  0  0  0  0  0  0  0
    0.3130   -5.3457    1.3131 O   0  0  0  0  0  0  0  0  0  0  0  0
    0.1665   -7.5538    1.0002 O   0  0  0  0  0  0  0  0  0  0  0  0
    0.7627  -13.6838    3.1407 C   0  0  0  0  0  0  0  0  0  0  0  0
    0.4379  -13.6859    1.8707 C   0  0  0  0  0  0  0  0  0  0  0  0
    0.5663  -12.6279    1.0920 C   0  0  0  0  0  0  0  0  0  0  0  0
    1.0886  -11.4620    1.5983 C   0  0  0  0  0  0  0  0  0  0  0  0
    1.1424  -10.3962    0.7553 C   0  0  0  0  0  0  0  0  0  0  0  0
    0.1765   -9.9216    0.0569 O   0  0  0  0  0  0  0  0  0  0  0  0
    2.3762  -10.1720    0.0072 O   0  0  0  0  0  0  0  0  0  0  0  0
    0.6598  -15.0159    4.0164 O   0  0  0  0  0  0  0  0  0  0  0  0
    0.4963  -16.1443    3.4243 C   0  0  0  0  0  0  0  0  0  0  0  0
  1  2  1  0
  1  3  1  0
  3  4  1  0
  4  5  1  0
  2  7  1  0
  7  8  2  0
  7  9  1  0
 13 14  1  0
 14 15  2  0
 14 16  1  0
 10 17  1  0
 17 18  1  0
  5  6  2  0
  6 10  1  0
 10 11  2  0
 11 12  1  0
 12 13  2  0
  5 13  1  0
M  END

$$$$
No_3745-/export/home/yangzhenyu/potential_scad_32_flow//YTHDC2/2024-12-06-03-22-00/
     RDKit          3D

 18 18  0  0  0  0  0  0  0  0999 V2000
    1.1787   -8.0297    3.5154 C   0  0  0  0  0  0  0  0  0  0  0  0
    1.0491   -6.8434    2.9820 C   0  0  0  0  0  0  0  0  0  0  0  0
    0.9905   -9.0774    2.6527 C   0  0  0  0  0  0  0  0  0  0  0  0
    0.7897   -8.9519    1.3691 C   0  0  0  0  0  0  0  0  0  0  0  0
    0.7018   -7.7198    0.7892 C   0  0  0  0  0  0  0  0  0  0  0  0
    0.8918   -6.5957    1.6117 C   0  0  0  0  0  0  0  0  0  0  0  0
    1.0711  -10.4814    3.2282 S   0  0  0  0  0  0  0  0  0  0  0  0
    1.2148  -11.6157    2.1481 C   0  0  0  0  0  0  0  0  0  0  0  0
    1.4792  -13.0409    2.5205 C   0  0  0  0  0  0  0  0  0  0  0  0
    1.9784  -13.8756    1.5516 C   0  0  0  0  0  0  0  0  0  0  0  0
   -0.1994  -10.8669    4.0588 O   0  0  0  0  0  0  0  0  0  0  0  0
    2.2073  -10.7054    4.2503 O   0  0  0  0  0  0  0  0  0  0  0  0
    1.7874  -13.5163    0.3495 O   0  0  0  0  0  0  0  0  0  0  0  0
    2.6384  -14.9191    1.9310 O   0  0  0  0  0  0  0  0  0  0  0  0
    0.8354   -5.2861    1.1383 O   0  0  0  0  0  0  0  0  0  0  0  0
    0.3748   -4.2329    1.8264 C   0  0  0  0  0  0  0  0  0  0  0  0
   -1.0390   -4.2238    1.7451 C   0  0  0  0  0  0  0  0  0  0  0  0
   -1.5576   -3.5022    2.2117 C   0  0  0  0  0  0  0  0  0  0  0  0
  3  7  1  0
  7  8  1  0
  8  9  1  0
  9 10  1  0
  7 11  2  0
  7 12  2  0
 10 13  2  0
 10 14  1  0
  6 15  1  0
 15 16  1  0
 16 17  1  0
 17 18  2  0
  1  2  2  0
  2  6  1  0
  5  6  2  0
  4  5  1  0
  3  4  2  0
  1  3  1  0
M  END

$$$$
No_3746-/export/home/yangzhenyu/potential_scad_32_flow//YTHDC2/2024-12-06-03-22-00/
     RDKit          3D

 18 18  0  0  0  0  0  0  0  0999 V2000
    1.1787   -8.0297    3.5154 C   0  0  0  0  0  0  0  0  0  0  0  0
    1.1048   -9.2215    3.2892 C   0  0  0  0  0  0  0  0  0  0  0  0
    1.2339   -9.7611    2.0189 C   0  0  0  0  0  0  0  0  0  0  0  0
    1.3583   -9.0036    0.9764 C   0  0  0  0  0  0  0  0  0  0  0  0
    1.5996   -7.6362    1.1311 C   0  0  0  0  0  0  0  0  0  0  0  0
    1.4830   -7.0928    2.3626 C   0  0  0  0  0  0  0  0  0  0  0  0
    1.5395   -5.7300    2.6182 C   0  0  0  0  0  0  0  0  0  0  0  0
    1.1775  -11.2233    1.8407 I   0  0  0  0  0  0  0  0  0  0  0  0
    1.6846   -5.1793    3.8990 N   0  0  0  0  0  0  0  0  0  0  0  0
    1.0929   -4.8239    1.6612 O   0  0  0  0  0  0  0  0  0  0  0  0
    1.5199   -9.4604   -0.3394 C   0  0  0  0  0  0  0  0  0  0  0  0
    1.3319   -8.8624   -1.3445 O   0  0  0  0  0  0  0  0  0  0  0  0
    1.7717  -10.6276   -0.5969 O   0  0  0  0  0  0  0  0  0  0  0  0
    0.8387  -10.1814    4.6215 Cl  0  0  0  0  0  0  0  0  0  0  0  0
    1.5733   -3.7977    3.9295 C   0  0  0  0  0  0  0  0  0  0  0  0
    0.3977   -3.2207    4.4741 C   0  0  0  0  0  0  0  0  0  0  0  0
   -0.5839   -3.1791    3.7887 C   0  0  0  0  0  0  0  0  0  0  0  0
   -1.6906   -3.8937    3.9962 C   0  0  0  0  0  0  0  0  0  0  0  0
  6  7  1  0
  3  8  1  0
  7  9  1  0
  7 10  2  0
  4 11  1  0
 11 12  2  0
 11 13  1  0
  2 14  1  0
  9 15  1  0
 15 16  1  0
 16 17  1  0
 17 18  1  0
  1  2  2  0
  2  3  1  0
  3  4  2  0
  4  5  1  0
  5  6  2  0
  1  6  1  0
M  END

$$$$
No_3747-/export/home/yangzhenyu/potential_scad_32_flow//YTHDC2/2024-12-06-03-22-00/
     RDKit          3D

 18 19  0  0  1  0  0  0  0  0999 V2000
    1.1787   -8.0297    3.5154 N   0  0  0  0  0  0  0  0  0  0  0  0
    0.8669   -7.0905    2.8589 C   0  0  1  0  0  0  0  0  0  0  0  0
    0.8842   -5.8387    3.2677 C   0  0  0  0  0  0  0  0  0  0  0  0
    1.2819   -9.4050    3.1259 C   0  0  0  0  0  0  0  0  0  0  0  0
    1.6244  -10.3514    4.1878 N   0  0  0  0  0  0  0  0  0  0  0  0
    1.1156   -9.8531    1.9825 C   0  0  0  0  0  0  0  0  0  0  0  0
    1.2037  -11.2729    1.6823 C   0  0  0  0  0  0  0  0  0  0  0  0
    1.5208  -12.1467    2.6131 C   0  0  0  0  0  0  0  0  0  0  0  0
    1.7317  -11.7212    3.8672 C   0  0  0  0  0  0  0  0  0  0  0  0
    0.4156   -4.8178    2.3329 C   0  0  0  0  0  0  0  0  0  0  0  0
    0.1495   -5.1845    1.0520 C   0  0  0  0  0  0  0  0  0  0  0  0
    0.5329   -6.9325    1.4070 C   0  0  0  0  0  0  0  0  0  0  0  0
    1.6888  -13.5203    2.2534 C   0  0  0  0  0  0  0  0  0  0  0  0
    1.6104  -13.9164    1.0479 O   0  0  0  0  0  0  0  0  0  0  0  0
    1.7958  -14.4087    3.2327 O   0  0  0  0  0  0  0  0  0  0  0  0
    0.2557   -3.4220    2.6851 C   0  0  0  0  0  0  0  0  0  0  0  0
    1.2155   -2.6634    2.3024 N   0  0  0  0  0  0  0  0  0  0  0  0
   -0.2707   -4.8827    0.1367 O   0  0  0  0  0  0  0  0  0  0  0  0
  2  1  1  6
  2  3  1  0
  1  4  1  0
  3 10  2  0
 10 11  1  0
  2 12  1  0
 11 12  1  0
  8 13  1  0
 13 14  2  0
 13 15  1  0
 10 16  1  0
 16 17  1  0
 11 18  2  0
  4  5  2  0
  5  9  1  0
  8  9  2  0
  7  8  1  0
  6  7  2  0
  4  6  1  0
M  END

$$$$
No_3748-/export/home/yangzhenyu/potential_scad_32_flow//YTHDC2/2024-12-06-03-22-00/
     RDKit          3D

 18 18  0  0  1  0  0  0  0  0999 V2000
    1.1787   -8.0297    3.5154 C   0  0  0  0  0  0  0  0  0  0  0  0
    1.0491   -6.8434    2.9820 C   0  0  0  0  0  0  0  0  0  0  0  0
    0.0950   -8.8404    3.2292 C   0  0  0  0  0  0  0  0  0  0  0  0
   -0.9173   -8.4596    2.5152 C   0  0  0  0  0  0  0  0  0  0  0  0
   -1.0331   -7.2162    2.0653 C   0  0  0  0  0  0  0  0  0  0  0  0
   -0.0105   -6.3168    2.3081 C   0  0  0  0  0  0  0  0  0  0  0  0
    0.0485   -4.9783    1.8782 C   0  0  0  0  0  0  0  0  0  0  0  0
    0.9625   -4.1072    2.3252 O   0  0  0  0  0  0  0  0  0  0  0  0
   -0.9023   -4.3813    1.1355 N   0  0  0  0  0  0  0  0  0  0  0  0
    0.2039  -10.2901    3.6485 C   0  0  2  0  0  0  0  0  0  0  0  0
   -0.9837  -10.9160    3.9730 C   0  0  0  0  0  0  0  0  0  0  0  0
    1.4090  -10.8950    4.0657 C   0  0  0  0  0  0  0  0  0  0  0  0
    1.6919  -12.1671    3.7153 C   0  0  0  0  0  0  0  0  0  0  0  0
    1.8628  -12.2840    2.2817 C   0  0  0  0  0  0  0  0  0  0  0  0
    0.8261  -12.2773    1.5897 C   0  0  0  0  0  0  0  0  0  0  0  0
    0.5868  -11.2675    0.6138 C   0  0  0  0  0  0  0  0  0  0  0  0
   -0.5646  -11.1165   -0.1227 O   0  0  0  0  0  0  0  0  0  0  0  0
    1.6101  -10.5697   -0.0822 O   0  0  0  0  0  0  0  0  0  0  0  0
  6  7  1  0
  7  8  2  0
  7  9  1  0
  3 10  1  0
 10 11  1  1
 10 12  1  0
 12 13  1  0
 13 14  1  0
 14 15  1  0
 15 16  1  0
 16 17  2  0
 16 18  1  0
  1  2  2  0
  2  6  1  0
  5  6  2  0
  4  5  1  0
  3  4  2  0
  1  3  1  0
M  END

$$$$
No_3749-/export/home/yangzhenyu/potential_scad_32_flow//YTHDC2/2024-12-06-03-22-00/
     RDKit          3D

 17 17  0  0  0  0  0  0  0  0999 V2000
    1.1787   -8.0297    3.5154 C   0  0  0  0  0  0  0  0  0  0  0  0
    1.1048   -9.2215    3.2892 C   0  0  0  0  0  0  0  0  0  0  0  0
    1.2339   -9.7611    2.0189 C   0  0  0  0  0  0  0  0  0  0  0  0
    1.4306   -8.9466    1.1170 C   0  0  0  0  0  0  0  0  0  0  0  0
    1.6532   -7.5949    1.1786 C   0  0  0  0  0  0  0  0  0  0  0  0
    1.4973   -7.0739    2.4258 C   0  0  0  0  0  0  0  0  0  0  0  0
    1.6687   -9.4437   -0.3021 C   0  0  0  0  0  0  0  0  0  0  0  0
    1.1891  -10.5277   -0.5331 O   0  0  0  0  0  0  0  0  0  0  0  0
    2.5088   -8.8776   -1.1484 O   0  0  0  0  0  0  0  0  0  0  0  0
    0.8784  -10.2039    4.3748 Cl  0  0  0  0  0  0  0  0  0  0  0  0
    1.5815   -5.3360    2.8267 Cl  0  0  0  0  0  0  0  0  0  0  0  0
    1.1867  -11.1344    1.8575 C   0  0  0  0  0  0  0  0  0  0  0  0
    0.8425  -12.0749    2.0492 C   0  0  0  0  0  0  0  0  0  0  0  0
    0.6271  -13.5946    1.9331 C   0  0  0  0  0  0  0  0  0  0  0  0
    1.3995  -14.2490    3.0530 C   0  0  0  0  0  0  0  0  0  0  0  0
    1.4846  -15.6465    2.8444 C   0  0  0  0  0  0  0  0  0  0  0  0
    2.5588  -15.9630    2.0999 C   0  0  0  0  0  0  0  0  0  0  0  0
  4  7  1  0
  7  8  2  0
  7  9  1  0
  2 10  1  0
  6 11  1  0
  3 12  1  0
 12 13  3  0
 13 14  1  0
 14 15  1  0
 15 16  1  0
 16 17  1  0
  1  2  2  0
  2  3  1  0
  3  4  2  0
  4  5  1  0
  5  6  2  0
  1  6  1  0
M  END

$$$$
No_3750-/export/home/yangzhenyu/potential_scad_32_flow//YTHDC2/2024-12-06-03-22-00/
     RDKit          3D

 19 20  0  0  1  0  0  0  0  0999 V2000
    1.1787   -8.0297    3.5154 C   0  0  0  0  0  0  0  0  0  0  0  0
    1.1048   -9.2215    3.2892 C   0  0  0  0  0  0  0  0  0  0  0  0
    1.3627  -10.1721    4.3044 C   0  0  0  0  0  0  0  0  0  0  0  0
    1.0682  -11.5187    4.0618 C   0  0  0  0  0  0  0  0  0  0  0  0
    0.7653  -11.7320    2.7387 C   0  0  0  0  0  0  0  0  0  0  0  0
    0.5661  -10.9730    1.8367 C   0  0  0  0  0  0  0  0  0  0  0  0
    0.7745   -9.6758    2.0361 C   0  0  0  0  0  0  0  0  0  0  0  0
    1.2131   -6.9952    2.4858 C   0  0  1  0  0  0  0  0  0  0  0  0
    1.0372   -7.3618    1.2450 C   0  0  0  0  0  0  0  0  0  0  0  0
    0.8884   -8.7092    0.9459 C   0  0  2  0  0  0  0  0  0  0  0  0
    0.7739   -9.1153   -0.2836 C   0  0  0  0  0  0  0  0  0  0  0  0
    0.3474   -8.7329   -1.1374 O   0  0  0  0  0  0  0  0  0  0  0  0
    0.5367  -13.2548    2.4917 C   0  0  0  0  0  0  0  0  0  0  0  0
    1.4113  -14.1923    2.8912 F   0  0  0  0  0  0  0  0  0  0  0  0
   -0.6587  -13.7054    2.8639 F   0  0  0  0  0  0  0  0  0  0  0  0
    0.6860  -13.5616    1.1497 Br  0  0  0  0  0  0  0  0  0  0  0  0
    1.6043  -10.0266   -0.7935 O   0  0  0  0  0  0  0  0  0  0  0  0
    1.3512   -5.5753    2.8500 Cl  0  0  0  0  0  0  0  0  0  0  0  0
    1.1672   -6.5458    0.3236 O   0  0  0  0  0  0  0  0  0  0  0  0
  1  2  1  0
  8  9  1  0
  7 10  1  0
  9 10  1  0
 10 11  1  6
 11 12  2  0
  5 13  1  0
 13 14  1  0
 13 15  1  0
 13 16  1  0
 11 17  1  0
  8 18  1  1
  9 19  2  0
  1  8  1  0
  2  3  2  0
  3  4  1  0
  4  5  2  0
  5  6  1  0
  6  7  2  0
  2  7  1  0
M  END

$$$$
No_3751-/export/home/yangzhenyu/potential_scad_32_flow//YTHDC2/2024-12-06-03-22-00/
     RDKit          3D

 19 21  0  0  0  0  0  0  0  0999 V2000
    1.1787   -8.0297    3.5154 C   0  0  0  0  0  0  0  0  0  0  0  0
    1.1048   -9.2215    3.2892 C   0  0  0  0  0  0  0  0  0  0  0  0
    1.3627  -10.1721    4.3044 C   0  0  0  0  0  0  0  0  0  0  0  0
    1.0682  -11.5187    4.0618 C   0  0  0  0  0  0  0  0  0  0  0  0
    0.6332  -11.9655    2.9682 C   0  0  0  0  0  0  0  0  0  0  0  0
    0.4776  -11.1308    1.9203 C   0  0  0  0  0  0  0  0  0  0  0  0
    0.7470   -9.8274    2.0368 C   0  0  0  0  0  0  0  0  0  0  0  0
    1.0387   -7.0301    2.5175 C   0  0  0  0  0  0  0  0  0  0  0  0
    0.9130   -7.5288    1.2013 C   0  0  0  0  0  0  0  0  0  0  0  0
    0.7893   -8.7979    0.9542 C   0  0  0  0  0  0  0  0  0  0  0  0
    0.5241   -9.2578   -0.2817 C   0  0  0  0  0  0  0  0  0  0  0  0
   -0.7560   -9.7391   -0.6285 O   0  0  0  0  0  0  0  0  0  0  0  0
    1.1160   -8.6749   -1.3392 O   0  0  0  0  0  0  0  0  0  0  0  0
    0.4855  -13.6285    2.6696 C   0  0  0  0  0  0  0  0  0  0  0  0
    1.5378  -14.3508    3.1779 C   0  0  0  0  0  0  0  0  0  0  0  0
    1.2330  -15.7314    2.9812 C   0  0  0  0  0  0  0  0  0  0  0  0
    0.3428  -16.1941    2.2474 C   0  0  0  0  0  0  0  0  0  0  0  0
   -0.5477  -15.3445    1.6561 C   0  0  0  0  0  0  0  0  0  0  0  0
   -0.3710  -14.0242    1.8700 C   0  0  0  0  0  0  0  0  0  0  0  0
 10 11  1  0
 11 12  2  0
 11 13  1  0
  5 14  1  0
  2  3  1  0
  3  4  2  0
  4  5  1  0
  5  6  2  0
  6  7  1  0
  1  2  2  0
  2  7  1  0
  7 10  2  0
  9 10  1  0
  8  9  2  0
  1  8  1  0
 14 15  2  0
 15 16  1  0
 16 17  2  0
 17 18  1  0
 18 19  2  0
 14 19  1  0
M  END

$$$$
No_3752-/export/home/yangzhenyu/potential_scad_32_flow//YTHDC2/2024-12-06-03-22-00/
     RDKit          3D

 20 22  0  0  1  0  0  0  0  0999 V2000
    1.1787   -8.0297    3.5154 N   0  0  0  0  0  0  0  0  0  0  0  0
    1.0818   -9.0751    3.2053 C   0  0  0  0  0  0  0  0  0  0  0  0
    0.7576   -9.3725    1.9159 C   0  0  0  0  0  0  0  0  0  0  0  0
    0.7445  -10.8746    1.6491 C   0  0  0  0  0  0  0  0  0  0  0  0
    0.9910  -11.7526    2.6067 C   0  0  0  0  0  0  0  0  0  0  0  0
    1.4405  -11.4331    3.8064 C   0  0  0  0  0  0  0  0  0  0  0  0
    1.4304  -10.0463    4.1669 C   0  0  0  0  0  0  0  0  0  0  0  0
    1.1303   -6.7964    2.6709 C   0  0  0  0  0  0  0  0  0  0  0  0
    1.1940   -5.5106    3.0561 N   0  0  0  0  0  0  0  0  0  0  0  0
    1.1097   -6.9381    1.1929 C   0  0  0  0  0  0  0  0  0  0  0  0
    0.9597  -13.1968    2.2858 C   0  0  1  0  0  0  0  0  0  0  0  0
    1.9693  -13.9324    2.2202 C   0  0  0  0  0  0  0  0  0  0  0  0
    1.7991  -15.2529    2.0402 C   0  0  0  0  0  0  0  0  0  0  0  0
    0.6116  -15.8497    2.0760 C   0  0  0  0  0  0  0  0  0  0  0  0
   -0.3713  -14.5811    2.5137 C   0  0  0  0  0  0  0  0  0  0  0  0
   -0.2938  -13.6491    2.5819 C   0  0  0  0  0  0  0  0  0  0  0  0
   -1.3112  -12.8014    2.8876 O   0  0  0  0  0  0  0  0  0  0  0  0
    1.0624   -4.4997    2.2088 C   0  0  0  0  0  0  0  0  0  0  0  0
    1.0693   -5.4076    0.9088 C   0  0  0  0  0  0  0  0  0  0  0  0
    1.1002   -3.1798    2.3585 C   0  0  0  0  0  0  0  0  0  0  0  0
  1  2  1  0
  1  8  2  3
  8  9  1  0
  8 10  1  0
 11  5  1  1
 11 12  1  0
 13 14  1  0
 11 16  1  0
 15 16  1  0
 16 17  2  0
  9 18  2  0
 10 19  1  0
 18 19  1  0
 18 20  1  0
 12 13  1  0
 14 15  1  0
  2  3  2  0
  3  4  1  0
  4  5  2  0
  5  6  1  0
  6  7  2  0
  2  7  1  0
M  END

$$$$
No_3753-/export/home/yangzhenyu/potential_scad_32_flow//YTHDC2/2024-12-06-03-22-00/
     RDKit          3D

 19 20  0  0  1  0  0  0  0  0999 V2000
    1.1787   -8.0297    3.5154 C   0  0  0  0  0  0  0  0  0  0  0  0
    1.1048   -9.2215    3.2892 C   0  0  0  0  0  0  0  0  0  0  0  0
    1.2339   -9.7611    2.0189 C   0  0  1  0  0  0  0  0  0  0  0  0
    1.1954  -11.2312    1.8661 C   0  0  0  0  0  0  0  0  0  0  0  0
    1.5546  -12.1691    2.7931 C   0  0  0  0  0  0  0  0  0  0  0  0
    0.5849   -7.0929    2.5729 C   0  0  2  0  0  0  0  0  0  0  0  0
    0.5567   -7.6699    1.1955 C   0  0  0  0  0  0  0  0  0  0  0  0
    0.7903   -8.9699    0.9209 C   0  0  0  0  0  0  0  0  0  0  0  0
    1.5521  -13.4960    2.3485 C   0  0  0  0  0  0  0  0  0  0  0  0
    1.2403  -13.8919    1.1557 C   0  0  0  0  0  0  0  0  0  0  0  0
    1.0311  -12.9707    0.1488 C   0  0  0  0  0  0  0  0  0  0  0  0
    0.9678  -11.6394    0.4949 C   0  0  0  0  0  0  0  0  0  0  0  0
    0.6235   -5.6335    2.6368 C   0  0  0  0  0  0  0  0  0  0  0  0
    0.3286   -6.8520    0.1792 O   0  0  0  0  0  0  0  0  0  0  0  0
    1.7682   -4.9032    2.9572 C   0  0  0  0  0  0  0  0  0  0  0  0
    1.9499  -14.4178    3.3898 Cl  0  0  0  0  0  0  0  0  0  0  0  0
    1.4943   -3.4466    2.9450 C   0  0  0  0  0  0  0  0  0  0  0  0
    0.1495   -2.9998    2.8714 C   0  0  0  0  0  0  0  0  0  0  0  0
   -0.8607   -3.7560    2.6089 C   0  0  0  0  0  0  0  0  0  0  0  0
  1  2  1  0
  3  4  1  1
  6  7  1  0
  3  8  1  0
  7  8  1  0
  6 13  1  6
  7 14  2  0
 13 15  1  0
  9 16  1  0
 15 17  2  3
 17 18  1  0
 18 19  2  0
  1  6  1  0
  2  3  1  0
  4  5  2  0
  5  9  1  0
  9 10  2  0
 10 11  1  0
 11 12  2  0
  4 12  1  0
M  END

$$$$
No_3754-/export/home/yangzhenyu/potential_scad_32_flow//YTHDC2/2024-12-06-03-22-00/
     RDKit          3D

 18 19  0  0  0  0  0  0  0  0999 V2000
    1.1787   -8.0297    3.5154 C   0  0  0  0  0  0  0  0  0  0  0  0
    1.1048   -9.2215    3.2892 C   0  0  0  0  0  0  0  0  0  0  0  0
    1.2339   -9.7611    2.0189 C   0  0  0  0  0  0  0  0  0  0  0  0
    1.3583   -9.0036    0.9764 C   0  0  0  0  0  0  0  0  0  0  0  0
    1.5996   -7.6362    1.1311 C   0  0  0  0  0  0  0  0  0  0  0  0
    1.4830   -7.0928    2.3626 C   0  0  0  0  0  0  0  0  0  0  0  0
    1.5395   -5.7300    2.6182 C   0  0  0  0  0  0  0  0  0  0  0  0
    1.1775  -11.2233    1.8407 C   0  0  0  0  0  0  0  0  0  0  0  0
    1.9057  -12.1147    2.3397 C   0  0  0  0  0  0  0  0  0  0  0  0
    1.2923  -13.3224    2.7485 C   0  0  0  0  0  0  0  0  0  0  0  0
    0.1394  -13.7108    2.4017 C   0  0  0  0  0  0  0  0  0  0  0  0
   -0.6797  -12.8082    1.7671 C   0  0  0  0  0  0  0  0  0  0  0  0
   -0.0210  -11.4730    1.2982 C   0  0  0  0  0  0  0  0  0  0  0  0
   -0.3673  -14.9693    2.6182 P   0  0  0  0  0  0  0  0  0  0  0  0
   -1.7071  -15.0865    3.0284 O   0  0  0  0  0  0  0  0  0  0  0  0
    0.5185  -15.7096    3.8750 O   0  0  0  0  0  0  0  0  0  0  0  0
    0.0437  -15.9953    1.4282 O   0  0  0  0  0  0  0  0  0  0  0  0
    1.6577   -5.1803    3.8748 O   0  0  0  0  0  0  0  0  0  0  0  0
  6  7  1  0
  3  8  1  0
 11 14  1  0
 14 15  1  0
 14 16  2  0
 14 17  1  0
  7 18  1  0
  1  2  2  0
  2  3  1  0
  3  4  2  0
  4  5  1  0
  5  6  2  0
  1  6  1  0
  8  9  2  0
  9 10  1  0
 10 11  2  0
 11 12  1  0
 12 13  2  0
  8 13  1  0
M  END

$$$$
No_3755-/export/home/yangzhenyu/potential_scad_32_flow//YTHDC2/2024-12-06-03-22-00/
     RDKit          3D

 19 19  0  0  1  0  0  0  0  0999 V2000
    1.1787   -8.0297    3.5154 Cl  0  0  0  0  0  0  0  0  0  0  0  0
    0.6986   -7.2038    2.6409 C   0  0  2  0  0  0  0  0  0  0  0  0
    0.9133   -7.4941    1.2402 C   0  0  0  0  0  0  0  0  0  0  0  0
    0.6150   -8.7672    0.9128 C   0  0  2  0  0  0  0  0  0  0  0  0
    1.6827   -9.4743    0.3176 C   0  0  0  0  0  0  0  0  0  0  0  0
    1.6485  -10.7860    0.4599 O   0  0  0  0  0  0  0  0  0  0  0  0
    2.5136   -8.9336   -0.6419 O   0  0  0  0  0  0  0  0  0  0  0  0
    1.2855   -5.6803    2.9815 C   0  0  0  0  0  0  0  0  0  0  0  0
    1.0200   -4.7146    2.0561 O   0  0  0  0  0  0  0  0  0  0  0  0
    2.0754   -5.3899    3.8141 O   0  0  0  0  0  0  0  0  0  0  0  0
   -0.6464   -9.2275    0.7884 C   0  0  0  0  0  0  0  0  0  0  0  0
   -1.4367   -8.9663    0.0002 C   0  0  0  0  0  0  0  0  0  0  0  0
   -2.8247   -9.3627   -0.0993 C   0  0  0  0  0  0  0  0  0  0  0  0
   -3.7007   -8.7712   -0.8117 C   0  0  0  0  0  0  0  0  0  0  0  0
   -4.9578   -9.2312   -0.7624 C   0  0  0  0  0  0  0  0  0  0  0  0
   -5.2283  -10.2391    0.0465 C   0  0  0  0  0  0  0  0  0  0  0  0
   -4.2945  -10.8591    0.8066 C   0  0  0  0  0  0  0  0  0  0  0  0
   -2.9341  -10.4330    0.7447 C   0  0  0  0  0  0  0  0  0  0  0  0
   -6.5499  -10.6831    0.1198 C   0  0  0  0  0  0  0  0  0  0  0  0
  2  1  1  1
  2  3  1  0
  4  3  1  6
  4  5  1  0
  5  6  1  0
  5  7  2  0
  2  8  1  0
  8  9  2  0
  8 10  1  0
  4 11  1  0
 11 12  2  3
 12 13  1  0
 16 19  1  0
 13 14  2  0
 14 15  1  0
 15 16  2  0
 16 17  1  0
 17 18  2  0
 13 18  1  0
M  END

$$$$
No_3756-/export/home/yangzhenyu/potential_scad_32_flow//YTHDC2/2024-12-06-03-22-00/
     RDKit          3D

 17 18  0  0  1  0  0  0  0  0999 V2000
    1.1787   -8.0297    3.5154 C   0  0  0  0  0  0  0  0  0  0  0  0
    1.1048   -9.2215    3.2892 C   0  0  0  0  0  0  0  0  0  0  0  0
    1.2339   -9.7611    2.0189 C   0  0  0  0  0  0  0  0  0  0  0  0
    1.3583   -9.0036    0.9764 C   0  0  0  0  0  0  0  0  0  0  0  0
    1.5996   -7.6362    1.1311 C   0  0  0  0  0  0  0  0  0  0  0  0
    1.4830   -7.0928    2.3626 C   0  0  0  0  0  0  0  0  0  0  0  0
    1.5395   -5.7300    2.6182 C   0  0  0  0  0  0  0  0  0  0  0  0
    1.1969  -11.3760    1.8433 C   0  0  2  0  0  0  0  0  0  0  0  0
    1.7910  -12.1287    2.5491 C   0  0  0  0  0  0  0  0  0  0  0  0
    1.6251  -13.4926    2.1118 C   0  0  2  0  0  0  0  0  0  0  0  0
    0.9177  -13.8665    1.0867 C   0  0  0  0  0  0  0  0  0  0  0  0
    0.3045  -12.8579    0.2778 C   0  0  0  0  0  0  0  0  0  0  0  0
    0.4464  -11.5554    0.6353 C   0  0  0  0  0  0  0  0  0  0  0  0
    2.2715  -14.5026    2.9519 Cl  0  0  0  0  0  0  0  0  0  0  0  0
    1.2715   -4.8080    1.7031 C   0  0  0  0  0  0  0  0  0  0  0  0
    1.2196   -3.3761    1.9432 C   0  0  0  0  0  0  0  0  0  0  0  0
   -0.1750  -10.6822   -0.1433 O   0  0  0  0  0  0  0  0  0  0  0  0
  6  7  1  0
  8  3  1  6
  8  9  1  0
 10 11  1  0
  8 13  1  0
 12 13  1  0
 10 14  1  1
  7 15  2  3
 15 16  1  0
 13 17  2  0
  9 10  1  0
 11 12  1  0
  1  2  2  0
  2  3  1  0
  3  4  2  0
  4  5  1  0
  5  6  2  0
  1  6  1  0
M  END

$$$$
No_3757-/export/home/yangzhenyu/potential_scad_32_flow//YTHDC2/2024-12-06-03-22-00/
     RDKit          3D

 19 19  0  0  1  0  0  0  0  0999 V2000
    1.1787   -8.0297    3.5154 C   0  0  0  0  0  0  0  0  0  0  0  0
    1.1048   -9.2215    3.2892 C   0  0  0  0  0  0  0  0  0  0  0  0
    1.2339   -9.7611    2.0189 C   0  0  0  0  0  0  0  0  0  0  0  0
    1.3583   -9.0036    0.9764 C   0  0  0  0  0  0  0  0  0  0  0  0
    1.5996   -7.6362    1.1311 C   0  0  0  0  0  0  0  0  0  0  0  0
    1.4830   -7.0928    2.3626 C   0  0  0  0  0  0  0  0  0  0  0  0
    1.5395   -5.7300    2.6182 C   0  0  0  0  0  0  0  0  0  0  0  0
    1.1969  -11.3760    1.8433 C   0  0  0  0  0  0  0  0  0  0  0  0
    1.0771  -11.6644    0.5388 O   0  0  0  0  0  0  0  0  0  0  0  0
    1.0315  -12.1193    2.7418 N   0  0  0  0  0  0  0  0  0  0  0  0
    1.0857  -13.4762    2.6408 C   0  0  0  0  0  0  0  0  0  0  0  0
   -0.2016  -14.1757    2.6247 C   0  0  1  0  0  0  0  0  0  0  0  0
   -1.2387  -13.4586    2.4202 C   0  0  0  0  0  0  0  0  0  0  0  0
   -0.0585  -15.5838    2.5401 C   0  0  0  0  0  0  0  0  0  0  0  0
   -1.1157  -16.2964    2.6018 O   0  0  0  0  0  0  0  0  0  0  0  0
    1.2155  -16.3098    2.7361 C   0  0  0  0  0  0  0  0  0  0  0  0
    0.6233   -4.8806    2.7645 O   0  0  0  0  0  0  0  0  0  0  0  0
    1.5523  -17.2877    2.1000 C   0  0  0  0  0  0  0  0  0  0  0  0
    2.7060  -18.0658    2.5587 C   0  0  0  0  0  0  0  0  0  0  0  0
  6  7  1  0
  3  8  1  0
  8  9  2  0
  8 10  1  0
 10 11  1  0
 11 12  1  0
 12 13  1  6
 12 14  1  0
 14 15  2  0
 14 16  1  0
  7 17  1  0
 16 18  1  0
 18 19  2  0
  1  2  2  0
  2  3  1  0
  3  4  2  0
  4  5  1  0
  5  6  2  0
  1  6  1  0
M  END

$$$$
No_3758-/export/home/yangzhenyu/potential_scad_32_flow//YTHDC2/2024-12-06-03-22-00/
     RDKit          3D

 17 17  0  0  1  0  0  0  0  0999 V2000
    1.1787   -8.0297    3.5154 C   0  0  0  0  0  0  0  0  0  0  0  0
    1.1048   -9.2215    3.2892 C   0  0  0  0  0  0  0  0  0  0  0  0
    1.2339   -9.7611    2.0189 C   0  0  0  0  0  0  0  0  0  0  0  0
    1.3583   -9.0036    0.9764 C   0  0  0  0  0  0  0  0  0  0  0  0
    1.5996   -7.6362    1.1311 C   0  0  0  0  0  0  0  0  0  0  0  0
    1.4830   -7.0928    2.3626 C   0  0  0  0  0  0  0  0  0  0  0  0
    1.5395   -5.7300    2.6182 C   0  0  0  0  0  0  0  0  0  0  0  0
    1.1775  -11.2233    1.8407 C   0  0  0  0  0  0  0  0  0  0  0  0
    0.5085  -11.9762    2.1989 C   0  0  0  0  0  0  0  0  0  0  0  0
    0.4247  -13.3704    2.0465 C   0  0  0  0  0  0  0  0  0  0  0  0
    1.6054  -14.1557    2.4664 C   0  0  0  0  0  0  0  0  0  0  0  0
    1.8180  -15.4260    2.0939 C   0  0  2  0  0  0  0  0  0  0  0  0
    3.0186  -15.8296    1.7222 N   0  0  0  0  0  0  0  0  0  0  0  0
    0.9061  -16.2907    1.9029 C   0  0  0  0  0  0  0  0  0  0  0  0
    0.6404  -16.9774    2.6249 C   0  0  0  0  0  0  0  0  0  0  0  0
   -0.4775  -18.0188    2.5614 C   0  0  0  0  0  0  0  0  0  0  0  0
   -0.6966  -13.9456    1.6417 O   0  0  0  0  0  0  0  0  0  0  0  0
  6  7  1  0
  3  8  1  0
  8  9  2  3
  9 10  1  0
 10 11  1  0
 11 12  1  0
 12 13  1  6
 12 14  1  0
 14 15  2  3
 15 16  1  0
 10 17  2  0
  1  2  2  0
  2  3  1  0
  3  4  2  0
  4  5  1  0
  5  6  2  0
  1  6  1  0
M  END

$$$$
No_3759-/export/home/yangzhenyu/potential_scad_32_flow//YTHDC2/2024-12-06-03-22-00/
     RDKit          3D

 17 17  0  0  1  0  0  0  0  0999 V2000
    1.1787   -8.0297    3.5154 C   0  0  0  0  0  0  0  0  0  0  0  0
    1.1048   -9.2215    3.2892 C   0  0  0  0  0  0  0  0  0  0  0  0
    1.4683  -10.2314    4.1915 C   0  0  0  0  0  0  0  0  0  0  0  0
    0.8445   -6.9865    2.5175 C   0  0  0  0  0  0  0  0  0  0  0  0
    0.3587   -7.3973    1.3953 C   0  0  0  0  0  0  0  0  0  0  0  0
    0.1901   -8.6971    1.0711 C   0  0  0  0  0  0  0  0  0  0  0  0
    0.5759   -9.6647    1.9442 C   0  0  0  0  0  0  0  0  0  0  0  0
    0.6465  -11.4192    4.2286 C   0  0  0  0  0  0  0  0  0  0  0  0
    1.2991  -12.6074    4.1143 N   0  0  0  0  0  0  0  0  0  0  0  0
    1.1338  -13.2880    2.9667 C   0  0  0  0  0  0  0  0  0  0  0  0
    1.9068  -14.5522    2.7669 O   0  0  0  0  0  0  0  0  0  0  0  0
    0.2838  -12.9798    1.8751 C   0  0  0  0  0  0  0  0  0  0  0  0
    0.0578   -6.4739    0.3740 C   0  0  0  0  0  0  0  0  0  0  0  0
   -1.1992   -5.8914    0.5618 C   0  0  1  0  0  0  0  0  0  0  0  0
   -2.0511   -6.2844    1.2615 N   0  0  0  0  0  0  0  0  0  0  0  0
   -1.2623   -4.5125    0.1501 Cl  0  0  0  0  0  0  0  0  0  0  0  0
   -0.9995  -13.1981    1.9586 C   0  0  0  0  0  0  0  0  0  0  0  0
  2  3  1  0
  3  8  1  0
  8  9  1  0
  9 10  1  0
 10 11  2  0
 10 12  1  0
  5 13  1  0
 13 14  1  0
 14 15  1  1
 14 16  1  0
 12 17  1  0
  1  2  2  0
  2  7  1  0
  6  7  2  0
  5  6  1  0
  4  5  2  0
  1  4  1  0
M  END

$$$$
No_3760-/export/home/yangzhenyu/potential_scad_32_flow//YTHDC2/2024-12-06-03-22-00/
     RDKit          3D

 17 17  0  0  1  0  0  0  0  0999 V2000
    1.1787   -8.0297    3.5154 C   0  0  0  0  0  0  0  0  0  0  0  0
    1.1048   -9.2215    3.2892 C   0  0  0  0  0  0  0  0  0  0  0  0
    1.2339   -9.7611    2.0189 C   0  0  0  0  0  0  0  0  0  0  0  0
    1.1954  -11.2312    1.8661 C   0  0  2  0  0  0  0  0  0  0  0  0
    1.2996  -11.5815    0.5387 S   0  0  0  0  0  0  0  0  0  0  0  0
    1.7547  -10.3484   -0.2681 C   0  0  0  0  0  0  0  0  0  0  0  0
    1.8153   -9.2312    0.6582 C   0  0  1  0  0  0  0  0  0  0  0  0
    2.0412   -8.0182    0.3910 C   0  0  0  0  0  0  0  0  0  0  0  0
    2.2720   -8.0216   -0.9293 C   0  0  0  0  0  0  0  0  0  0  0  0
    0.9215  -11.9947    2.8980 C   0  0  0  0  0  0  0  0  0  0  0  0
    1.3496  -13.3830    2.8336 C   0  0  0  0  0  0  0  0  0  0  0  0
    0.3660  -14.3351    2.7432 N   0  0  0  0  0  0  0  0  0  0  0  0
   -0.8101  -14.1011    2.6315 C   0  0  0  0  0  0  0  0  0  0  0  0
    0.9685  -15.7187    2.8153 C   0  0  0  0  0  0  0  0  0  0  0  0
    2.2783  -15.9250    2.8521 C   0  0  0  0  0  0  0  0  0  0  0  0
    0.3117  -16.4910    3.8579 O   0  0  0  0  0  0  0  0  0  0  0  0
    1.9208   -7.0338    1.1923 O   0  0  0  0  0  0  0  0  0  0  0  0
  1  2  1  0
  2  3  2  3
  3  4  1  0
  4  5  1  0
  5  6  1  0
  3  7  1  0
  6  7  1  0
  7  8  1  6
  8  9  1  0
  4 10  1  6
 10 11  1  0
 11 12  1  0
 12 13  1  0
 12 14  1  0
 14 15  1  0
 14 16  2  0
  8 17  2  0
M  END

$$$$
No_3761-/export/home/yangzhenyu/potential_scad_32_flow//YTHDC2/2024-12-06-03-22-00/
     RDKit          3D

 18 20  0  0  0  0  0  0  0  0999 V2000
    1.1787   -8.0297    3.5154 C   0  0  0  0  0  0  0  0  0  0  0  0
    1.1048   -9.2215    3.2892 C   0  0  0  0  0  0  0  0  0  0  0  0
    1.2339   -9.7611    2.0189 C   0  0  0  0  0  0  0  0  0  0  0  0
    1.1954  -11.2312    1.8661 C   0  0  0  0  0  0  0  0  0  0  0  0
    1.5546  -12.1691    2.7931 C   0  0  0  0  0  0  0  0  0  0  0  0
    0.9527   -7.0669    2.3918 C   0  0  0  0  0  0  0  0  0  0  0  0
    1.0618   -7.6392    1.0692 C   0  0  0  0  0  0  0  0  0  0  0  0
    1.2060   -8.9530    0.8578 C   0  0  0  0  0  0  0  0  0  0  0  0
    1.5110  -13.5006    2.3856 C   0  0  0  0  0  0  0  0  0  0  0  0
    1.1461  -13.9087    1.2014 C   0  0  0  0  0  0  0  0  0  0  0  0
    1.2747  -15.3508    0.9152 C   0  0  0  0  0  0  0  0  0  0  0  0
    0.6085  -15.6786   -0.1670 C   0  0  0  0  0  0  0  0  0  0  0  0
   -0.2565  -14.7715   -0.8786 C   0  0  0  0  0  0  0  0  0  0  0  0
   -0.3700  -13.4195   -0.4635 C   0  0  0  0  0  0  0  0  0  0  0  0
    0.3782  -12.9793    0.6249 C   0  0  0  0  0  0  0  0  0  0  0  0
    0.5286  -11.7489    0.7506 N   0  0  0  0  0  0  0  0  0  0  0  0
    1.0272   -5.6074    2.4558 Cl  0  0  0  0  0  0  0  0  0  0  0  0
    1.2181   -9.4997   -0.3831 Cl  0  0  0  0  0  0  0  0  0  0  0  0
  3  4  1  0
  6 17  1  0
  8 18  1  0
  1  2  2  0
  2  3  1  0
  3  8  2  0
  7  8  1  0
  6  7  2  0
  1  6  1  0
 10 11  1  0
 11 12  2  0
 12 13  1  0
 13 14  2  0
 14 15  1  0
  4  5  2  0
  5  9  1  0
  9 10  2  0
 10 15  1  0
 15 16  2  0
  4 16  1  0
M  END

$$$$
No_3762-/export/home/yangzhenyu/potential_scad_32_flow//YTHDC2/2024-12-06-03-22-00/
     RDKit          3D

 19 20  0  0  0  0  0  0  0  0999 V2000
    1.1787   -8.0297    3.5154 C   0  0  0  0  0  0  0  0  0  0  0  0
    1.1048   -9.2215    3.2892 C   0  0  0  0  0  0  0  0  0  0  0  0
    1.0239   -9.7790    2.0239 C   0  0  0  0  0  0  0  0  0  0  0  0
    1.1393   -9.0211    0.9686 C   0  0  0  0  0  0  0  0  0  0  0  0
    1.4050   -7.6500    1.1251 C   0  0  0  0  0  0  0  0  0  0  0  0
    1.4868   -7.1041    2.3534 C   0  0  0  0  0  0  0  0  0  0  0  0
    0.9659  -10.1420    4.4543 Cl  0  0  0  0  0  0  0  0  0  0  0  0
    0.8016  -11.1600    1.8522 C   0  0  0  0  0  0  0  0  0  0  0  0
    1.9025  -12.0420    1.8175 C   0  0  0  0  0  0  0  0  0  0  0  0
    1.7452  -13.3431    1.5234 C   0  0  0  0  0  0  0  0  0  0  0  0
    0.5821  -13.8203    1.1959 C   0  0  0  0  0  0  0  0  0  0  0  0
   -0.4920  -13.0674    1.1228 C   0  0  0  0  0  0  0  0  0  0  0  0
   -0.3510  -11.6973    1.4110 C   0  0  0  0  0  0  0  0  0  0  0  0
    1.1429   -9.4394   -0.3724 O   0  0  0  0  0  0  0  0  0  0  0  0
   -1.4952  -10.8348    1.2753 C   0  0  0  0  0  0  0  0  0  0  0  0
   -2.2678  -10.4251    2.2796 C   0  0  0  0  0  0  0  0  0  0  0  0
   -2.0159  -11.1309    3.5992 C   0  0  0  0  0  0  0  0  0  0  0  0
   -2.6380  -10.5606    4.6548 C   0  0  0  0  0  0  0  0  0  0  0  0
   -3.4325   -9.5085    4.5674 C   0  0  0  0  0  0  0  0  0  0  0  0
  2  7  1  0
  3  8  1  0
  4 14  1  0
 13 15  1  0
 15 16  2  3
 16 17  1  0
 17 18  2  3
 18 19  1  0
  1  2  2  0
  2  3  1  0
  3  4  2  0
  4  5  1  0
  5  6  2  0
  1  6  1  0
  8  9  2  0
  9 10  1  0
 10 11  2  0
 11 12  1  0
 12 13  2  0
  8 13  1  0
M  END

$$$$
No_3763-/export/home/yangzhenyu/potential_scad_32_flow//YTHDC2/2024-12-06-03-22-00/
     RDKit          3D

 18 19  0  0  1  0  0  0  0  0999 V2000
    1.1787   -8.0297    3.5154 C   0  0  0  0  0  0  0  0  0  0  0  0
    1.0491   -6.8434    2.9820 C   0  0  0  0  0  0  0  0  0  0  0  0
    1.9985   -8.9840    2.8958 C   0  0  2  0  0  0  0  0  0  0  0  0
    1.7297   -9.2108    1.6335 C   0  0  0  0  0  0  0  0  0  0  0  0
    1.7343   -8.0566    0.8408 C   0  0  2  0  0  0  0  0  0  0  0  0
    1.0269   -6.8892    1.4456 C   0  0  0  0  0  0  0  0  0  0  0  0
    1.7596   -8.0979   -0.4723 O   0  0  0  0  0  0  0  0  0  0  0  0
    1.9544  -10.3620    3.5567 C   0  0  0  0  0  0  0  0  0  0  0  0
    1.1932  -11.3446    3.2810 C   0  0  0  0  0  0  0  0  0  0  0  0
    1.3691  -12.6155    3.8999 C   0  0  0  0  0  0  0  0  0  0  0  0
    1.3558  -13.6843    2.8666 C   0  0  0  0  0  0  0  0  0  0  0  0
    0.6253  -13.9841    2.0639 C   0  0  0  0  0  0  0  0  0  0  0  0
   -0.1463  -13.2146    1.4701 C   0  0  0  0  0  0  0  0  0  0  0  0
   -0.9220  -13.7142    0.3912 C   0  0  0  0  0  0  0  0  0  0  0  0
   -0.7855  -14.9058   -0.0943 C   0  0  0  0  0  0  0  0  0  0  0  0
    0.0985  -15.7755    0.5050 C   0  0  0  0  0  0  0  0  0  0  0  0
    0.8288  -15.3678    1.5973 C   0  0  0  0  0  0  0  0  0  0  0  0
    1.7890  -16.1870    2.0786 C   0  0  0  0  0  0  0  0  0  0  0  0
  1  2  1  0
  3  1  1  1
  3  4  1  0
  4  5  1  0
  2  6  1  0
  5  6  1  0
  5  7  1  6
  3  8  1  0
  8  9  2  3
  9 10  1  0
 10 11  1  0
 11 12  1  0
 17 18  1  0
 12 13  2  0
 13 14  1  0
 14 15  2  0
 15 16  1  0
 16 17  2  0
 12 17  1  0
M  END

$$$$
No_3764-/export/home/yangzhenyu/potential_scad_32_flow//YTHDC2/2024-12-06-03-22-00/
     RDKit          3D

 17 19  0  0  1  0  0  0  0  0999 V2000
    1.1787   -8.0297    3.5154 C   0  0  0  0  0  0  0  0  0  0  0  0
    1.0491   -6.8434    2.9820 C   0  0  0  0  0  0  0  0  0  0  0  0
    1.9985   -8.9840    2.8958 C   0  0  1  0  0  0  0  0  0  0  0  0
    1.9135  -10.3404    3.6266 C   0  0  0  0  0  0  0  0  0  0  0  0
    1.3291  -11.3908    3.0222 C   0  0  0  0  0  0  0  0  0  0  0  0
    1.2749  -12.5326    3.7562 C   0  0  0  0  0  0  0  0  0  0  0  0
    0.4248   -6.6481    1.7861 N   0  0  0  0  0  0  0  0  0  0  0  0
    1.0870  -13.6789    3.1234 C   0  0  0  0  0  0  0  0  0  0  0  0
    1.0578  -13.6939    1.7122 C   0  0  0  0  0  0  0  0  0  0  0  0
    1.2694  -12.5684    0.9242 C   0  0  0  0  0  0  0  0  0  0  0  0
    1.4075  -11.3898    1.6175 C   0  0  0  0  0  0  0  0  0  0  0  0
    0.0336   -7.5908    1.2085 C   0  0  2  0  0  0  0  0  0  0  0  0
    1.6032  -10.2269    0.9008 C   0  0  0  0  0  0  0  0  0  0  0  0
    1.8272   -9.0149    1.6822 C   0  0  1  0  0  0  0  0  0  0  0  0
    0.7811   -8.5987    0.6167 C   0  0  0  0  0  0  0  0  0  0  0  0
   -1.2288   -7.4691    0.6592 C   0  0  0  0  0  0  0  0  0  0  0  0
   -2.1063   -6.4496    1.0967 O   0  0  0  0  0  0  0  0  0  0  0  0
  1  2  1  0
  3  1  1  1
  3  4  1  0
  4  5  1  0
  2  7  1  0
  7 12  1  0
 11 13  1  0
  3 14  1  0
 14 13  1  1
 12 15  1  0
 14 15  1  0
 12 16  1  6
 16 17  2  0
  5  6  2  0
  6  8  1  0
  8  9  2  0
  9 10  1  0
 10 11  2  0
  5 11  1  0
M  END

$$$$
No_3765-/export/home/yangzhenyu/potential_scad_32_flow//YTHDC2/2024-12-06-03-22-00/
     RDKit          3D

 19 19  0  0  1  0  0  0  0  0999 V2000
    1.1787   -8.0297    3.5154 C   0  0  0  0  0  0  0  0  0  0  0  0
    1.1048   -9.2215    3.2892 C   0  0  0  0  0  0  0  0  0  0  0  0
    1.2339   -9.7611    2.0189 C   0  0  0  0  0  0  0  0  0  0  0  0
    1.1954  -11.2312    1.8661 C   0  0  0  0  0  0  0  0  0  0  0  0
    1.5546  -12.1691    2.7931 C   0  0  0  0  0  0  0  0  0  0  0  0
    0.5849   -7.0929    2.5729 C   0  0  0  0  0  0  0  0  0  0  0  0
    0.5651   -5.6716    2.6680 C   0  0  0  0  0  0  0  0  0  0  0  0
    1.5967   -4.9664    3.3918 C   0  0  0  0  0  0  0  0  0  0  0  0
    1.4516  -13.4995    2.4920 C   0  0  2  0  0  0  0  0  0  0  0  0
    0.9791  -13.9176    1.3072 C   0  0  0  0  0  0  0  0  0  0  0  0
    0.8812  -15.3824    1.1672 C   0  0  0  0  0  0  0  0  0  0  0  0
    0.1711  -15.8833    1.8358 C   0  0  0  0  0  0  0  0  0  0  0  0
    0.1990  -15.5037    3.3770 C   0  0  0  0  0  0  0  0  0  0  0  0
    0.8030  -14.2537    3.5456 C   0  0  0  0  0  0  0  0  0  0  0  0
   -0.0302  -16.3836    4.3148 O   0  0  0  0  0  0  0  0  0  0  0  0
    1.4228   -9.0194    0.7059 C   0  0  0  0  0  0  0  0  0  0  0  0
    0.3506   -8.8900   -0.0629 N   0  0  0  0  0  0  0  0  0  0  0  0
    2.6210   -8.7551    0.2194 O   0  0  0  0  0  0  0  0  0  0  0  0
   -0.2970   -4.9449    1.8769 C   0  0  0  0  0  0  0  0  0  0  0  0
  1  2  1  0
  2  3  2  3
  3  4  1  0
  4  5  1  0
  1  6  2  3
  6  7  1  0
  7  8  1  0
  9 10  1  0
 10 11  1  0
 12 13  1  0
  9 14  1  0
 13 14  1  0
 13 15  2  0
  3 16  1  0
 16 17  1  0
 16 18  2  0
  7 19  1  0
  9  5  1  1
 11 12  1  0
M  END

$$$$
No_3766-/export/home/yangzhenyu/potential_scad_32_flow//YTHDC2/2024-12-06-03-22-00/
     RDKit          3D

 19 20  0  0  1  0  0  0  0  0999 V2000
    1.1787   -8.0297    3.5154 C   0  0  0  0  0  0  0  0  0  0  0  0
    1.0491   -6.8434    2.9820 C   0  0  0  0  0  0  0  0  0  0  0  0
    0.9905   -9.0774    2.6527 C   0  0  0  0  0  0  0  0  0  0  0  0
    0.7897   -8.9519    1.3691 C   0  0  0  0  0  0  0  0  0  0  0  0
    0.7018   -7.7198    0.7892 C   0  0  0  0  0  0  0  0  0  0  0  0
    0.8918   -6.5957    1.6117 C   0  0  0  0  0  0  0  0  0  0  0  0
    1.0711  -10.4814    3.2282 C   0  0  2  0  0  0  0  0  0  0  0  0
    2.1432  -11.0138    3.5962 C   0  0  0  0  0  0  0  0  0  0  0  0
   -0.0553  -11.2345    3.2841 C   0  0  0  0  0  0  0  0  0  0  0  0
   -1.2156  -10.5474    3.8659 C   0  0  0  0  0  0  0  0  0  0  0  0
   -2.4298  -10.5507    3.5126 C   0  0  0  0  0  0  0  0  0  0  0  0
   -2.7367  -11.5737    2.7091 C   0  0  0  0  0  0  0  0  0  0  0  0
   -1.7753  -12.3128    2.0548 C   0  0  0  0  0  0  0  0  0  0  0  0
   -0.4511  -12.1275    2.3307 C   0  0  0  0  0  0  0  0  0  0  0  0
    0.9011   -5.2937    1.0853 O   0  0  0  0  0  0  0  0  0  0  0  0
    2.1811  -11.7233    4.8686 N   0  0  0  0  0  0  0  0  0  0  0  0
    0.5508  -12.8213    1.6660 C   0  0  0  0  0  0  0  0  0  0  0  0
    1.1724  -12.4918    0.5527 O   0  0  0  0  0  0  0  0  0  0  0  0
    1.3502  -11.7804    5.4399 H   0  0  0  0  0  0  0  0  0  0  0  0
  7  3  1  6
  7  8  1  0
  7  9  1  0
  6 15  1  0
  8 16  2  0
 14 17  1  0
 17 18  2  0
  1  2  2  0
  2  6  1  0
  5  6  2  0
  4  5  1  0
  3  4  2  0
  1  3  1  0
  9 10  2  0
 10 11  1  0
 11 12  2  0
 12 13  1  0
 13 14  2  0
  9 14  1  0
 16 19  1  0
M  END

$$$$
No_3767-/export/home/yangzhenyu/potential_scad_32_flow//YTHDC2/2024-12-06-03-22-00/
     RDKit          3D

 17 17  0  0  1  0  0  0  0  0999 V2000
    1.1787   -8.0297    3.5154 C   0  0  0  0  0  0  0  0  0  0  0  0
    1.0491   -6.8434    2.9820 C   0  0  0  0  0  0  0  0  0  0  0  0
    1.9985   -8.9840    2.8958 C   0  0  2  0  0  0  0  0  0  0  0  0
    1.7297   -9.2108    1.6335 C   0  0  0  0  0  0  0  0  0  0  0  0
    1.7343   -8.0566    0.8408 C   0  0  1  0  0  0  0  0  0  0  0  0
    1.4996   -6.5076    2.0364 C   0  0  0  0  0  0  0  0  0  0  0  0
    1.3782   -5.0711    2.0043 C   0  0  0  0  0  0  0  0  0  0  0  0
    1.6369   -7.0620    0.8778 C   0  0  0  0  0  0  0  0  0  0  0  0
    2.2105   -8.7052   -0.6638 C   0  0  0  0  0  0  0  0  0  0  0  0
    2.6967   -9.8647   -0.8115 O   0  0  0  0  0  0  0  0  0  0  0  0
    2.1900   -8.1230   -1.7475 O   0  0  0  0  0  0  0  0  0  0  0  0
    1.8754  -10.4412    3.5457 C   0  0  0  0  0  0  0  0  0  0  0  0
    0.9163  -11.2526    3.4132 O   0  0  0  0  0  0  0  0  0  0  0  0
    2.9144  -10.7557    4.3677 N   0  0  0  0  0  0  0  0  0  0  0  0
    1.1685   -4.3564    3.1947 C   0  0  0  0  0  0  0  0  0  0  0  0
    0.7479   -2.9788    3.1604 C   0  0  0  0  0  0  0  0  0  0  0  0
    0.4849   -2.4514    1.8057 C   0  0  0  0  0  0  0  0  0  0  0  0
  1  2  1  0
  1  3  1  0
  3  4  1  0
  4  5  1  0
  2  6  1  0
  6  7  2  3
  5  8  1  0
  6  8  1  0
  5  9  1  1
  9 10  2  0
  9 11  1  0
  3 12  1  1
 12 13  2  0
 12 14  1  0
  7 15  1  0
 15 16  2  3
 16 17  1  0
M  END

$$$$
No_3768-/export/home/yangzhenyu/potential_scad_32_flow//YTHDC2/2024-12-06-03-22-00/
     RDKit          3D

 17 18  0  0  0  0  0  0  0  0999 V2000
    1.1787   -8.0297    3.5154 C   0  0  0  0  0  0  0  0  0  0  0  0
    1.1048   -9.2215    3.2892 C   0  0  0  0  0  0  0  0  0  0  0  0
    1.2339   -9.7611    2.0189 C   0  0  0  0  0  0  0  0  0  0  0  0
    1.4306   -8.9466    1.1170 C   0  0  0  0  0  0  0  0  0  0  0  0
    1.6532   -7.5949    1.1786 C   0  0  0  0  0  0  0  0  0  0  0  0
    1.4973   -7.0739    2.4258 C   0  0  0  0  0  0  0  0  0  0  0  0
    1.4438   -5.6890    2.7316 C   0  0  0  0  0  0  0  0  0  0  0  0
    1.2604  -11.3384    1.8135 C   0  0  0  0  0  0  0  0  0  0  0  0
    1.7881  -12.1038    2.6189 C   0  0  0  0  0  0  0  0  0  0  0  0
    1.6122  -13.4926    2.2362 C   0  0  0  0  0  0  0  0  0  0  0  0
    1.0427  -13.8327    1.0795 C   0  0  0  0  0  0  0  0  0  0  0  0
    0.5467  -12.8238    0.1692 C   0  0  0  0  0  0  0  0  0  0  0  0
    0.6157  -11.5327    0.5627 C   0  0  0  0  0  0  0  0  0  0  0  0
    2.1457  -14.4770    3.1042 C   0  0  0  0  0  0  0  0  0  0  0  0
    1.5213  -15.7684    2.7977 O   0  0  0  0  0  0  0  0  0  0  0  0
    0.5238   -4.9441    2.8229 O   0  0  0  0  0  0  0  0  0  0  0  0
    0.4182  -16.1598    3.4934 C   0  0  0  0  0  0  0  0  0  0  0  0
  6  7  1  0
  3  8  1  0
 10 14  1  0
 14 15  1  0
  7 16  2  0
 15 17  1  0
  1  2  2  0
  2  3  1  0
  3  4  2  0
  4  5  1  0
  5  6  2  0
  1  6  1  0
  8  9  2  0
  9 10  1  0
 10 11  2  0
 11 12  1  0
 12 13  2  0
  8 13  1  0
M  END

$$$$
No_3769-/export/home/yangzhenyu/potential_scad_32_flow//YTHDC2/2024-12-06-03-22-00/
     RDKit          3D

 20 21  0  0  0  0  0  0  0  0999 V2000
    1.1787   -8.0297    3.5154 C   0  0  0  0  0  0  0  0  0  0  0  0
    1.1048   -9.2215    3.2892 C   0  0  0  0  0  0  0  0  0  0  0  0
    1.2339   -9.7611    2.0189 C   0  0  0  0  0  0  0  0  0  0  0  0
    1.3583   -9.0036    0.9764 C   0  0  0  0  0  0  0  0  0  0  0  0
    1.5996   -7.6362    1.1311 C   0  0  0  0  0  0  0  0  0  0  0  0
    1.4830   -7.0928    2.3626 C   0  0  0  0  0  0  0  0  0  0  0  0
    1.5395   -5.7300    2.6182 C   0  0  0  0  0  0  0  0  0  0  0  0
    1.1775  -11.2233    1.8407 C   0  0  0  0  0  0  0  0  0  0  0  0
    0.7252  -11.5870    0.5412 C   0  0  0  0  0  0  0  0  0  0  0  0
    0.5994  -13.0100    0.4511 C   0  0  0  0  0  0  0  0  0  0  0  0
    0.9545  -13.8873    1.4441 C   0  0  0  0  0  0  0  0  0  0  0  0
    1.4784  -13.3975    2.6594 C   0  0  0  0  0  0  0  0  0  0  0  0
    1.5766  -12.0395    2.8885 C   0  0  0  0  0  0  0  0  0  0  0  0
    2.1060  -11.5923    3.9798 C   0  0  0  0  0  0  0  0  0  0  0  0
    1.3144   -4.8010    1.6581 O   0  0  0  0  0  0  0  0  0  0  0  0
    1.4529   -5.1966    3.9079 O   0  0  0  0  0  0  0  0  0  0  0  0
    3.2626  -10.9724    4.0739 N   0  0  0  0  0  0  0  0  0  0  0  0
    3.8378  -10.9207    5.4065 C   0  0  0  0  0  0  0  0  0  0  0  0
    5.1834  -11.1062    5.4762 O   0  0  0  0  0  0  0  0  0  0  0  0
    3.2577  -10.4062    6.3707 O   0  0  0  0  0  0  0  0  0  0  0  0
  6  7  1  0
  3  8  1  0
 13 14  1  0
  7 15  2  0
  7 16  1  0
 14 17  1  0
 17 18  1  0
 18 19  1  0
 18 20  2  0
  1  2  2  0
  2  3  1  0
  3  4  2  0
  4  5  1  0
  5  6  2  0
  1  6  1  0
  8  9  2  0
  9 10  1  0
 10 11  2  0
 11 12  1  0
 12 13  2  0
  8 13  1  0
M  END

$$$$
No_3770-/export/home/yangzhenyu/potential_scad_32_flow//YTHDC2/2024-12-06-03-22-00/
     RDKit          3D

 18 19  0  0  1  0  0  0  0  0999 V2000
    1.1787   -8.0297    3.5154 C   0  0  0  0  0  0  0  0  0  0  0  0
    1.1048   -9.2215    3.2892 C   0  0  0  0  0  0  0  0  0  0  0  0
    1.2339   -9.7611    2.0189 C   0  0  0  0  0  0  0  0  0  0  0  0
    1.3583   -9.0036    0.9764 C   0  0  0  0  0  0  0  0  0  0  0  0
    1.5996   -7.6362    1.1311 C   0  0  0  0  0  0  0  0  0  0  0  0
    1.4830   -7.0928    2.3626 C   0  0  0  0  0  0  0  0  0  0  0  0
    1.1171  -11.3311    1.8661 C   0  0  0  0  0  0  0  0  0  0  0  0
    0.5042  -11.9974    2.3631 C   0  0  0  0  0  0  0  0  0  0  0  0
   -0.5114  -11.5127    3.3905 C   0  0  0  0  0  0  0  0  0  0  0  0
    0.2645  -13.4361    2.0658 C   0  0  2  0  0  0  0  0  0  0  0  0
   -0.7057  -13.9135    1.5335 C   0  0  0  0  0  0  0  0  0  0  0  0
   -1.4861  -13.1761    0.7285 C   0  0  0  0  0  0  0  0  0  0  0  0
   -2.6157  -12.7278    1.1480 C   0  0  0  0  0  0  0  0  0  0  0  0
   -3.4479  -11.8958    0.3346 C   0  0  0  0  0  0  0  0  0  0  0  0
   -3.7194  -11.9708   -0.8217 C   0  0  0  0  0  0  0  0  0  0  0  0
   -2.5370  -12.6794   -1.5806 C   0  0  0  0  0  0  0  0  0  0  0  0
   -1.5003  -13.2798   -0.8270 C   0  0  0  0  0  0  0  0  0  0  0  0
    1.3572  -14.1773    2.6539 C   0  0  0  0  0  0  0  0  0  0  0  0
  3  7  1  0
  7  8  2  3
  8  9  1  0
  8 10  1  0
 10 11  1  0
 11 12  1  0
 10 18  1  1
 12 13  2  0
 13 14  1  0
 14 15  2  0
 15 16  1  0
 16 17  2  0
 12 17  1  0
  1  2  2  0
  2  3  1  0
  3  4  2  0
  4  5  1  0
  5  6  2  0
  1  6  1  0
M  END

$$$$
No_3771-/export/home/yangzhenyu/potential_scad_32_flow//YTHDC2/2024-12-06-03-22-00/
     RDKit          3D

 18 18  0  0  0  0  0  0  0  0999 V2000
    1.1787   -8.0297    3.5154 O   0  0  0  0  0  0  0  0  0  0  0  0
    0.6747   -7.4019    2.7838 C   0  0  0  0  0  0  0  0  0  0  0  0
    0.7594   -8.0032    1.4295 C   0  0  0  0  0  0  0  0  0  0  0  0
    0.3459   -9.1500    1.3581 C   0  0  0  0  0  0  0  0  0  0  0  0
   -0.4155   -9.6726    2.0241 C   0  0  0  0  0  0  0  0  0  0  0  0
   -0.6245  -11.1539    1.8966 C   0  0  0  0  0  0  0  0  0  0  0  0
    0.1125  -11.8282    0.9857 C   0  0  0  0  0  0  0  0  0  0  0  0
    1.0108  -11.2152    0.1796 C   0  0  0  0  0  0  0  0  0  0  0  0
    1.3330   -9.9204    0.3294 C   0  0  0  0  0  0  0  0  0  0  0  0
    1.3282   -5.9590    2.8514 O   0  0  0  0  0  0  0  0  0  0  0  0
    2.1136   -9.3115   -0.6179 O   0  0  0  0  0  0  0  0  0  0  0  0
   -1.5929  -11.8703    2.7474 C   0  0  0  0  0  0  0  0  0  0  0  0
   -2.3910  -11.2081    3.4509 O   0  0  0  0  0  0  0  0  0  0  0  0
   -1.2916  -13.0965    3.0300 N   0  0  0  0  0  0  0  0  0  0  0  0
   -0.1716  -13.8097    2.9955 C   0  0  0  0  0  0  0  0  0  0  0  0
    0.9502  -13.3938    3.7498 C   0  0  0  0  0  0  0  0  0  0  0  0
    2.0775  -14.2800    3.3458 C   0  0  0  0  0  0  0  0  0  0  0  0
    1.7820  -15.3305    2.4407 C   0  0  0  0  0  0  0  0  0  0  0  0
  1  2  1  0
  2  3  1  0
  3  4  1  0
  2 10  2  0
  9 11  1  0
  6 12  1  0
 12 13  2  0
 12 14  1  0
 14 15  1  0
 15 16  1  0
 16 17  2  3
 17 18  1  0
  4  5  2  0
  5  6  1  0
  6  7  2  0
  7  8  1  0
  8  9  2  0
  4  9  1  0
M  END

$$$$
No_3772-/export/home/yangzhenyu/potential_scad_32_flow//YTHDC2/2024-12-06-03-22-00/
     RDKit          3D

 19 19  0  0  1  0  0  0  0  0999 V2000
    1.1787   -8.0297    3.5154 N   0  0  0  0  0  0  0  0  0  0  0  0
    1.0818   -9.0751    3.2053 C   0  0  0  0  0  0  0  0  0  0  0  0
    0.7576   -9.3725    1.9159 C   0  0  0  0  0  0  0  0  0  0  0  0
    0.8823   -8.4917    1.0547 C   0  0  0  0  0  0  0  0  0  0  0  0
    1.4631   -7.3107    1.2451 C   0  0  0  0  0  0  0  0  0  0  0  0
    1.6470   -6.9326    2.5669 C   0  0  0  0  0  0  0  0  0  0  0  0
    0.8237  -10.1305    4.2407 C   0  0  2  0  0  0  0  0  0  0  0  0
    1.7644  -11.1125    4.2479 C   0  0  0  0  0  0  0  0  0  0  0  0
    0.8446   -8.8698   -0.4314 C   0  0  0  0  0  0  0  0  0  0  0  0
   -0.5060   -9.1306   -0.7110 O   0  0  0  0  0  0  0  0  0  0  0  0
    1.4759   -8.5706   -1.3681 O   0  0  0  0  0  0  0  0  0  0  0  0
    2.8699  -10.9661    4.4066 C   0  0  0  0  0  0  0  0  0  0  0  0
   -0.4391  -10.0640    4.8530 C   0  0  0  0  0  0  0  0  0  0  0  0
   -1.3028   -8.9594    4.7499 O   0  0  0  0  0  0  0  0  0  0  0  0
   -1.0256  -11.1474    5.2545 O   0  0  0  0  0  0  0  0  0  0  0  0
    1.2844  -12.4639    3.8647 C   0  0  0  0  0  0  0  0  0  0  0  0
    1.5542  -13.2231    2.9349 C   0  0  0  0  0  0  0  0  0  0  0  0
    1.0139  -14.0437    2.3521 C   0  0  0  0  0  0  0  0  0  0  0  0
    1.0429  -15.4833    2.7615 C   0  0  0  0  0  0  0  0  0  0  0  0
  2  7  1  0
  7  8  1  6
  4  9  1  0
  9 10  2  0
  9 11  1  0
  8 12  2  0
  7 13  1  0
 13 14  1  0
 13 15  2  0
  8 16  1  0
 16 17  2  3
 17 18  1  0
 18 19  1  0
  1  2  2  0
  2  3  1  0
  3  4  2  0
  4  5  1  0
  5  6  2  0
  1  6  1  0
M  END

$$$$
No_3773-/export/home/yangzhenyu/potential_scad_32_flow//YTHDC2/2024-12-06-03-22-00/
     RDKit          3D

 20 22  0  0  1  0  0  0  0  0999 V2000
    1.1787   -8.0297    3.5154 C   0  0  0  0  0  0  0  0  0  0  0  0
    1.0491   -6.8434    2.9820 C   0  0  0  0  0  0  0  0  0  0  0  0
    0.9905   -9.0774    2.6527 C   0  0  0  0  0  0  0  0  0  0  0  0
    0.7897   -8.9519    1.3691 C   0  0  0  0  0  0  0  0  0  0  0  0
    0.7018   -7.7198    0.7892 C   0  0  0  0  0  0  0  0  0  0  0  0
    0.8918   -6.5957    1.6117 C   0  0  0  0  0  0  0  0  0  0  0  0
    1.0998  -10.4710    3.2437 C   0  0  1  0  0  0  0  0  0  0  0  0
    2.1917  -10.8879    3.7399 C   0  0  0  0  0  0  0  0  0  0  0  0
    0.8983   -5.2566    1.2088 C   0  0  0  0  0  0  0  0  0  0  0  0
   -0.0163  -11.2298    3.3739 C   0  0  0  0  0  0  0  0  0  0  0  0
   -0.0826  -12.5020    3.1762 C   0  0  0  0  0  0  0  0  0  0  0  0
   -1.0176  -13.1140    2.4765 C   0  0  0  0  0  0  0  0  0  0  0  0
   -2.2922  -12.5159    2.6556 C   0  0  0  0  0  0  0  0  0  0  0  0
   -2.4380  -11.2383    3.1339 C   0  0  0  0  0  0  0  0  0  0  0  0
   -1.2838  -10.5372    3.5075 C   0  0  0  0  0  0  0  0  0  0  0  0
   -0.2043   -4.7427    0.7547 C   0  0  0  0  0  0  0  0  0  0  0  0
   -0.3024   -3.3845    0.3953 C   0  0  0  0  0  0  0  0  0  0  0  0
    0.6074   -2.4545    1.0017 C   0  0  0  0  0  0  0  0  0  0  0  0
    1.7035   -2.9744    1.7211 C   0  0  0  0  0  0  0  0  0  0  0  0
    1.8568   -4.3180    1.8839 C   0  0  0  0  0  0  0  0  0  0  0  0
  3  7  1  0
  7  8  1  1
  6  9  1  0
  7 10  1  0
  1  2  2  0
  2  6  1  0
  5  6  2  0
  4  5  1  0
  3  4  2  0
  1  3  1  0
  9 16  2  0
 16 17  1  0
 17 18  2  0
 18 19  1  0
 19 20  2  0
  9 20  1  0
 10 11  2  0
 11 12  1  0
 12 13  2  0
 13 14  1  0
 14 15  2  0
 10 15  1  0
M  END

$$$$
No_3774-/export/home/yangzhenyu/potential_scad_32_flow//YTHDC2/2024-12-06-03-22-00/
     RDKit          3D

 18 19  0  0  1  0  0  0  0  0999 V2000
    1.1787   -8.0297    3.5154 C   0  0  0  0  0  0  0  0  0  0  0  0
    1.1048   -9.2215    3.2892 C   0  0  0  0  0  0  0  0  0  0  0  0
    1.2339   -9.7611    2.0189 C   0  0  0  0  0  0  0  0  0  0  0  0
    1.3583   -9.0036    0.9764 C   0  0  0  0  0  0  0  0  0  0  0  0
    1.5996   -7.6362    1.1311 C   0  0  0  0  0  0  0  0  0  0  0  0
    1.4830   -7.0928    2.3626 C   0  0  0  0  0  0  0  0  0  0  0  0
    1.1171  -11.3311    1.8661 C   0  0  0  0  0  0  0  0  0  0  0  0
    0.5042  -11.9974    2.3631 C   0  0  0  0  0  0  0  0  0  0  0  0
    0.4547  -13.3874    2.1599 C   0  0  2  0  0  0  0  0  0  0  0  0
   -0.5486  -14.0819    1.9700 C   0  0  0  0  0  0  0  0  0  0  0  0
    1.7468  -14.0638    2.3299 C   0  0  0  0  0  0  0  0  0  0  0  0
    1.5725   -5.6550    2.6422 C   0  0  0  0  0  0  0  0  0  0  0  0
   -0.5376  -15.5829    1.9371 C   0  0  0  0  0  0  0  0  0  0  0  0
    0.7315  -16.1556    2.1693 C   0  0  2  0  0  0  0  0  0  0  0  0
    1.8891  -15.4216    2.3480 C   0  0  0  0  0  0  0  0  0  0  0  0
    0.8735  -17.5406    2.1287 C   0  0  0  0  0  0  0  0  0  0  0  0
    0.1980  -18.3449    1.7028 C   0  0  0  0  0  0  0  0  0  0  0  0
    3.1042  -15.8763    2.5357 O   0  0  0  0  0  0  0  0  0  0  0  0
  3  7  1  0
  7  8  2  3
  8  9  1  0
  9 10  1  1
  9 11  1  0
  6 12  1  0
 13 14  1  0
 11 15  1  0
 14 15  1  0
 14 16  1  6
 16 17  2  0
 15 18  2  0
 10 13  1  0
  1  2  2  0
  2  3  1  0
  3  4  2  0
  4  5  1  0
  5  6  2  0
  1  6  1  0
M  END

$$$$
No_3775-/export/home/yangzhenyu/potential_scad_32_flow//YTHDC2/2024-12-06-03-22-00/
     RDKit          3D

 18 19  0  0  1  0  0  0  0  0999 V2000
    1.1787   -8.0297    3.5154 N   0  0  0  0  0  0  0  0  0  0  0  0
    1.0818   -9.0751    3.2053 C   0  0  0  0  0  0  0  0  0  0  0  0
    1.5216  -10.1164    3.9747 C   0  0  0  0  0  0  0  0  0  0  0  0
    1.4420  -11.4363    3.6461 C   0  0  0  0  0  0  0  0  0  0  0  0
    0.5969  -11.7648    2.6785 C   0  0  0  0  0  0  0  0  0  0  0  0
    0.0096  -10.8332    1.9506 C   0  0  0  0  0  0  0  0  0  0  0  0
    0.3359   -9.5186    2.1388 C   0  0  0  0  0  0  0  0  0  0  0  0
    0.8819   -6.9011    2.6487 C   0  0  2  0  0  0  0  0  0  0  0  0
    0.4076   -7.2265    1.4607 C   0  0  0  0  0  0  0  0  0  0  0  0
    0.0604   -8.4780    1.1746 C   0  0  0  0  0  0  0  0  0  0  0  0
   -0.5471   -8.7214    0.0063 O   0  0  0  0  0  0  0  0  0  0  0  0
    1.3200   -5.5677    3.1055 C   0  0  0  0  0  0  0  0  0  0  0  0
    0.0301   -6.2207    0.7116 O   0  0  0  0  0  0  0  0  0  0  0  0
    0.3215  -13.4154    2.3352 C   0  0  0  0  0  0  0  0  0  0  0  0
    1.2987  -14.1986    2.8446 C   0  0  0  0  0  0  0  0  0  0  0  0
    0.9518  -15.5931    2.7965 C   0  0  0  0  0  0  0  0  0  0  0  0
   -0.0850  -16.0089    2.2772 C   0  0  0  0  0  0  0  0  0  0  0  0
   -1.0216  -15.1156    1.8057 C   0  0  0  0  0  0  0  0  0  0  0  0
  1  2  1  0
  8  9  1  0
  7 10  1  0
  9 10  1  0
 10 11  2  0
  8 12  1  6
  9 13  2  0
  5 14  1  0
 14 15  1  0
 15 16  2  3
 16 17  1  0
 17 18  2  0
  1  8  1  0
  2  3  2  0
  3  4  1  0
  4  5  2  0
  5  6  1  0
  6  7  2  0
  2  7  1  0
M  END

$$$$
No_3776-/export/home/yangzhenyu/potential_scad_32_flow//YTHDC2/2024-12-06-03-22-00/
     RDKit          3D

 18 20  0  0  0  0  0  0  0  0999 V2000
    1.1787   -8.0297    3.5154 C   0  0  0  0  0  0  0  0  0  0  0  0
    1.1048   -9.2215    3.2892 C   0  0  0  0  0  0  0  0  0  0  0  0
    1.2339   -9.7611    2.0189 C   0  0  0  0  0  0  0  0  0  0  0  0
    1.3583   -9.0036    0.9764 C   0  0  0  0  0  0  0  0  0  0  0  0
    1.5996   -7.6362    1.1311 C   0  0  0  0  0  0  0  0  0  0  0  0
    1.4830   -7.0928    2.3626 C   0  0  0  0  0  0  0  0  0  0  0  0
    1.1171  -11.3311    1.8661 C   0  0  0  0  0  0  0  0  0  0  0  0
    0.5042  -11.9974    2.3631 C   0  0  0  0  0  0  0  0  0  0  0  0
    0.4547  -13.3874    2.1599 C   0  0  0  0  0  0  0  0  0  0  0  0
   -0.5486  -14.0819    1.9701 C   0  0  0  0  0  0  0  0  0  0  0  0
   -1.8364  -13.6005    2.3037 C   0  0  0  0  0  0  0  0  0  0  0  0
   -2.9877  -14.3876    2.2379 C   0  0  0  0  0  0  0  0  0  0  0  0
   -4.1732  -13.7382    2.6113 C   0  0  0  0  0  0  0  0  0  0  0  0
   -4.2052  -12.4155    3.0650 C   0  0  0  0  0  0  0  0  0  0  0  0
   -3.1185  -11.6643    3.2743 C   0  0  0  0  0  0  0  0  0  0  0  0
   -1.8483  -12.2134    2.8094 C   0  0  0  0  0  0  0  0  0  0  0  0
   -0.8937  -11.7292    2.8767 N   0  0  0  0  0  0  0  0  0  0  0  0
    1.5794   -9.4589   -0.3395 O   0  0  0  0  0  0  0  0  0  0  0  0
  3  7  1  0
  4 18  1  0
  7  8  1  0
 11 12  1  0
 12 13  2  0
 13 14  1  0
 14 15  2  0
 15 16  1  0
  1  2  2  0
  2  3  1  0
  3  4  2  0
  4  5  1  0
  5  6  2  0
  1  6  1  0
  8  9  2  0
  9 10  1  0
 10 11  2  0
 11 16  1  0
 16 17  2  0
  8 17  1  0
M  END

$$$$
No_3777-/export/home/yangzhenyu/potential_scad_32_flow//YTHDC2/2024-12-06-03-22-00/
     RDKit          3D

 11 11  0  0  0  0  0  0  0  0999 V2000
    1.1787   -8.0297    3.5154 C   0  0  0  0  0  0  0  0  0  0  0  0
    1.0491   -6.8434    2.9820 C   0  0  0  0  0  0  0  0  0  0  0  0
    0.9905   -9.0774    2.6527 C   0  0  0  0  0  0  0  0  0  0  0  0
    1.1655  -10.4663    3.1286 Cl  0  0  0  0  0  0  0  0  0  0  0  0
    0.8273   -6.5102    1.6759 C   0  0  0  0  0  0  0  0  0  0  0  0
    0.6416   -7.5016    0.8509 C   0  0  0  0  0  0  0  0  0  0  0  0
    0.6557   -8.8132    1.3112 C   0  0  0  0  0  0  0  0  0  0  0  0
    0.4679  -10.0058    0.3079 C   0  0  0  0  0  0  0  0  0  0  0  0
   -0.6608  -10.3812    0.2025 O   0  0  0  0  0  0  0  0  0  0  0  0
    1.5084  -10.3267   -0.4399 O   0  0  0  0  0  0  0  0  0  0  0  0
    0.8182   -5.1548    1.2456 Cl  0  0  0  0  0  0  0  0  0  0  0  0
  3  4  1  0
  7  8  1  0
  8  9  2  0
  8 10  1  0
  5 11  1  0
  1  2  2  0
  2  5  1  0
  5  6  2  0
  6  7  1  0
  3  7  2  0
  1  3  1  0
M  END

$$$$
No_3778-/export/home/yangzhenyu/potential_scad_32_flow//YTHDC2/2024-12-06-03-22-00/
     RDKit          3D

 18 19  0  0  0  0  0  0  0  0999 V2000
    1.1787   -8.0297    3.5154 C   0  0  0  0  0  0  0  0  0  0  0  0
    1.0491   -6.8434    2.9820 C   0  0  0  0  0  0  0  0  0  0  0  0
    1.9985   -8.9840    2.8958 Cl  0  0  0  0  0  0  0  0  0  0  0  0
    1.6194   -5.7224    3.2766 C   0  0  0  0  0  0  0  0  0  0  0  0
    1.3283   -4.4988    2.6159 C   0  0  0  0  0  0  0  0  0  0  0  0
    0.4730   -4.5651    1.5495 C   0  0  0  0  0  0  0  0  0  0  0  0
    0.0212   -5.6941    1.0353 C   0  0  0  0  0  0  0  0  0  0  0  0
    0.2343   -6.8541    1.7101 C   0  0  0  0  0  0  0  0  0  0  0  0
   -0.2578   -7.9441    1.2542 C   0  0  0  0  0  0  0  0  0  0  0  0
   -1.4486   -8.4472    1.6816 C   0  0  0  0  0  0  0  0  0  0  0  0
   -2.2606   -7.8448    2.5621 C   0  0  0  0  0  0  0  0  0  0  0  0
   -3.3204   -8.4323    3.2556 C   0  0  0  0  0  0  0  0  0  0  0  0
   -3.7420   -9.5766    2.7549 C   0  0  0  0  0  0  0  0  0  0  0  0
   -3.1125  -10.2319    1.7414 C   0  0  0  0  0  0  0  0  0  0  0  0
   -1.9776   -9.7084    1.1829 C   0  0  0  0  0  0  0  0  0  0  0  0
    0.2749   -8.4345    0.1439 O   0  0  0  0  0  0  0  0  0  0  0  0
   -4.8422  -10.3134    3.2741 O   0  0  0  0  0  0  0  0  0  0  0  0
   -5.6442   -9.7200    4.0036 C   0  0  0  0  0  0  0  0  0  0  0  0
  1  2  1  0
  1  3  1  0
  8  9  1  0
  9 10  1  0
  9 16  2  0
 13 17  1  0
 17 18  1  0
 10 11  2  0
 11 12  1  0
 12 13  2  0
 13 14  1  0
 14 15  2  0
 10 15  1  0
  2  4  2  0
  4  5  1  0
  5  6  2  0
  6  7  1  0
  7  8  2  0
  2  8  1  0
M  END

$$$$
No_3779-/export/home/yangzhenyu/potential_scad_32_flow//YTHDC2/2024-12-06-03-22-00/
     RDKit          3D

 20 21  0  0  1  0  0  0  0  0999 V2000
    1.1787   -8.0297    3.5154 C   0  0  0  0  0  0  0  0  0  0  0  0
    1.1048   -9.2215    3.2892 C   0  0  0  0  0  0  0  0  0  0  0  0
    1.0239   -9.7790    2.0239 C   0  0  0  0  0  0  0  0  0  0  0  0
    1.2490   -9.1017    1.1040 C   0  0  0  0  0  0  0  0  0  0  0  0
    1.4566   -9.8111   -0.2709 C   0  0  0  0  0  0  0  0  0  0  0  0
    1.4884   -7.1595    2.2793 C   0  0  0  0  0  0  0  0  0  0  0  0
    1.4956   -7.7449    1.0732 C   0  0  0  0  0  0  0  0  0  0  0  0
    2.1242   -9.3496   -1.1452 O   0  0  0  0  0  0  0  0  0  0  0  0
    0.5208  -10.6424   -0.5267 O   0  0  0  0  0  0  0  0  0  0  0  0
    0.9572  -10.1159    4.4664 C   0  0  0  0  0  0  0  0  0  0  0  0
    1.4716  -11.6100    4.0671 Cl  0  0  0  0  0  0  0  0  0  0  0  0
    1.5303   -5.4251    2.5514 O   0  0  0  0  0  0  0  0  0  0  0  0
    0.5831   -4.8416    2.7709 C   0  0  2  0  0  0  0  0  0  0  0  0
   -0.5042   -5.0389    2.0202 C   0  0  0  0  0  0  0  0  0  0  0  0
    1.1583   -3.3368    2.5804 C   0  0  0  0  0  0  0  0  0  0  0  0
   -0.6479   -4.2832    0.8947 C   0  0  2  0  0  0  0  0  0  0  0  0
    0.0716   -3.0351    1.2245 C   0  0  0  0  0  0  0  0  0  0  0  0
   -1.8699   -3.9296    0.3816 O   0  0  0  0  0  0  0  0  0  0  0  0
   -2.2349   -4.3411   -0.6205 C   0  0  0  0  0  0  0  0  0  0  0  0
   -2.0589   -5.7175   -0.8528 O   0  0  0  0  0  0  0  0  0  0  0  0
  4  5  1  0
  5  8  2  0
  5  9  1  0
  2 10  1  0
 10 11  1  0
  6 12  1  0
 13 12  1  6
 13 14  1  0
 13 15  1  0
 14 16  1  0
 15 17  1  0
 16 17  1  0
 16 18  1  1
 18 19  1  0
 19 20  2  0
  1  2  2  0
  2  3  1  0
  3  4  2  0
  4  7  1  0
  6  7  2  0
  1  6  1  0
M  END

$$$$
No_3780-/export/home/yangzhenyu/potential_scad_32_flow//YTHDC2/2024-12-06-03-22-00/
     RDKit          3D

 17 18  0  0  0  0  0  0  0  0999 V2000
    1.1787   -8.0297    3.5154 C   0  0  0  0  0  0  0  0  0  0  0  0
    1.1048   -9.2215    3.2892 C   0  0  0  0  0  0  0  0  0  0  0  0
    1.3627  -10.1721    4.3044 C   0  0  0  0  0  0  0  0  0  0  0  0
    2.3720  -10.8948    4.2468 C   0  0  0  0  0  0  0  0  0  0  0  0
    1.0579   -7.0441    2.4219 C   0  0  0  0  0  0  0  0  0  0  0  0
    0.8578   -7.4970    1.1686 C   0  0  0  0  0  0  0  0  0  0  0  0
    0.7382   -8.7683    0.8754 C   0  0  0  0  0  0  0  0  0  0  0  0
    0.8882   -9.7347    1.9238 C   0  0  0  0  0  0  0  0  0  0  0  0
    0.9437  -11.0299    1.7005 C   0  0  0  0  0  0  0  0  0  0  0  0
    0.4602  -11.5370    0.8140 O   0  0  0  0  0  0  0  0  0  0  0  0
    2.1042  -11.7736    2.0647 N   0  0  0  0  0  0  0  0  0  0  0  0
    2.3604  -12.0698    3.3428 C   0  0  0  0  0  0  0  0  0  0  0  0
    1.1683   -5.5935    2.6915 F   0  0  0  0  0  0  0  0  0  0  0  0
    2.5097  -13.2460    3.7853 O   0  0  0  0  0  0  0  0  0  0  0  0
    0.5586   -9.1814   -0.3974 C   0  0  0  0  0  0  0  0  0  0  0  0
   -0.8986   -9.2675   -0.8004 O   0  0  0  0  0  0  0  0  0  0  0  0
    1.2852   -9.1455   -1.3855 O   0  0  0  0  0  0  0  0  0  0  0  0
  2  3  1  0
  3  4  1  0
  8  9  1  0
  9 10  2  0
  9 11  1  0
  4 12  1  0
 11 12  1  0
  5 13  1  0
 12 14  2  0
  7 15  1  0
 15 16  2  0
 15 17  1  0
  1  2  2  0
  2  8  1  0
  7  8  2  0
  6  7  1  0
  5  6  2  0
  1  5  1  0
M  END

$$$$
No_3781-/export/home/yangzhenyu/potential_scad_32_flow//YTHDC2/2024-12-06-03-22-00/
     RDKit          3D

 17 19  0  0  0  0  0  0  0  0999 V2000
    1.1787   -8.0297    3.5154 N   0  0  0  0  0  0  0  0  0  0  0  0
    1.0818   -9.0751    3.2053 C   0  0  0  0  0  0  0  0  0  0  0  0
    0.7576   -9.3725    1.9159 C   0  0  0  0  0  0  0  0  0  0  0  0
    0.8823   -8.4917    1.0547 C   0  0  0  0  0  0  0  0  0  0  0  0
    1.4631   -7.3107    1.2451 C   0  0  0  0  0  0  0  0  0  0  0  0
    1.6470   -6.9326    2.5669 C   0  0  0  0  0  0  0  0  0  0  0  0
    0.8237  -10.1305    4.2407 C   0  0  0  0  0  0  0  0  0  0  0  0
    0.5683  -11.4514    3.6849 C   0  0  0  0  0  0  0  0  0  0  0  0
    0.4031  -11.7395    2.5410 C   0  0  0  0  0  0  0  0  0  0  0  0
    0.5649  -10.7352    1.5387 C   0  0  0  0  0  0  0  0  0  0  0  0
    0.2507  -13.0841    2.0741 C   0  0  0  0  0  0  0  0  0  0  0  0
    1.1968  -13.9767    2.3387 C   0  0  0  0  0  0  0  0  0  0  0  0
    2.2010  -14.2218    1.5013 C   0  0  0  0  0  0  0  0  0  0  0  0
    3.0272  -15.2570    1.5723 C   0  0  0  0  0  0  0  0  0  0  0  0
    0.9337  -14.9965    3.2833 C   0  0  0  0  0  0  0  0  0  0  0  0
    2.8254  -16.3208    2.5110 C   0  0  0  0  0  0  0  0  0  0  0  0
    1.7722  -16.2213    3.3732 C   0  0  0  0  0  0  0  0  0  0  0  0
  9 11  1  0
 11 12  1  0
  1  2  2  0
  3  4  2  0
  4  5  1  0
  5  6  2  0
  1  6  1  0
 12 13  2  0
 13 14  1  0
 14 16  2  0
 16 17  1  0
 15 17  2  0
 12 15  1  0
  2  3  1  0
  3 10  1  0
  9 10  2  0
  8  9  1  0
  7  8  2  0
  2  7  1  0
M  END

$$$$
No_3782-/export/home/yangzhenyu/potential_scad_32_flow//YTHDC2/2024-12-06-03-22-00/
     RDKit          3D

 20 21  0  0  0  0  0  0  0  0999 V2000
    1.1787   -8.0297    3.5154 O   0  0  0  0  0  0  0  0  0  0  0  0
    0.9969   -8.9689    3.0048 C   0  0  0  0  0  0  0  0  0  0  0  0
    0.9976   -8.9567    1.6341 C   0  0  0  0  0  0  0  0  0  0  0  0
    1.6062   -9.9071    0.9292 C   0  0  0  0  0  0  0  0  0  0  0  0
    2.1191  -10.9757    1.6503 C   0  0  0  0  0  0  0  0  0  0  0  0
    1.7235  -10.9586    3.1423 C   0  0  0  0  0  0  0  0  0  0  0  0
    1.3712   -9.9249    3.6869 C   0  0  0  0  0  0  0  0  0  0  0  0
    0.7465   -7.7242    1.0062 C   0  0  0  0  0  0  0  0  0  0  0  0
   -0.0314   -7.9951    0.0054 O   0  0  0  0  0  0  0  0  0  0  0  0
    1.0789   -6.5104    1.1666 N   0  0  0  0  0  0  0  0  0  0  0  0
    2.1936  -12.2054    3.7999 C   0  0  0  0  0  0  0  0  0  0  0  0
    1.6311  -13.3464    3.1489 N   0  0  0  0  0  0  0  0  0  0  0  0
    0.3624  -13.7546    3.1356 C   0  0  0  0  0  0  0  0  0  0  0  0
    0.1960  -15.1211    2.7274 C   0  0  0  0  0  0  0  0  0  0  0  0
   -1.1064  -15.5711    2.7027 C   0  0  0  0  0  0  0  0  0  0  0  0
   -2.0339  -14.5248    2.6505 C   0  0  0  0  0  0  0  0  0  0  0  0
   -1.7757  -13.1974    2.8187 C   0  0  0  0  0  0  0  0  0  0  0  0
   -0.5098  -12.8133    3.0714 C   0  0  0  0  0  0  0  0  0  0  0  0
    0.6204   -5.3769    0.8608 C   0  0  0  0  0  0  0  0  0  0  0  0
    0.9484   -4.1613    1.5739 C   0  0  0  0  0  0  0  0  0  0  0  0
  1  2  1  0
  3  8  1  0
  8  9  2  0
  8 10  1  0
  6 11  1  0
 11 12  1  0
 12 13  1  0
 10 19  1  0
 19 20  1  0
  2  3  2  0
  3  4  1  0
  4  5  2  0
  5  6  1  0
  6  7  2  0
  2  7  1  0
 13 14  2  0
 14 15  1  0
 15 16  2  0
 16 17  1  0
 17 18  2  0
 13 18  1  0
M  END

$$$$
No_3783-/export/home/yangzhenyu/potential_scad_32_flow//YTHDC2/2024-12-06-03-22-00/
     RDKit          3D

 19 20  0  0  0  0  0  0  0  0999 V2000
    1.1787   -8.0297    3.5154 C   0  0  0  0  0  0  0  0  0  0  0  0
    1.0491   -6.8434    2.9820 C   0  0  0  0  0  0  0  0  0  0  0  0
    1.9985   -8.9840    2.8958 C   0  0  0  0  0  0  0  0  0  0  0  0
    1.9135  -10.3404    3.6266 C   0  0  0  0  0  0  0  0  0  0  0  0
    1.3291  -11.3908    3.0222 C   0  0  0  0  0  0  0  0  0  0  0  0
    1.2749  -12.5326    3.7562 C   0  0  0  0  0  0  0  0  0  0  0  0
    1.2373   -6.5190    1.7857 C   0  0  0  0  0  0  0  0  0  0  0  0
    0.2323   -6.5712    1.0214 N   0  0  0  0  0  0  0  0  0  0  0  0
    1.0878  -13.6750    3.1436 C   0  0  0  0  0  0  0  0  0  0  0  0
    1.0594  -13.7032    1.7261 C   0  0  0  0  0  0  0  0  0  0  0  0
    1.3181  -12.6533    0.9766 C   0  0  0  0  0  0  0  0  0  0  0  0
    1.4273  -11.4057    1.6256 C   0  0  0  0  0  0  0  0  0  0  0  0
   -0.1904   -7.6921    0.5323 C   0  0  0  0  0  0  0  0  0  0  0  0
    0.7207   -8.4894   -0.1047 C   0  0  0  0  0  0  0  0  0  0  0  0
    0.1036   -9.6985   -0.8020 C   0  0  0  0  0  0  0  0  0  0  0  0
   -1.1799   -9.8095   -0.8432 C   0  0  0  0  0  0  0  0  0  0  0  0
   -2.0367   -8.9779   -0.3232 C   0  0  0  0  0  0  0  0  0  0  0  0
   -1.5113   -7.8524    0.4442 C   0  0  0  0  0  0  0  0  0  0  0  0
   -1.7731  -10.9323   -1.5894 C   0  0  0  0  0  0  0  0  0  0  0  0
  1  2  1  0
  1  3  1  0
  3  4  1  0
  4  5  1  0
  2  7  1  0
  7  8  1  0
  8 13  1  0
 16 19  1  0
 13 14  2  0
 14 15  1  0
 15 16  2  0
 16 17  1  0
 17 18  2  0
 13 18  1  0
  5  6  2  0
  6  9  1  0
  9 10  2  0
 10 11  1  0
 11 12  2  0
  5 12  1  0
M  END

$$$$
No_3784-/export/home/yangzhenyu/potential_scad_32_flow//YTHDC2/2024-12-06-03-22-00/
     RDKit          3D

 18 19  0  0  0  0  0  0  0  0999 V2000
    1.1787   -8.0297    3.5154 C   0  0  0  0  0  0  0  0  0  0  0  0
    1.0491   -6.8434    2.9820 C   0  0  0  0  0  0  0  0  0  0  0  0
    0.0950   -8.8404    3.2292 C   0  0  0  0  0  0  0  0  0  0  0  0
   -0.9173   -8.4596    2.5152 C   0  0  0  0  0  0  0  0  0  0  0  0
   -1.0331   -7.2162    2.0653 C   0  0  0  0  0  0  0  0  0  0  0  0
   -0.0105   -6.3168    2.3081 C   0  0  0  0  0  0  0  0  0  0  0  0
    0.1465  -10.2446    3.6981 C   0  0  0  0  0  0  0  0  0  0  0  0
    1.2433  -10.8239    4.0166 C   0  0  0  0  0  0  0  0  0  0  0  0
    1.1033  -12.2936    4.0346 C   0  0  0  0  0  0  0  0  0  0  0  0
    0.0220  -12.9035    3.7006 C   0  0  0  0  0  0  0  0  0  0  0  0
   -1.0373  -12.2681    3.2608 C   0  0  0  0  0  0  0  0  0  0  0  0
   -1.0058  -10.9076    3.2655 C   0  0  0  0  0  0  0  0  0  0  0  0
   -0.1246   -5.0088    1.8408 C   0  0  0  0  0  0  0  0  0  0  0  0
    0.7122   -4.0193    2.3391 N   0  0  0  0  0  0  0  0  0  0  0  0
   -1.0417   -4.5373    1.0763 O   0  0  0  0  0  0  0  0  0  0  0  0
    1.6443   -4.2328    3.4131 C   0  0  0  0  0  0  0  0  0  0  0  0
    0.0845  -14.3094    3.7320 F   0  0  0  0  0  0  0  0  0  0  0  0
    0.7638   -2.6423    1.6721 C   0  0  0  0  0  0  0  0  0  0  0  0
  3  7  1  0
  6 13  1  0
 13 14  1  0
 13 15  2  0
 14 16  1  0
 10 17  1  0
 14 18  1  0
  1  2  2  0
  2  6  1  0
  5  6  2  0
  4  5  1  0
  3  4  2  0
  1  3  1  0
  7  8  2  0
  8  9  1  0
  9 10  2  0
 10 11  1  0
 11 12  2  0
  7 12  1  0
M  END

$$$$
No_3785-/export/home/yangzhenyu/potential_scad_32_flow//YTHDC2/2024-12-06-03-22-00/
     RDKit          3D

 11 11  0  0  0  0  0  0  0  0999 V2000
    1.1787   -8.0297    3.5154 O   0  0  0  0  0  0  0  0  0  0  0  0
    0.9969   -8.9689    3.0048 C   0  0  0  0  0  0  0  0  0  0  0  0
    0.9976   -8.9567    1.6341 C   0  0  0  0  0  0  0  0  0  0  0  0
    1.6062   -9.9071    0.9292 C   0  0  0  0  0  0  0  0  0  0  0  0
    2.1191  -10.9757    1.6503 C   0  0  0  0  0  0  0  0  0  0  0  0
    2.1177  -10.9891    3.0403 C   0  0  0  0  0  0  0  0  0  0  0  0
    1.5441   -9.8905    3.6897 C   0  0  0  0  0  0  0  0  0  0  0  0
    0.4333   -7.7031    1.0153 C   0  0  0  0  0  0  0  0  0  0  0  0
    0.8525   -6.5693    1.1822 C   0  0  0  0  0  0  0  0  0  0  0  0
    0.1407   -5.4740    1.3365 C   0  0  0  0  0  0  0  0  0  0  0  0
    0.8062   -4.1757    1.7576 C   0  0  0  0  0  0  0  0  0  0  0  0
  1  2  1  0
  3  8  1  0
  8  9  1  0
  9 10  2  3
 10 11  1  0
  2  3  2  0
  3  4  1  0
  4  5  2  0
  5  6  1  0
  6  7  2  0
  2  7  1  0
M  END

$$$$
No_3786-/export/home/yangzhenyu/potential_scad_32_flow//YTHDC2/2024-12-06-03-22-00/
     RDKit          3D

 19 21  0  0  0  0  0  0  0  0999 V2000
    1.1787   -8.0297    3.5154 C   0  0  0  0  0  0  0  0  0  0  0  0
    1.0491   -6.8434    2.9820 C   0  0  0  0  0  0  0  0  0  0  0  0
    0.9905   -9.0774    2.6527 C   0  0  0  0  0  0  0  0  0  0  0  0
    1.1655  -10.4663    3.1286 C   0  0  0  0  0  0  0  0  0  0  0  0
    1.2197  -11.4898    2.5831 C   0  0  0  0  0  0  0  0  0  0  0  0
    1.0589  -11.4458    1.1293 C   0  0  0  0  0  0  0  0  0  0  0  0
    0.9638  -10.3069    0.4651 C   0  0  0  0  0  0  0  0  0  0  0  0
    0.9191   -9.0789    1.1942 C   0  0  0  0  0  0  0  0  0  0  0  0
    0.9198   -7.8339    0.6158 C   0  0  0  0  0  0  0  0  0  0  0  0
    1.0184   -6.6904    1.4953 C   0  0  0  0  0  0  0  0  0  0  0  0
    1.3445  -12.8197    3.0746 C   0  0  0  0  0  0  0  0  0  0  0  0
    1.4199  -13.9116    2.1454 N   0  0  0  0  0  0  0  0  0  0  0  0
    0.7871  -14.9065    2.0851 C   0  0  0  0  0  0  0  0  0  0  0  0
   -0.3243  -14.9411    2.6662 C   0  0  0  0  0  0  0  0  0  0  0  0
   -0.9744  -16.2240    2.8737 C   0  0  0  0  0  0  0  0  0  0  0  0
   -0.6306  -17.2503    2.1351 C   0  0  0  0  0  0  0  0  0  0  0  0
    0.5999  -17.2484    1.4420 C   0  0  0  0  0  0  0  0  0  0  0  0
    1.3396  -16.1010    1.4454 C   0  0  0  0  0  0  0  0  0  0  0  0
    1.3895   -5.5864    3.6165 C   0  0  0  0  0  0  0  0  0  0  0  0
  5 11  1  0
 11 12  1  0
 12 13  1  0
  2 19  1  0
 13 14  2  0
 14 15  1  0
 15 16  2  0
 16 17  1  0
 17 18  2  0
 13 18  1  0
  1  2  2  0
  2 10  1  0
  9 10  2  0
  8  9  1  0
  1  3  1  0
  3  4  2  0
  4  5  1  0
  5  6  2  0
  6  7  1  0
  7  8  2  0
  3  8  1  0
M  END

$$$$
No_3787-/export/home/yangzhenyu/potential_scad_32_flow//YTHDC2/2024-12-06-03-22-00/
     RDKit          3D

 19 20  0  0  1  0  0  0  0  0999 V2000
    1.1787   -8.0297    3.5154 C   0  0  0  0  0  0  0  0  0  0  0  0
    1.1048   -9.2215    3.2892 C   0  0  0  0  0  0  0  0  0  0  0  0
    1.2339   -9.7611    2.0189 C   0  0  0  0  0  0  0  0  0  0  0  0
    1.3583   -9.0036    0.9764 C   0  0  0  0  0  0  0  0  0  0  0  0
    1.5996   -7.6362    1.1311 C   0  0  0  0  0  0  0  0  0  0  0  0
    1.4830   -7.0928    2.3626 C   0  0  0  0  0  0  0  0  0  0  0  0
    1.1008  -11.2372    1.8542 C   0  0  1  0  0  0  0  0  0  0  0  0
    0.4812  -11.6084    0.6459 C   0  0  0  0  0  0  0  0  0  0  0  0
    0.5134  -13.0269    0.4830 C   0  0  0  0  0  0  0  0  0  0  0  0
    1.2057  -13.8685    1.2734 C   0  0  0  0  0  0  0  0  0  0  0  0
    1.9819  -13.3990    2.3594 C   0  0  0  0  0  0  0  0  0  0  0  0
    1.8610  -12.0988    2.6716 C   0  0  0  0  0  0  0  0  0  0  0  0
    2.5653  -11.6133    3.6969 O   0  0  0  0  0  0  0  0  0  0  0  0
    1.5569   -5.6491    2.6439 O   0  0  0  0  0  0  0  0  0  0  0  0
    0.8652   -4.7333    1.9676 C   0  0  0  0  0  0  0  0  0  0  0  0
    1.4688   -3.4913    1.8859 C   0  0  0  0  0  0  0  0  0  0  0  0
   -0.3096   -4.9421    1.3843 C   0  0  0  0  0  0  0  0  0  0  0  0
   -1.2212   -4.2420    1.4142 C   0  0  0  0  0  0  0  0  0  0  0  0
   -0.8015   -2.7624    1.5066 C   0  0  0  0  0  0  0  0  0  0  0  0
  7  3  1  6
  7  8  1  0
  9 10  1  0
  7 12  1  0
 11 12  1  0
 12 13  2  0
  6 14  1  0
 14 15  1  0
 15 16  1  0
 15 17  1  0
 17 18  2  3
 18 19  1  0
  8  9  1  0
 10 11  1  0
  1  2  2  0
  2  3  1  0
  3  4  2  0
  4  5  1  0
  5  6  2  0
  1  6  1  0
M  END

$$$$
No_3788-/export/home/yangzhenyu/potential_scad_32_flow//YTHDC2/2024-12-06-03-22-00/
     RDKit          3D

 18 19  0  0  1  0  0  0  0  0999 V2000
    1.1787   -8.0297    3.5154 N   0  0  0  0  0  0  0  0  0  0  0  0
    0.8669   -7.0905    2.8589 C   0  0  0  0  0  0  0  0  0  0  0  0
    1.0447   -7.3244    1.4123 C   0  0  0  0  0  0  0  0  0  0  0  0
    1.3942   -8.6358    1.3800 C   0  0  1  0  0  0  0  0  0  0  0  0
    1.8973   -9.2189    0.1308 C   0  0  0  0  0  0  0  0  0  0  0  0
    1.7355   -9.0428    2.5696 C   0  0  2  0  0  0  0  0  0  0  0  0
    2.0062  -10.4008    0.0353 O   0  0  0  0  0  0  0  0  0  0  0  0
    2.1047   -8.4783   -1.0152 O   0  0  0  0  0  0  0  0  0  0  0  0
    2.0410  -10.3207    2.9327 C   0  0  0  0  0  0  0  0  0  0  0  0
    1.4107  -11.4092    2.6596 C   0  0  0  0  0  0  0  0  0  0  0  0
    1.8878  -12.7550    3.1899 C   0  0  0  0  0  0  0  0  0  0  0  0
    1.4890  -13.8276    2.6370 C   0  0  0  0  0  0  0  0  0  0  0  0
    0.5266  -13.9031    1.7512 C   0  0  0  0  0  0  0  0  0  0  0  0
   -0.0053  -12.7570    1.2753 C   0  0  0  0  0  0  0  0  0  0  0  0
    0.4084  -11.5759    1.7512 C   0  0  0  0  0  0  0  0  0  0  0  0
    0.0019  -15.1542    1.3392 C   0  0  0  0  0  0  0  0  0  0  0  0
    0.6648  -15.8605    0.5282 C   0  0  0  0  0  0  0  0  0  0  0  0
    0.5829  -17.1754    0.4934 C   0  0  0  0  0  0  0  0  0  0  0  0
  1  2  1  0
  2  3  2  0
  3  4  1  0
  4  5  1  6
  1  6  1  0
  4  6  1  0
  5  7  2  0
  5  8  1  0
  6  9  1  1
 13 16  1  0
 16 17  1  0
 17 18  2  0
  9 10  1  0
 10 11  2  0
 11 12  1  0
 12 13  2  0
 13 14  1  0
 14 15  2  0
 10 15  1  0
M  END

$$$$
No_3789-/export/home/yangzhenyu/potential_scad_32_flow//YTHDC2/2024-12-06-03-22-00/
     RDKit          3D

 19 20  0  0  1  0  0  0  0  0999 V2000
    1.1787   -8.0297    3.5154 N   0  0  0  0  0  0  0  0  0  0  0  0
    0.8669   -7.0905    2.8589 C   0  0  1  0  0  0  0  0  0  0  0  0
    0.8845   -5.8346    3.1815 N   0  0  0  0  0  0  0  0  0  0  0  0
    1.2809   -9.2727    3.0748 C   0  0  0  0  0  0  0  0  0  0  0  0
    1.0157   -9.4637    1.7341 C   0  0  0  0  0  0  0  0  0  0  0  0
    0.5630   -8.5885    0.9668 C   0  0  1  0  0  0  0  0  0  0  0  0
    0.5633   -7.2877    1.4180 C   0  0  0  0  0  0  0  0  0  0  0  0
    0.4548   -8.7480   -0.4447 C   0  0  0  0  0  0  0  0  0  0  0  0
   -0.6935   -8.2583   -0.9501 N   0  0  0  0  0  0  0  0  0  0  0  0
    1.7229  -10.4068    3.9556 C   0  0  0  0  0  0  0  0  0  0  0  0
   -1.0589   -8.3189   -2.2196 C   0  0  0  0  0  0  0  0  0  0  0  0
   -1.6128   -7.1319   -2.8872 O   0  0  0  0  0  0  0  0  0  0  0  0
   -0.5021   -9.1816   -3.1429 O   0  0  0  0  0  0  0  0  0  0  0  0
    1.1767  -10.9085    1.3075 C   0  0  0  0  0  0  0  0  0  0  0  0
    1.7691  -11.7147    3.4170 C   0  0  0  0  0  0  0  0  0  0  0  0
    1.4933  -11.9810    2.1045 C   0  0  0  0  0  0  0  0  0  0  0  0
    1.7391  -13.4338    1.4279 O   0  0  0  0  0  0  0  0  0  0  0  0
    0.7436  -14.0571    1.2178 C   0  0  0  0  0  0  0  0  0  0  0  0
    0.1242   -6.2415    0.8012 O   0  0  0  0  0  0  0  0  0  0  0  0
  2  3  1  6
  1  4  1  0
  5  6  1  0
  2  7  1  0
  6  7  1  0
  6  8  1  6
  8  9  1  0
  9 11  1  0
 11 12  1  0
 11 13  2  0
 16 17  1  0
 17 18  1  0
  7 19  2  0
  1  2  1  0
  4 10  2  0
 10 15  1  0
 15 16  2  0
 14 16  1  0
  5 14  2  0
  4  5  1  0
M  END

$$$$
No_3790-/export/home/yangzhenyu/potential_scad_32_flow//YTHDC2/2024-12-06-03-22-00/
     RDKit          3D

 19 21  0  0  1  0  0  0  0  0999 V2000
    1.1787   -8.0297    3.5154 C   0  0  0  0  0  0  0  0  0  0  0  0
    1.1048   -9.2215    3.2892 C   0  0  0  0  0  0  0  0  0  0  0  0
    1.3627  -10.1721    4.3044 C   0  0  0  0  0  0  0  0  0  0  0  0
    1.7354  -11.4730    3.9023 C   0  0  0  0  0  0  0  0  0  0  0  0
    1.8080  -11.8127    2.7216 C   0  0  0  0  0  0  0  0  0  0  0  0
    1.5854  -11.0021    1.7249 C   0  0  0  0  0  0  0  0  0  0  0  0
    1.3573   -9.7389    1.9287 C   0  0  0  0  0  0  0  0  0  0  0  0
    1.1102   -8.8712    0.9017 C   0  0  0  0  0  0  0  0  0  0  0  0
    0.5299   -7.6926    1.0325 C   0  0  0  0  0  0  0  0  0  0  0  0
    0.7526   -7.0802    2.3301 C   0  0  0  0  0  0  0  0  0  0  0  0
    2.0515  -13.2522    2.4284 C   0  0  1  0  0  0  0  0  0  0  0  0
    2.4197  -13.7233    1.3168 C   0  0  0  0  0  0  0  0  0  0  0  0
    1.9442  -14.1755    3.4144 C   0  0  0  0  0  0  0  0  0  0  0  0
    0.5241   -5.6514    2.5344 C   0  0  0  0  0  0  0  0  0  0  0  0
    1.6114   -4.9563    2.9912 C   0  0  0  0  0  0  0  0  0  0  0  0
    1.9894  -15.5242    2.9056 S   0  0  0  0  0  0  0  0  0  0  0  0
    1.5599  -15.6003    1.8666 C   0  0  0  0  0  0  0  0  0  0  0  0
    2.0281  -14.7704    0.7634 C   0  0  0  0  0  0  0  0  0  0  0  0
    1.2358   -3.4989    3.0530 C   0  0  0  0  0  0  0  0  0  0  0  0
 11  5  1  1
 11 12  1  0
 11 13  1  0
 10 14  1  0
 14 15  1  0
 13 16  1  0
 16 17  1  0
 12 18  1  0
 17 18  2  0
 15 19  2  0
  1  2  2  0
  7  8  2  0
  8  9  1  0
  9 10  2  0
  1 10  1  0
  2  3  1  0
  3  4  2  0
  4  5  1  0
  5  6  2  0
  6  7  1  0
  2  7  1  0
M  END

$$$$
No_3791-/export/home/yangzhenyu/potential_scad_32_flow//YTHDC2/2024-12-06-03-22-00/
     RDKit          3D

 18 19  0  0  0  0  0  0  0  0999 V2000
    1.1787   -8.0297    3.5154 C   0  0  0  0  0  0  0  0  0  0  0  0
    1.0491   -6.8434    2.9820 C   0  0  0  0  0  0  0  0  0  0  0  0
    0.0950   -8.8404    3.2292 C   0  0  0  0  0  0  0  0  0  0  0  0
    0.0602  -10.1764    3.8231 C   0  0  0  0  0  0  0  0  0  0  0  0
    0.2248   -6.3830    2.0648 C   0  0  0  0  0  0  0  0  0  0  0  0
   -0.6745   -7.2322    1.6857 C   0  0  0  0  0  0  0  0  0  0  0  0
   -0.7374   -8.4992    2.1291 C   0  0  0  0  0  0  0  0  0  0  0  0
   -0.0634  -11.3436    3.0593 C   0  0  0  0  0  0  0  0  0  0  0  0
   -0.8855  -11.7880    2.3923 C   0  0  0  0  0  0  0  0  0  0  0  0
   -0.7096  -12.7962    1.4675 C   0  0  0  0  0  0  0  0  0  0  0  0
    0.5697  -13.4533    1.4287 C   0  0  0  0  0  0  0  0  0  0  0  0
    1.6052  -13.0332    2.1320 C   0  0  0  0  0  0  0  0  0  0  0  0
    1.3892  -12.0188    3.0672 C   0  0  0  0  0  0  0  0  0  0  0  0
    0.4533   -5.0635    1.4803 O   0  0  0  0  0  0  0  0  0  0  0  0
    2.3059  -11.5694    4.0614 N   0  0  0  0  0  0  0  0  0  0  0  0
   -0.4897   -4.3219    1.1050 C   0  0  0  0  0  0  0  0  0  0  0  0
   -1.1217  -10.2051    4.8148 O   0  0  0  0  0  0  0  0  0  0  0  0
   -1.6980  -13.3955    0.6304 C   0  0  0  0  0  0  0  0  0  0  0  0
  3  4  1  0
  4  8  1  0
  5 14  1  0
 14 16  1  0
  4 17  2  0
 10 18  1  0
 13 15  1  0
  8  9  2  0
  9 10  1  0
 10 11  2  0
 11 12  1  0
 12 13  2  0
  8 13  1  0
  1  2  2  0
  2  5  1  0
  5  6  2  0
  6  7  1  0
  3  7  2  0
  1  3  1  0
M  END

$$$$
No_3792-/export/home/yangzhenyu/potential_scad_32_flow//YTHDC2/2024-12-06-03-22-00/
     RDKit          3D

 20 21  0  0  1  0  0  0  0  0999 V2000
    1.1787   -8.0297    3.5154 C   0  0  0  0  0  0  0  0  0  0  0  0
    1.1048   -9.2215    3.2892 C   0  0  0  0  0  0  0  0  0  0  0  0
    1.2339   -9.7611    2.0189 C   0  0  0  0  0  0  0  0  0  0  0  0
    1.3583   -9.0036    0.9764 C   0  0  0  0  0  0  0  0  0  0  0  0
    1.5996   -7.6362    1.1311 C   0  0  0  0  0  0  0  0  0  0  0  0
    1.4830   -7.0928    2.3626 C   0  0  0  0  0  0  0  0  0  0  0  0
    1.1008  -11.2372    1.8542 C   0  0  2  0  0  0  0  0  0  0  0  0
    1.9749  -12.0938    2.2342 C   0  0  0  0  0  0  0  0  0  0  0  0
    1.7533  -13.4231    1.8956 C   0  0  0  0  0  0  0  0  0  0  0  0
    0.8624  -13.8318    1.1071 C   0  0  2  0  0  0  0  0  0  0  0  0
    0.5887  -15.0331    0.5602 C   0  0  0  0  0  0  0  0  0  0  0  0
    0.0774  -12.6150    0.5819 C   0  0  0  0  0  0  0  0  0  0  0  0
    0.1613  -11.5240    0.8981 C   0  0  0  0  0  0  0  0  0  0  0  0
    1.5491   -5.6324    2.6488 Cl  0  0  0  0  0  0  0  0  0  0  0  0
   -0.9430  -13.0778   -0.3113 O   0  0  0  0  0  0  0  0  0  0  0  0
    0.4785  -16.0533    1.3249 C   0  0  0  0  0  0  0  0  0  0  0  0
    0.4318  -17.4462    0.8938 C   0  0  0  0  0  0  0  0  0  0  0  0
    1.0673  -18.3921    1.7080 C   0  0  0  0  0  0  0  0  0  0  0  0
    1.5038  -18.0936    3.0839 C   0  0  0  0  0  0  0  0  0  0  0  0
    1.5031  -16.7259    3.4865 C   0  0  0  0  0  0  0  0  0  0  0  0
  7  3  1  6
  7  8  1  0
 10  9  1  6
 10 11  1  0
 10 12  1  0
  7 13  1  0
 12 13  1  0
  6 14  1  0
 12 15  2  0
 11 16  2  3
 16 17  1  0
 17 18  2  3
 18 19  1  0
 19 20  2  0
  8  9  1  0
  1  2  2  0
  2  3  1  0
  3  4  2  0
  4  5  1  0
  5  6  2  0
  1  6  1  0
M  END

$$$$
No_3793-/export/home/yangzhenyu/potential_scad_32_flow//YTHDC2/2024-12-06-03-22-00/
     RDKit          3D

 20 21  0  0  0  0  0  0  0  0999 V2000
    1.1787   -8.0297    3.5154 C   0  0  0  0  0  0  0  0  0  0  0  0
    1.0491   -6.8434    2.9820 C   0  0  0  0  0  0  0  0  0  0  0  0
    0.9905   -9.0774    2.6527 C   0  0  0  0  0  0  0  0  0  0  0  0
    0.7897   -8.9519    1.3691 C   0  0  0  0  0  0  0  0  0  0  0  0
    0.7018   -7.7198    0.7892 C   0  0  0  0  0  0  0  0  0  0  0  0
    0.8918   -6.5957    1.6117 C   0  0  0  0  0  0  0  0  0  0  0  0
    1.0774  -10.6059    3.3145 C   0  0  0  0  0  0  0  0  0  0  0  0
    1.2215  -11.6205    2.4178 C   0  0  0  0  0  0  0  0  0  0  0  0
    1.2172  -11.3714    1.0384 C   0  0  0  0  0  0  0  0  0  0  0  0
    1.0904  -10.1324    0.4994 C   0  0  0  0  0  0  0  0  0  0  0  0
    1.4855  -12.9373    2.9035 C   0  0  0  0  0  0  0  0  0  0  0  0
    2.4365  -13.5976    2.8604 N   0  0  0  0  0  0  0  0  0  0  0  0
    2.3970  -14.9079    2.2433 C   0  0  0  0  0  0  0  0  0  0  0  0
    0.7683   -5.2822    1.1142 Cl  0  0  0  0  0  0  0  0  0  0  0  0
    1.2787  -15.2811    1.6596 O   0  0  0  0  0  0  0  0  0  0  0  0
    3.4391  -15.9014    2.5471 O   0  0  0  0  0  0  0  0  0  0  0  0
    1.2619  -10.6486    4.6425 O   0  0  0  0  0  0  0  0  0  0  0  0
    1.1706   -5.7684    3.8382 O   0  0  0  0  0  0  0  0  0  0  0  0
    0.8973  -10.0287   -0.9289 O   0  0  0  0  0  0  0  0  0  0  0  0
    3.1504  -17.2010    2.2278 C   0  0  0  0  0  0  0  0  0  0  0  0
  8 11  1  0
 11 12  1  0
 12 13  1  0
  6 14  1  0
 13 15  2  0
 13 16  1  0
  7 17  1  0
  2 18  1  0
 10 19  1  0
 16 20  1  0
  4 10  2  0
  9 10  1  0
  8  9  2  0
  7  8  1  0
  3  7  2  0
  1  2  2  0
  2  6  1  0
  5  6  2  0
  4  5  1  0
  3  4  1  0
  1  3  1  0
M  END

$$$$
No_3794-/export/home/yangzhenyu/potential_scad_32_flow//YTHDC2/2024-12-06-03-22-00/
     RDKit          3D

 19 20  0  0  1  0  0  0  0  0999 V2000
    1.1787   -8.0297    3.5154 C   0  0  0  0  0  0  0  0  0  0  0  0
    1.1048   -9.2215    3.2892 C   0  0  0  0  0  0  0  0  0  0  0  0
    1.4683  -10.2314    4.1915 C   0  0  0  0  0  0  0  0  0  0  0  0
    0.8445   -6.9865    2.5175 C   0  0  0  0  0  0  0  0  0  0  0  0
    0.3587   -7.3973    1.3953 C   0  0  0  0  0  0  0  0  0  0  0  0
    0.1901   -8.6971    1.0711 C   0  0  0  0  0  0  0  0  0  0  0  0
    0.5759   -9.6647    1.9442 C   0  0  0  0  0  0  0  0  0  0  0  0
    0.6934  -11.4709    4.1321 C   0  0  0  0  0  0  0  0  0  0  0  0
    0.3760  -11.9548    2.8946 C   0  0  1  0  0  0  0  0  0  0  0  0
   -0.1343  -13.2243    2.6893 C   0  0  0  0  0  0  0  0  0  0  0  0
    0.2815  -11.0115    1.8673 N   0  0  0  0  0  0  0  0  0  0  0  0
    0.4184  -13.9623    1.7234 C   0  0  0  0  0  0  0  0  0  0  0  0
    1.3777  -14.7950    2.0897 C   0  0  0  0  0  0  0  0  0  0  0  0
   -0.1375   -9.0304   -0.2087 C   0  0  0  0  0  0  0  0  0  0  0  0
    0.6012   -9.0289   -1.2728 C   0  0  0  0  0  0  0  0  0  0  0  0
    1.9374   -9.2319   -1.0560 O   0  0  0  0  0  0  0  0  0  0  0  0
    0.2304   -9.0655   -2.4011 O   0  0  0  0  0  0  0  0  0  0  0  0
    2.6006  -14.8779    1.7544 C   0  0  0  0  0  0  0  0  0  0  0  0
    3.0705  -13.7884    1.0749 N   0  0  0  0  0  0  0  0  0  0  0  0
  2  3  1  0
  3  8  1  0
  8  9  1  0
  9 10  1  1
  7 11  1  0
  9 11  1  0
 10 12  1  0
 12 13  1  0
  6 14  1  0
 14 15  1  0
 15 16  1  0
 15 17  2  0
 13 18  1  0
 18 19  1  0
  1  2  2  0
  2  7  1  0
  6  7  2  0
  5  6  1  0
  4  5  2  0
  1  4  1  0
M  END

$$$$
No_3795-/export/home/yangzhenyu/potential_scad_32_flow//YTHDC2/2024-12-06-03-22-00/
     RDKit          3D

 16 16  0  0  0  0  0  0  0  0999 V2000
    1.1787   -8.0297    3.5154 C   0  0  0  0  0  0  0  0  0  0  0  0
    1.0491   -6.8434    2.9820 C   0  0  0  0  0  0  0  0  0  0  0  0
    0.9905   -9.0774    2.6527 C   0  0  0  0  0  0  0  0  0  0  0  0
    0.7897   -8.9519    1.3691 C   0  0  0  0  0  0  0  0  0  0  0  0
    0.7018   -7.7198    0.7892 C   0  0  0  0  0  0  0  0  0  0  0  0
    0.8918   -6.5957    1.6117 C   0  0  0  0  0  0  0  0  0  0  0  0
    1.0711  -10.4814    3.2282 S   0  0  0  0  0  0  0  0  0  0  0  0
    2.2477  -10.8576    3.8311 N   0  0  0  0  0  0  0  0  0  0  0  0
   -0.0123  -10.6645    4.2542 O   0  0  0  0  0  0  0  0  0  0  0  0
    0.9301  -11.6599    2.1886 O   0  0  0  0  0  0  0  0  0  0  0  0
    0.8186   -5.2787    1.1585 O   0  0  0  0  0  0  0  0  0  0  0  0
    0.4204   -4.2109    1.8570 C   0  0  0  0  0  0  0  0  0  0  0  0
   -0.9926   -4.1523    1.7989 C   0  0  0  0  0  0  0  0  0  0  0  0
   -1.5406   -4.0067    3.1002 C   0  0  0  0  0  0  0  0  0  0  0  0
   -2.7017   -4.7561    3.3208 C   0  0  0  0  0  0  0  0  0  0  0  0
   -3.3756   -5.3347    2.2816 C   0  0  0  0  0  0  0  0  0  0  0  0
  3  7  1  0
  7  8  1  0
  7  9  2  0
  7 10  2  0
  6 11  1  0
 11 12  1  0
 12 13  1  0
 13 14  1  0
 14 15  2  3
 15 16  1  0
  1  2  2  0
  2  6  1  0
  5  6  2  0
  4  5  1  0
  3  4  2  0
  1  3  1  0
M  END

$$$$
No_3796-/export/home/yangzhenyu/potential_scad_32_flow//YTHDC2/2024-12-06-03-22-00/
     RDKit          3D

 17 18  0  0  0  0  0  0  0  0999 V2000
    1.1787   -8.0297    3.5154 C   0  0  0  0  0  0  0  0  0  0  0  0
    1.1048   -9.2215    3.2892 C   0  0  0  0  0  0  0  0  0  0  0  0
    1.3627  -10.1721    4.3044 C   0  0  0  0  0  0  0  0  0  0  0  0
    1.0682  -11.5187    4.0618 C   0  0  0  0  0  0  0  0  0  0  0  0
    0.6332  -11.9655    2.9682 C   0  0  0  0  0  0  0  0  0  0  0  0
    0.4776  -11.1308    1.9203 C   0  0  0  0  0  0  0  0  0  0  0  0
    0.7470   -9.8274    2.0368 C   0  0  0  0  0  0  0  0  0  0  0  0
    1.0387   -7.0301    2.5175 O   0  0  0  0  0  0  0  0  0  0  0  0
    0.4220  -13.4291    2.8032 C   0  0  0  0  0  0  0  0  0  0  0  0
   -0.7524  -13.9320    2.4107 C   0  0  0  0  0  0  0  0  0  0  0  0
   -0.8455  -15.3465    2.3278 C   0  0  0  0  0  0  0  0  0  0  0  0
    0.2579  -16.1825    2.6267 C   0  0  0  0  0  0  0  0  0  0  0  0
    1.4411  -15.6255    2.9901 C   0  0  0  0  0  0  0  0  0  0  0  0
    1.6097  -14.2332    3.1351 C   0  0  0  0  0  0  0  0  0  0  0  0
    2.4545  -16.4836    3.3369 O   0  0  0  0  0  0  0  0  0  0  0  0
    0.6554   -9.0814    0.9253 C   0  0  0  0  0  0  0  0  0  0  0  0
   -0.5573   -8.8573    0.2516 C   0  0  0  0  0  0  0  0  0  0  0  0
  1  2  1  0
  1  8  2  0
  5  9  1  0
 10 11  1  0
 12 13  1  0
  9 14  1  0
 13 14  1  0
 13 15  2  0
  7 16  1  0
 16 17  2  0
 11 12  1  0
  9 10  1  0
  2  3  2  0
  3  4  1  0
  4  5  2  0
  5  6  1  0
  6  7  2  0
  2  7  1  0
M  END

$$$$
No_3797-/export/home/yangzhenyu/potential_scad_32_flow//YTHDC2/2024-12-06-03-22-00/
     RDKit          3D

 17 18  0  0  1  0  0  0  0  0999 V2000
    1.1787   -8.0297    3.5154 C   0  0  0  0  0  0  0  0  0  0  0  0
    1.0491   -6.8434    2.9820 C   0  0  0  0  0  0  0  0  0  0  0  0
    0.9905   -9.0774    2.6527 C   0  0  0  0  0  0  0  0  0  0  0  0
    0.7897   -8.9519    1.3691 C   0  0  0  0  0  0  0  0  0  0  0  0
    0.7018   -7.7198    0.7892 C   0  0  0  0  0  0  0  0  0  0  0  0
    0.8918   -6.5957    1.6117 C   0  0  0  0  0  0  0  0  0  0  0  0
    1.0600  -10.5680    3.3321 C   0  0  1  0  0  0  0  0  0  0  0  0
   -0.1041  -11.1772    3.5150 C   0  0  2  0  0  0  0  0  0  0  0  0
   -1.2204  -10.4119    3.8534 C   0  0  0  0  0  0  0  0  0  0  0  0
    0.9462   -5.2622    1.1352 C   0  0  0  0  0  0  0  0  0  0  0  0
   -1.3356   -9.6606    4.9982 C   0  0  0  0  0  0  0  0  0  0  0  0
   -2.3722   -8.8095    5.3084 C   0  0  0  0  0  0  0  0  0  0  0  0
   -3.3885   -8.8470    4.4898 C   0  0  0  0  0  0  0  0  0  0  0  0
   -3.4639   -9.5616    3.4124 C   0  0  0  0  0  0  0  0  0  0  0  0
   -2.4269  -10.3999    3.0837 C   0  0  0  0  0  0  0  0  0  0  0  0
   -0.0462  -12.4779    3.5778 C   0  0  0  0  0  0  0  0  0  0  0  0
    2.2563  -11.0042    3.4857 C   0  0  0  0  0  0  0  0  0  0  0  0
  3  7  1  0
  7  8  1  0
  8  9  1  0
  6 10  1  0
  8 16  1  1
  7 17  1  6
  1  2  2  0
  2  6  1  0
  5  6  2  0
  4  5  1  0
  3  4  2  0
  1  3  1  0
  9 11  2  0
 11 12  1  0
 12 13  2  0
 13 14  1  0
 14 15  2  0
  9 15  1  0
M  END

$$$$
No_3798-/export/home/yangzhenyu/potential_scad_32_flow//YTHDC2/2024-12-06-03-22-00/
     RDKit          3D

 16 17  0  0  0  0  0  0  0  0999 V2000
    1.1787   -8.0297    3.5154 C   0  0  0  0  0  0  0  0  0  0  0  0
    1.1048   -9.2215    3.2892 C   0  0  0  0  0  0  0  0  0  0  0  0
    1.2339   -9.7611    2.0189 C   0  0  0  0  0  0  0  0  0  0  0  0
    1.3583   -9.0036    0.9764 C   0  0  0  0  0  0  0  0  0  0  0  0
    1.5996   -7.6362    1.1311 C   0  0  0  0  0  0  0  0  0  0  0  0
    1.4830   -7.0928    2.3626 C   0  0  0  0  0  0  0  0  0  0  0  0
    1.5395   -5.7300    2.6182 C   0  0  0  0  0  0  0  0  0  0  0  0
    1.1969  -11.3760    1.8433 C   0  0  0  0  0  0  0  0  0  0  0  0
    1.7910  -12.1287    2.5491 C   0  0  0  0  0  0  0  0  0  0  0  0
    1.6251  -13.4926    2.1118 C   0  0  0  0  0  0  0  0  0  0  0  0
    0.9177  -13.8665    1.0867 C   0  0  0  0  0  0  0  0  0  0  0  0
    0.3045  -12.8579    0.2778 C   0  0  0  0  0  0  0  0  0  0  0  0
    0.4464  -11.5554    0.6353 C   0  0  0  0  0  0  0  0  0  0  0  0
    2.3601  -14.6625    3.0739 Br  0  0  0  0  0  0  0  0  0  0  0  0
    0.6140   -4.8897    2.7775 N   0  0  0  0  0  0  0  0  0  0  0  0
    0.7929   -3.5408    3.2013 O   0  0  0  0  0  0  0  0  0  0  0  0
  6  7  1  0
  3  8  1  0
 10 14  1  0
  7 15  1  0
 15 16  2  0
  1  2  2  0
  2  3  1  0
  3  4  2  0
  4  5  1  0
  5  6  2  0
  1  6  1  0
  8  9  2  0
  9 10  1  0
 10 11  2  0
 11 12  1  0
 12 13  2  0
  8 13  1  0
M  END

$$$$
No_3799-/export/home/yangzhenyu/potential_scad_32_flow//YTHDC2/2024-12-06-03-22-00/
     RDKit          3D

 18 18  0  0  1  0  0  0  0  0999 V2000
    1.1787   -8.0297    3.5154 N   0  0  0  0  0  0  0  0  0  0  0  0
    0.8669   -7.0905    2.8589 C   0  0  0  0  0  0  0  0  0  0  0  0
    1.0447   -7.3244    1.4123 C   0  0  0  0  0  0  0  0  0  0  0  0
    1.3746   -8.4389    1.0864 C   0  0  2  0  0  0  0  0  0  0  0  0
    1.8493   -9.4093    1.8124 Br  0  0  0  0  0  0  0  0  0  0  0  0
    1.7427   -8.5586   -0.4734 C   0  0  0  0  0  0  0  0  0  0  0  0
    0.8901   -8.0208   -1.2463 O   0  0  0  0  0  0  0  0  0  0  0  0
    2.5745   -9.3289   -1.0330 O   0  0  0  0  0  0  0  0  0  0  0  0
    0.6778   -5.7221    3.2824 C   0  0  1  0  0  0  0  0  0  0  0  0
    1.7157   -4.8883    3.6663 C   0  0  0  0  0  0  0  0  0  0  0  0
    1.2315   -3.5429    3.8704 C   0  0  1  0  0  0  0  0  0  0  0  0
   -0.0014   -3.1635    3.7304 C   0  0  1  0  0  0  0  0  0  0  0  0
   -0.9546   -3.9312    3.4191 C   0  0  2  0  0  0  0  0  0  0  0  0
   -0.6720   -5.2610    3.1012 C   0  0  0  0  0  0  0  0  0  0  0  0
   -1.6259   -6.0701    2.7445 O   0  0  0  0  0  0  0  0  0  0  0  0
   -0.3512   -1.4954    4.1751 Cl  0  0  0  0  0  0  0  0  0  0  0  0
   -2.5131   -3.4570    3.2521 Br  0  0  0  0  0  0  0  0  0  0  0  0
    2.3217   -2.6995    4.3245 Br  0  0  0  0  0  0  0  0  0  0  0  0
  1  2  1  0
  2  3  2  3
  3  4  1  0
  4  5  1  1
  4  6  1  0
  6  7  2  0
  6  8  1  0
  2  9  1  0
  9 10  1  6
 11 12  1  0
  9 14  1  0
 13 14  1  0
 14 15  2  0
 12 16  1  1
 13 17  1  6
 11 18  1  1
 10 11  1  0
 12 13  1  0
M  END

$$$$
No_3800-/export/home/yangzhenyu/potential_scad_32_flow//YTHDC2/2024-12-06-03-22-00/
     RDKit          3D

 19 21  0  0  0  0  0  0  0  0999 V2000
    1.1787   -8.0297    3.5154 C   0  0  0  0  0  0  0  0  0  0  0  0
    1.1048   -9.2215    3.2892 C   0  0  0  0  0  0  0  0  0  0  0  0
    1.3627  -10.1721    4.3044 C   0  0  0  0  0  0  0  0  0  0  0  0
    1.0682  -11.5187    4.0618 C   0  0  0  0  0  0  0  0  0  0  0  0
    0.6332  -11.9655    2.9682 C   0  0  0  0  0  0  0  0  0  0  0  0
    0.4776  -11.1308    1.9203 C   0  0  0  0  0  0  0  0  0  0  0  0
    0.7470   -9.8274    2.0368 C   0  0  0  0  0  0  0  0  0  0  0  0
    1.0387   -7.0301    2.5175 C   0  0  0  0  0  0  0  0  0  0  0  0
    0.9130   -7.5288    1.2013 C   0  0  0  0  0  0  0  0  0  0  0  0
    0.7893   -8.7979    0.9542 C   0  0  0  0  0  0  0  0  0  0  0  0
    0.5241   -9.2578   -0.2817 C   0  0  0  0  0  0  0  0  0  0  0  0
   -0.7560   -9.7391   -0.6285 O   0  0  0  0  0  0  0  0  0  0  0  0
    1.1160   -8.6749   -1.3392 O   0  0  0  0  0  0  0  0  0  0  0  0
    0.5047  -13.3701    2.6851 C   0  0  0  0  0  0  0  0  0  0  0  0
    1.4559  -14.2712    3.1841 C   0  0  0  0  0  0  0  0  0  0  0  0
    1.2302  -15.6565    2.9878 C   0  0  0  0  0  0  0  0  0  0  0  0
    0.3551  -16.1143    2.2249 C   0  0  0  0  0  0  0  0  0  0  0  0
   -0.5205  -15.2660    1.6301 C   0  0  0  0  0  0  0  0  0  0  0  0
   -0.3650  -13.9136    1.8447 C   0  0  0  0  0  0  0  0  0  0  0  0
 10 11  1  0
 11 12  2  0
 11 13  1  0
  5 14  1  0
  2  3  1  0
  3  4  2  0
  4  5  1  0
  5  6  2  0
  6  7  1  0
  1  2  2  0
  2  7  1  0
  7 10  2  0
  9 10  1  0
  8  9  2  0
  1  8  1  0
 14 15  2  0
 15 16  1  0
 16 17  2  0
 17 18  1  0
 18 19  2  0
 14 19  1  0
M  END

$$$$
No_3801-/export/home/yangzhenyu/potential_scad_32_flow//YTHDC2/2024-12-06-03-22-00/
     RDKit          3D

 18 19  0  0  1  0  0  0  0  0999 V2000
    1.1787   -8.0297    3.5154 O   0  0  0  0  0  0  0  0  0  0  0  0
    0.6747   -7.4019    2.7838 C   0  0  1  0  0  0  0  0  0  0  0  0
    0.5570   -6.0797    2.8560 C   0  0  0  0  0  0  0  0  0  0  0  0
    1.6734   -5.4651    3.4094 C   0  0  0  0  0  0  0  0  0  0  0  0
    1.3890   -9.4346    3.3337 C   0  0  0  0  0  0  0  0  0  0  0  0
    1.2051  -10.0658    2.2186 C   0  0  0  0  0  0  0  0  0  0  0  0
    0.6500   -9.2608    1.2027 C   0  0  0  0  0  0  0  0  0  0  0  0
    0.4651   -7.8699    1.4345 C   0  0  0  0  0  0  0  0  0  0  0  0
    1.5396  -11.5268    2.0781 C   0  0  0  0  0  0  0  0  0  0  0  0
    0.4657  -12.3834    1.8764 C   0  0  0  0  0  0  0  0  0  0  0  0
    0.7272  -13.6321    1.6314 N   0  0  0  0  0  0  0  0  0  0  0  0
   -0.1244  -14.3748    1.0278 C   0  0  0  0  0  0  0  0  0  0  0  0
   -1.2116  -13.6550    0.5885 C   0  0  0  0  0  0  0  0  0  0  0  0
   -1.3540  -12.2086    0.9141 C   0  0  0  0  0  0  0  0  0  0  0  0
   -0.5008  -11.6064    1.4662 N   0  0  0  0  0  0  0  0  0  0  0  0
   -0.4887   -5.2955    2.5295 C   0  0  0  0  0  0  0  0  0  0  0  0
   -0.3977   -3.8636    2.3872 C   0  0  0  0  0  0  0  0  0  0  0  0
    0.7299   -3.2524    2.9654 C   0  0  0  0  0  0  0  0  0  0  0  0
  1  2  1  0
  2  3  1  6
  3  4  1  0
  1  5  1  0
  5  6  2  0
  6  7  1  0
  2  8  1  0
  7  8  2  0
  6  9  1  0
  9 10  1  0
  3 16  1  0
 16 17  2  3
 17 18  1  0
 10 11  2  0
 11 12  1  0
 12 13  2  0
 13 14  1  0
 14 15  2  0
 10 15  1  0
M  END

$$$$
No_3802-/export/home/yangzhenyu/potential_scad_32_flow//YTHDC2/2024-12-06-03-22-00/
     RDKit          3D

 18 19  0  0  1  0  0  0  0  0999 V2000
    1.1787   -8.0297    3.5154 C   0  0  0  0  0  0  0  0  0  0  0  0
    1.0491   -6.8434    2.9820 C   0  0  0  0  0  0  0  0  0  0  0  0
    0.9905   -9.0774    2.6527 C   0  0  1  0  0  0  0  0  0  0  0  0
    0.7897   -8.9519    1.3691 N   0  0  0  0  0  0  0  0  0  0  0  0
    0.8618   -6.5727    1.6755 C   0  0  1  0  0  0  0  0  0  0  0  0
    0.6171   -7.6414    0.8820 C   0  0  0  0  0  0  0  0  0  0  0  0
    1.1170  -10.5910    3.2103 C   0  0  0  0  0  0  0  0  0  0  0  0
    2.1161  -11.0380    3.6412 C   0  0  0  0  0  0  0  0  0  0  0  0
    2.1680  -11.8894    4.2639 C   0  0  0  0  0  0  0  0  0  0  0  0
   -0.0744  -11.1691    3.2244 C   0  0  0  0  0  0  0  0  0  0  0  0
   -1.3321  -10.6118    2.9786 C   0  0  0  0  0  0  0  0  0  0  0  0
    0.3066   -7.5636   -0.3589 O   0  0  0  0  0  0  0  0  0  0  0  0
    0.0260  -12.3659    4.0091 C   0  0  0  0  0  0  0  0  0  0  0  0
    1.1263  -12.7734    4.4238 N   0  0  0  0  0  0  0  0  0  0  0  0
    0.8379   -5.0803    1.0830 Cl  0  0  0  0  0  0  0  0  0  0  0  0
   -2.4096  -11.0912    3.1614 O   0  0  0  0  0  0  0  0  0  0  0  0
   -1.3965   -9.7697    1.9488 N   0  0  0  0  0  0  0  0  0  0  0  0
   -2.6672   -9.4967    1.4706 C   0  0  0  0  0  0  0  0  0  0  0  0
  1  2  1  0
  3  4  1  0
  4  6  1  0
  5  6  1  0
  3  7  1  6
 10 11  1  0
  6 12  2  0
  5 15  1  1
 11 16  2  0
 11 17  1  0
 17 18  1  0
  1  3  1  0
  2  5  1  0
  7  8  2  0
  8  9  1  0
  9 14  2  0
 13 14  1  0
 10 13  2  0
  7 10  1  0
M  END

$$$$
No_3803-/export/home/yangzhenyu/potential_scad_32_flow//YTHDC2/2024-12-06-03-22-00/
     RDKit          3D

 18 19  0  0  1  0  0  0  0  0999 V2000
    1.1787   -8.0297    3.5154 C   0  0  0  0  0  0  0  0  0  0  0  0
    1.0491   -6.8434    2.9820 C   0  0  0  0  0  0  0  0  0  0  0  0
    0.9905   -9.0774    2.6527 C   0  0  0  0  0  0  0  0  0  0  0  0
    0.7897   -8.9519    1.3691 C   0  0  0  0  0  0  0  0  0  0  0  0
    0.7018   -7.7198    0.7892 C   0  0  0  0  0  0  0  0  0  0  0  0
    0.8918   -6.5957    1.6117 C   0  0  0  0  0  0  0  0  0  0  0  0
    1.0600  -10.5680    3.3321 C   0  0  1  0  0  0  0  0  0  0  0  0
    1.1634  -11.6086    2.5010 C   0  0  0  0  0  0  0  0  0  0  0  0
    1.1858  -12.9058    3.2031 C   0  0  0  0  0  0  0  0  0  0  0  0
    1.0320  -14.0629    2.3886 C   0  0  1  0  0  0  0  0  0  0  0  0
    1.3321  -15.3680    3.0665 C   0  0  0  0  0  0  0  0  0  0  0  0
    0.9238  -16.5084    2.5223 C   0  0  2  0  0  0  0  0  0  0  0  0
    0.8703   -5.2714    1.1502 O   0  0  0  0  0  0  0  0  0  0  0  0
   -0.0166  -16.4475    1.7102 C   0  0  0  0  0  0  0  0  0  0  0  0
   -0.2159  -15.3641    0.8705 C   0  0  0  0  0  0  0  0  0  0  0  0
    0.0054  -14.0778    1.4313 C   0  0  0  0  0  0  0  0  0  0  0  0
    1.0924  -10.5409    4.6416 F   0  0  0  0  0  0  0  0  0  0  0  0
    1.0121  -17.6280    3.4384 C   0  0  0  0  0  0  0  0  0  0  0  0
  1  2  1  0
  3  4  1  0
  2  6  1  0
  5  6  1  0
  3  7  1  0
  7  8  1  0
  8  9  1  0
 10  9  1  1
 10 11  1  0
 11 12  1  0
  6 13  2  0
 12 14  1  0
 14 15  1  0
 10 16  1  0
 15 16  1  0
  7 17  1  1
 12 18  1  1
  1  3  1  0
  4  5  1  0
M  END

$$$$
No_3804-/export/home/yangzhenyu/potential_scad_32_flow//YTHDC2/2024-12-06-03-22-00/
     RDKit          3D

 19 20  0  0  0  0  0  0  0  0999 V2000
    1.1787   -8.0297    3.5154 C   0  0  0  0  0  0  0  0  0  0  0  0
    1.1048   -9.2215    3.2892 C   0  0  0  0  0  0  0  0  0  0  0  0
    1.3627  -10.1721    4.3044 C   0  0  0  0  0  0  0  0  0  0  0  0
    1.7354  -11.4730    3.9023 C   0  0  0  0  0  0  0  0  0  0  0  0
    1.8080  -11.8127    2.7216 C   0  0  0  0  0  0  0  0  0  0  0  0
    1.5854  -11.0021    1.7249 C   0  0  0  0  0  0  0  0  0  0  0  0
    1.3573   -9.7389    1.9287 C   0  0  0  0  0  0  0  0  0  0  0  0
    1.2865   -8.8078    0.9161 C   0  0  0  0  0  0  0  0  0  0  0  0
    0.9210   -7.5140    1.1674 C   0  0  0  0  0  0  0  0  0  0  0  0
    1.0097   -7.0192    2.4369 C   0  0  0  0  0  0  0  0  0  0  0  0
    0.8553   -5.6437    2.6966 C   0  0  0  0  0  0  0  0  0  0  0  0
    2.0476  -13.2622    2.4252 C   0  0  0  0  0  0  0  0  0  0  0  0
    2.3787  -13.7449    1.3051 C   0  0  0  0  0  0  0  0  0  0  0  0
    1.9761  -14.1739    3.4198 C   0  0  0  0  0  0  0  0  0  0  0  0
   -0.2512   -5.0673    2.0995 N   0  0  0  0  0  0  0  0  0  0  0  0
   -1.4426   -5.4588    2.3748 C   0  0  0  0  0  0  0  0  0  0  0  0
   -2.5681   -4.7969    1.8856 C   0  0  0  0  0  0  0  0  0  0  0  0
   -2.2586   -3.7484    1.0278 C   0  0  0  0  0  0  0  0  0  0  0  0
   -1.0008   -3.2628    0.7970 C   0  0  0  0  0  0  0  0  0  0  0  0
 10 11  1  0
  5 12  1  0
 12 13  1  0
 12 14  1  0
 11 15  1  0
 15 16  1  0
 16 17  2  3
 17 18  1  0
 18 19  2  0
  1  2  2  0
  7  8  2  0
  8  9  1  0
  9 10  2  0
  1 10  1  0
  2  3  1  0
  3  4  2  0
  4  5  1  0
  5  6  2  0
  6  7  1  0
  2  7  1  0
M  END

$$$$
No_3805-/export/home/yangzhenyu/potential_scad_32_flow//YTHDC2/2024-12-06-03-22-00/
     RDKit          3D

 18 19  0  0  1  0  0  0  0  0999 V2000
    1.1787   -8.0297    3.5154 C   0  0  0  0  0  0  0  0  0  0  0  0
    1.1048   -9.2215    3.2892 C   0  0  0  0  0  0  0  0  0  0  0  0
    1.3627  -10.1721    4.3044 C   0  0  0  0  0  0  0  0  0  0  0  0
    1.0682  -11.5187    4.0618 C   0  0  0  0  0  0  0  0  0  0  0  0
    0.6332  -11.9655    2.9682 C   0  0  0  0  0  0  0  0  0  0  0  0
    0.4776  -11.1308    1.9203 C   0  0  0  0  0  0  0  0  0  0  0  0
    0.7470   -9.8274    2.0368 C   0  0  0  0  0  0  0  0  0  0  0  0
    0.5535   -7.1314    2.6861 N   0  0  0  0  0  0  0  0  0  0  0  0
    0.4463   -7.5890    1.3163 C   0  0  0  0  0  0  0  0  0  0  0  0
    0.3167   -8.8396    1.0546 C   0  0  1  0  0  0  0  0  0  0  0  0
    0.0293   -9.1967   -0.1763 C   0  0  0  0  0  0  0  0  0  0  0  0
   -1.3284   -9.6598   -0.4094 O   0  0  0  0  0  0  0  0  0  0  0  0
    0.2807   -6.5686    0.4845 O   0  0  0  0  0  0  0  0  0  0  0  0
    0.5197   -8.5691   -1.2933 O   0  0  0  0  0  0  0  0  0  0  0  0
    0.5505  -13.3932    2.7010 C   0  0  0  0  0  0  0  0  0  0  0  0
   -0.5722  -13.8910    2.2334 O   0  0  0  0  0  0  0  0  0  0  0  0
    1.4626  -14.2983    3.0733 O   0  0  0  0  0  0  0  0  0  0  0  0
    1.7555  -15.4345    2.4491 C   0  0  0  0  0  0  0  0  0  0  0  0
  1  2  1  0
  1  8  1  0
  8  9  1  0
  7 10  1  0
  9 10  1  0
 10 11  1  6
 11 12  1  0
  9 13  2  0
 11 14  2  0
  5 15  1  0
 15 16  2  0
 15 17  1  0
 17 18  1  0
  2  3  2  0
  3  4  1  0
  4  5  2  0
  5  6  1  0
  6  7  2  0
  2  7  1  0
M  END

$$$$
No_3806-/export/home/yangzhenyu/potential_scad_32_flow//YTHDC2/2024-12-06-03-22-00/
     RDKit          3D

 19 20  0  0  1  0  0  0  0  0999 V2000
    1.1787   -8.0297    3.5154 C   0  0  0  0  0  0  0  0  0  0  0  0
    1.1048   -9.2215    3.2892 C   0  0  0  0  0  0  0  0  0  0  0  0
    1.2339   -9.7611    2.0189 C   0  0  0  0  0  0  0  0  0  0  0  0
    1.1954  -11.2312    1.8661 C   0  0  0  0  0  0  0  0  0  0  0  0
    1.5546  -12.1691    2.7931 C   0  0  0  0  0  0  0  0  0  0  0  0
    0.5849   -7.0929    2.5729 C   0  0  0  0  0  0  0  0  0  0  0  0
    0.5567   -7.6699    1.1955 C   0  0  0  0  0  0  0  0  0  0  0  0
    0.7903   -8.9699    0.9209 C   0  0  0  0  0  0  0  0  0  0  0  0
    1.5479  -13.4950    2.3568 C   0  0  0  0  0  0  0  0  0  0  0  0
    1.2456  -13.9001    1.1648 C   0  0  0  0  0  0  0  0  0  0  0  0
    1.0233  -13.0589    0.1983 C   0  0  0  0  0  0  0  0  0  0  0  0
    0.9548  -11.6626    0.4956 C   0  0  0  0  0  0  0  0  0  0  0  0
    0.6143   -5.6362    2.6298 C   0  0  0  0  0  0  0  0  0  0  0  0
   -0.5445   -5.0285    2.3476 C   0  0  1  0  0  0  0  0  0  0  0  0
   -1.6799   -5.5090    2.6572 C   0  0  0  0  0  0  0  0  0  0  0  0
   -0.4422   -3.6380    1.9315 C   0  0  0  0  0  0  0  0  0  0  0  0
    0.6808   -3.0242    2.0940 C   0  0  0  0  0  0  0  0  0  0  0  0
    2.0177  -14.5419    3.5797 C   0  0  0  0  0  0  0  0  0  0  0  0
    0.8559  -15.3984    3.7320 C   0  0  0  0  0  0  0  0  0  0  0  0
  3  4  1  0
  6 13  1  0
 13 14  1  0
 14 15  1  1
 14 16  1  0
 16 17  2  0
  9 18  1  0
 18 19  1  0
  1  2  2  0
  2  3  1  0
  3  8  2  0
  7  8  1  0
  6  7  2  0
  1  6  1  0
  4  5  2  0
  5  9  1  0
  9 10  2  0
 10 11  1  0
 11 12  2  0
  4 12  1  0
M  END

$$$$
No_3807-/export/home/yangzhenyu/potential_scad_32_flow//YTHDC2/2024-12-06-03-22-00/
     RDKit          3D

 18 19  0  0  1  0  0  0  0  0999 V2000
    1.1787   -8.0297    3.5154 C   0  0  0  0  0  0  0  0  0  0  0  0
    1.1048   -9.2215    3.2892 C   0  0  0  0  0  0  0  0  0  0  0  0
    1.2339   -9.7611    2.0189 C   0  0  0  0  0  0  0  0  0  0  0  0
    1.3583   -9.0036    0.9764 C   0  0  0  0  0  0  0  0  0  0  0  0
    1.5996   -7.6362    1.1311 C   0  0  0  0  0  0  0  0  0  0  0  0
    1.4830   -7.0928    2.3626 C   0  0  0  0  0  0  0  0  0  0  0  0
    1.5395   -5.7300    2.6182 C   0  0  0  0  0  0  0  0  0  0  0  0
    1.1775  -11.2233    1.8407 C   0  0  0  0  0  0  0  0  0  0  0  0
    1.9057  -12.1147    2.3397 C   0  0  0  0  0  0  0  0  0  0  0  0
    1.6867  -13.4551    2.0621 C   0  0  2  0  0  0  0  0  0  0  0  0
    0.7025  -13.8511    1.3021 C   0  0  0  0  0  0  0  0  0  0  0  0
   -0.1111  -12.9140    0.6527 C   0  0  0  0  0  0  0  0  0  0  0  0
    0.1535  -11.5434    0.9240 C   0  0  0  0  0  0  0  0  0  0  0  0
    1.6688   -5.1779    3.8866 C   0  0  0  0  0  0  0  0  0  0  0  0
    1.4123   -4.8523    1.5521 O   0  0  0  0  0  0  0  0  0  0  0  0
    2.5131  -14.4237    2.7660 Br  0  0  0  0  0  0  0  0  0  0  0  0
   -0.6892  -10.6544    0.3319 O   0  0  0  0  0  0  0  0  0  0  0  0
    1.6158   -9.3959   -0.3684 C   0  0  0  0  0  0  0  0  0  0  0  0
  6  7  1  0
  3  8  1  0
  8  9  1  0
 10 11  1  0
  8 13  1  0
 12 13  1  0
  7 14  1  0
  7 15  2  0
 10 16  1  1
 13 17  2  0
  4 18  1  0
  9 10  1  0
 11 12  1  0
  1  2  2  0
  2  3  1  0
  3  4  2  0
  4  5  1  0
  5  6  2  0
  1  6  1  0
M  END

$$$$
No_3808-/export/home/yangzhenyu/potential_scad_32_flow//YTHDC2/2024-12-06-03-22-00/
     RDKit          3D

 19 19  0  0  1  0  0  0  0  0999 V2000
    1.1787   -8.0297    3.5154 C   0  0  0  0  0  0  0  0  0  0  0  0
    1.1048   -9.2215    3.2892 C   0  0  0  0  0  0  0  0  0  0  0  0
    1.2339   -9.7611    2.0189 C   0  0  0  0  0  0  0  0  0  0  0  0
    1.4306   -8.9466    1.1170 C   0  0  0  0  0  0  0  0  0  0  0  0
    1.6532   -7.5949    1.1786 C   0  0  0  0  0  0  0  0  0  0  0  0
    1.4973   -7.0739    2.4258 C   0  0  0  0  0  0  0  0  0  0  0  0
    1.5178   -5.6803    2.7303 C   0  0  0  0  0  0  0  0  0  0  0  0
    1.2440  -11.1950    1.8087 C   0  0  0  0  0  0  0  0  0  0  0  0
    0.9365  -11.5438    0.5307 O   0  0  0  0  0  0  0  0  0  0  0  0
    1.5092  -12.0558    2.6739 O   0  0  0  0  0  0  0  0  0  0  0  0
    1.6783   -5.1514    3.9866 N   0  0  0  0  0  0  0  0  0  0  0  0
    0.9998   -4.8080    1.7570 O   0  0  0  0  0  0  0  0  0  0  0  0
    1.0854  -13.3364    2.7340 C   0  0  2  0  0  0  0  0  0  0  0  0
    1.9891  -14.4562    2.5506 C   0  0  0  0  0  0  0  0  0  0  0  0
    1.4878  -15.7476    2.7473 O   0  0  0  0  0  0  0  0  0  0  0  0
    0.3326  -15.6679    3.3914 C   0  0  0  0  0  0  0  0  0  0  0  0
   -0.0550  -13.3873    1.6822 C   0  0  0  0  0  0  0  0  0  0  0  0
   -1.2355  -12.5841    2.0782 C   0  0  0  0  0  0  0  0  0  0  0  0
   -2.0867  -12.4423    1.0473 C   0  0  0  0  0  0  0  0  0  0  0  0
  6  7  1  0
  3  8  1  0
  8  9  2  0
  8 10  1  0
  7 11  1  0
  7 12  2  0
 10 13  1  0
 13 14  1  6
 14 15  1  0
 15 16  1  0
 13 17  1  0
 17 18  1  0
 18 19  2  0
  1  2  2  0
  2  3  1  0
  3  4  2  0
  4  5  1  0
  5  6  2  0
  1  6  1  0
M  END

$$$$
No_3809-/export/home/yangzhenyu/potential_scad_32_flow//YTHDC2/2024-12-06-03-22-00/
     RDKit          3D

 18 18  0  0  0  0  0  0  0  0999 V2000
    1.1787   -8.0297    3.5154 C   0  0  0  0  0  0  0  0  0  0  0  0
    1.1048   -9.2215    3.2892 C   0  0  0  0  0  0  0  0  0  0  0  0
    1.2339   -9.7611    2.0189 C   0  0  0  0  0  0  0  0  0  0  0  0
    1.3583   -9.0036    0.9764 C   0  0  0  0  0  0  0  0  0  0  0  0
    1.7077   -9.6100   -0.3010 C   0  0  0  0  0  0  0  0  0  0  0  0
    1.3637   -7.1087    2.3226 C   0  0  0  0  0  0  0  0  0  0  0  0
    1.4257   -7.6645    1.0231 C   0  0  0  0  0  0  0  0  0  0  0  0
    1.9364   -8.8976   -1.3212 O   0  0  0  0  0  0  0  0  0  0  0  0
    1.5810  -10.8409   -0.4184 O   0  0  0  0  0  0  0  0  0  0  0  0
    1.3325   -5.6207    2.4687 I   0  0  0  0  0  0  0  0  0  0  0  0
    1.0746  -10.2643    4.3646 Cl  0  0  0  0  0  0  0  0  0  0  0  0
    1.3237  -11.1761    1.9415 O   0  0  0  0  0  0  0  0  0  0  0  0
    1.2279  -12.1758    2.5135 C   0  0  0  0  0  0  0  0  0  0  0  0
    0.1323  -13.0460    2.2772 C   0  0  0  0  0  0  0  0  0  0  0  0
   -1.0053  -12.5669    1.9003 C   0  0  0  0  0  0  0  0  0  0  0  0
    0.1951  -14.3963    2.6725 C   0  0  0  0  0  0  0  0  0  0  0  0
   -0.8112  -15.2147    2.4479 C   0  0  0  0  0  0  0  0  0  0  0  0
   -1.9611  -14.7789    2.0796 C   0  0  0  0  0  0  0  0  0  0  0  0
  4  5  1  0
  5  8  1  0
  5  9  2  0
  6 10  1  0
  2 11  1  0
  3 12  1  0
 12 13  1  0
 13 14  1  0
 14 15  2  0
 14 16  1  0
 16 17  2  3
 17 18  1  0
  1  2  2  0
  2  3  1  0
  3  4  2  0
  4  7  1  0
  6  7  2  0
  1  6  1  0
M  END

$$$$
No_3810-/export/home/yangzhenyu/potential_scad_32_flow//YTHDC2/2024-12-06-03-22-00/
     RDKit          3D

 20 22  0  0  0  0  0  0  0  0999 V2000
    1.1787   -8.0297    3.5154 C   0  0  0  0  0  0  0  0  0  0  0  0
    1.1048   -9.2215    3.2892 C   0  0  0  0  0  0  0  0  0  0  0  0
    1.2339   -9.7611    2.0189 C   0  0  0  0  0  0  0  0  0  0  0  0
    1.3583   -9.0036    0.9764 C   0  0  0  0  0  0  0  0  0  0  0  0
    1.5996   -7.6362    1.1311 C   0  0  0  0  0  0  0  0  0  0  0  0
    1.4830   -7.0928    2.3626 C   0  0  0  0  0  0  0  0  0  0  0  0
    1.1008  -11.2372    1.8542 C   0  0  0  0  0  0  0  0  0  0  0  0
    1.9749  -12.0938    2.2342 C   0  0  0  0  0  0  0  0  0  0  0  0
    1.7533  -13.4231    1.8956 C   0  0  0  0  0  0  0  0  0  0  0  0
    0.8624  -13.8318    1.1071 C   0  0  0  0  0  0  0  0  0  0  0  0
   -0.0624  -12.9093    0.5581 C   0  0  0  0  0  0  0  0  0  0  0  0
    0.1157  -11.5285    0.9404 C   0  0  0  0  0  0  0  0  0  0  0  0
    1.5561   -5.6354    2.6426 Cl  0  0  0  0  0  0  0  0  0  0  0  0
   -0.8311  -10.6449    0.4827 C   0  0  0  0  0  0  0  0  0  0  0  0
   -1.9296  -10.3450    1.3179 C   0  0  0  0  0  0  0  0  0  0  0  0
   -2.3657  -11.0960    2.2600 C   0  0  0  0  0  0  0  0  0  0  0  0
   -2.9778  -10.7766    3.4610 C   0  0  0  0  0  0  0  0  0  0  0  0
   -3.4250   -9.4695    3.4669 C   0  0  0  0  0  0  0  0  0  0  0  0
   -3.0230   -8.5042    2.5558 C   0  0  0  0  0  0  0  0  0  0  0  0
   -2.2220   -8.8691    1.4678 C   0  0  0  0  0  0  0  0  0  0  0  0
  3  7  1  0
  6 13  1  0
 12 14  1  0
 14 15  1  0
 15 16  2  0
 16 17  1  0
 17 18  2  0
 18 19  1  0
 19 20  2  0
 15 20  1  0
  1  2  2  0
  2  3  1  0
  3  4  2  0
  4  5  1  0
  5  6  2  0
  1  6  1  0
  7  8  2  0
  8  9  1  0
  9 10  2  0
 10 11  1  0
 11 12  2  0
  7 12  1  0
M  END

$$$$
No_3811-/export/home/yangzhenyu/potential_scad_32_flow//YTHDC2/2024-12-06-03-22-00/
     RDKit          3D

 18 19  0  0  1  0  0  0  0  0999 V2000
    1.1787   -8.0297    3.5154 N   0  0  0  0  0  0  0  0  0  0  0  0
    1.0818   -9.0751    3.2053 C   0  0  0  0  0  0  0  0  0  0  0  0
    1.5216  -10.1164    3.9747 C   0  0  0  0  0  0  0  0  0  0  0  0
    1.4420  -11.4363    3.6461 C   0  0  0  0  0  0  0  0  0  0  0  0
    0.5969  -11.7648    2.6785 C   0  0  0  0  0  0  0  0  0  0  0  0
    0.0096  -10.8332    1.9506 C   0  0  0  0  0  0  0  0  0  0  0  0
    0.3359   -9.5186    2.1388 C   0  0  0  0  0  0  0  0  0  0  0  0
    0.8819   -6.9011    2.6487 C   0  0  2  0  0  0  0  0  0  0  0  0
    0.4076   -7.2265    1.4607 N   0  0  0  0  0  0  0  0  0  0  0  0
    0.0633   -8.4448    1.1740 C   0  0  0  0  0  0  0  0  0  0  0  0
   -0.4997   -8.6880    0.0350 O   0  0  0  0  0  0  0  0  0  0  0  0
    1.2867   -5.5457    3.0370 N   0  0  0  0  0  0  0  0  0  0  0  0
    0.3434  -13.1871    2.4008 C   0  0  2  0  0  0  0  0  0  0  0  0
   -0.9155  -13.6049    2.2574 O   0  0  0  0  0  0  0  0  0  0  0  0
    1.4039  -14.0893    2.3632 C   0  0  0  0  0  0  0  0  0  0  0  0
    1.2161  -15.4885    2.7511 C   0  0  0  0  0  0  0  0  0  0  0  0
    0.0576  -15.6827    3.6570 C   0  0  0  0  0  0  0  0  0  0  0  0
   -0.1633  -17.0408    4.0786 C   0  0  0  0  0  0  0  0  0  0  0  0
  1  2  1  0
  8  9  1  0
  7 10  1  0
  9 10  1  0
 10 11  2  0
  8 12  1  6
  5 13  1  0
 13 14  1  1
 13 15  1  0
 15 16  2  3
 16 17  1  0
 17 18  2  0
  1  8  1  0
  2  3  2  0
  3  4  1  0
  4  5  2  0
  5  6  1  0
  6  7  2  0
  2  7  1  0
M  END

$$$$
No_3812-/export/home/yangzhenyu/potential_scad_32_flow//YTHDC2/2024-12-06-03-22-00/
     RDKit          3D

 18 19  0  0  1  0  0  0  0  0999 V2000
    1.1787   -8.0297    3.5154 C   0  0  0  0  0  0  0  0  0  0  0  0
    1.1048   -9.2215    3.2892 C   0  0  0  0  0  0  0  0  0  0  0  0
    1.2339   -9.7611    2.0189 C   0  0  0  0  0  0  0  0  0  0  0  0
    1.1954  -11.2312    1.8661 C   0  0  0  0  0  0  0  0  0  0  0  0
    1.5546  -12.1691    2.7931 C   0  0  0  0  0  0  0  0  0  0  0  0
    0.5849   -7.0929    2.5729 C   0  0  0  0  0  0  0  0  0  0  0  0
    0.5651   -5.6716    2.6680 C   0  0  2  0  0  0  0  0  0  0  0  0
    1.5967   -4.9664    3.3918 C   0  0  0  0  0  0  0  0  0  0  0  0
    1.5628  -11.6403    4.0093 C   0  0  0  0  0  0  0  0  0  0  0  0
    1.4069  -10.2615    4.3237 C   0  0  0  0  0  0  0  0  0  0  0  0
    1.2468  -13.4699    2.5357 C   0  0  0  0  0  0  0  0  0  0  0  0
    1.7639  -14.5133    3.2093 C   0  0  0  0  0  0  0  0  0  0  0  0
   -0.7490   -5.1464    2.9236 C   0  0  0  0  0  0  0  0  0  0  0  0
    1.1182  -15.8152    2.9242 C   0  0  0  0  0  0  0  0  0  0  0  0
    0.2289  -15.9967    2.0029 C   0  0  0  0  0  0  0  0  0  0  0  0
   -0.1357  -14.9341    1.2299 C   0  0  0  0  0  0  0  0  0  0  0  0
    0.3614  -13.6397    1.4487 C   0  0  0  0  0  0  0  0  0  0  0  0
   -0.7407   -3.6877    3.0207 C   0  0  0  0  0  0  0  0  0  0  0  0
  1  2  1  0
  1  6  2  3
  6  7  1  0
  7  8  1  1
  5 11  1  0
  7 13  1  0
 13 18  2  0
 11 12  2  0
 12 14  1  0
 14 15  2  0
 15 16  1  0
 16 17  2  0
 11 17  1  0
  2  3  2  0
  3  4  1  0
  4  5  2  0
  5  9  1  0
  9 10  2  0
  2 10  1  0
M  END

$$$$
No_3813-/export/home/yangzhenyu/potential_scad_32_flow//YTHDC2/2024-12-06-03-22-00/
     RDKit          3D

 17 18  0  0  0  0  0  0  0  0999 V2000
    1.1787   -8.0297    3.5154 N   0  0  0  0  0  0  0  0  0  0  0  0
    1.0818   -9.0751    3.2053 C   0  0  0  0  0  0  0  0  0  0  0  0
    0.7576   -9.3725    1.9159 C   0  0  0  0  0  0  0  0  0  0  0  0
    0.7445  -10.8746    1.6491 C   0  0  0  0  0  0  0  0  0  0  0  0
    0.9910  -11.7526    2.6067 C   0  0  0  0  0  0  0  0  0  0  0  0
    1.4405  -11.4331    3.8064 C   0  0  0  0  0  0  0  0  0  0  0  0
    1.4304  -10.0463    4.1669 C   0  0  0  0  0  0  0  0  0  0  0  0
    1.1357   -6.7948    2.7839 C   0  0  0  0  0  0  0  0  0  0  0  0
    1.2086   -5.5150    3.2459 N   0  0  0  0  0  0  0  0  0  0  0  0
    1.2290   -6.8311    1.3103 C   0  0  0  0  0  0  0  0  0  0  0  0
    0.9499  -13.1940    2.2751 C   0  0  0  0  0  0  0  0  0  0  0  0
    1.9616  -13.9345    2.2185 C   0  0  0  0  0  0  0  0  0  0  0  0
    1.7378  -15.3530    2.3399 C   0  0  0  0  0  0  0  0  0  0  0  0
    0.5570  -15.8582    2.5024 C   0  0  0  0  0  0  0  0  0  0  0  0
   -0.5346  -15.0490    2.7722 C   0  0  0  0  0  0  0  0  0  0  0  0
   -0.3752  -13.6926    2.6479 C   0  0  0  0  0  0  0  0  0  0  0  0
   -1.4205  -12.8572    2.8073 C   0  0  0  0  0  0  0  0  0  0  0  0
  1  2  1  0
  1  8  2  3
  8  9  1  0
  8 10  1  0
  5 11  1  0
 16 17  1  0
 11 12  2  0
 12 13  1  0
 13 14  2  0
 14 15  1  0
 15 16  2  0
 11 16  1  0
  2  3  2  0
  3  4  1  0
  4  5  2  0
  5  6  1  0
  6  7  2  0
  2  7  1  0
M  END

$$$$
No_3814-/export/home/yangzhenyu/potential_scad_32_flow//YTHDC2/2024-12-06-03-22-00/
     RDKit          3D

 19 20  0  0  0  0  0  0  0  0999 V2000
    1.1787   -8.0297    3.5154 C   0  0  0  0  0  0  0  0  0  0  0  0
    1.0491   -6.8434    2.9820 C   0  0  0  0  0  0  0  0  0  0  0  0
    0.9905   -9.0774    2.6527 C   0  0  0  0  0  0  0  0  0  0  0  0
    0.7897   -8.9519    1.3691 C   0  0  0  0  0  0  0  0  0  0  0  0
    0.7018   -7.7198    0.7892 C   0  0  0  0  0  0  0  0  0  0  0  0
    0.8918   -6.5957    1.6117 C   0  0  0  0  0  0  0  0  0  0  0  0
    1.0600  -10.5680    3.3321 C   0  0  0  0  0  0  0  0  0  0  0  0
    1.1634  -11.6086    2.5010 C   0  0  0  0  0  0  0  0  0  0  0  0
    1.3344  -12.8974    3.1596 C   0  0  0  0  0  0  0  0  0  0  0  0
    1.1071  -14.0522    2.4564 C   0  0  0  0  0  0  0  0  0  0  0  0
    0.1583  -14.3093    1.7064 C   0  0  0  0  0  0  0  0  0  0  0  0
    0.0841  -15.6005    1.0900 C   0  0  0  0  0  0  0  0  0  0  0  0
    1.0779  -16.5670    1.4740 C   0  0  0  0  0  0  0  0  0  0  0  0
    1.9822  -16.3763    2.4502 C   0  0  0  0  0  0  0  0  0  0  0  0
    2.1250  -15.0720    2.9874 C   0  0  0  0  0  0  0  0  0  0  0  0
    0.8551   -5.2633    1.1619 C   0  0  0  0  0  0  0  0  0  0  0  0
    0.1664   -4.2398    1.8827 C   0  0  0  0  0  0  0  0  0  0  0  0
    0.1327   -3.0955    1.3655 C   0  0  0  0  0  0  0  0  0  0  0  0
    0.9369   -1.9843    1.7568 C   0  0  0  0  0  0  0  0  0  0  0  0
  3  7  1  0
  7  8  2  3
  8  9  1  0
  9 10  1  0
  6 16  1  0
 16 17  1  0
 17 18  1  0
 18 19  1  0
  1  2  2  0
  2  6  1  0
  5  6  2  0
  4  5  1  0
  3  4  2  0
  1  3  1  0
 10 11  2  0
 11 12  1  0
 12 13  2  0
 13 14  1  0
 14 15  2  0
 10 15  1  0
M  END

$$$$
No_3815-/export/home/yangzhenyu/potential_scad_32_flow//YTHDC2/2024-12-06-03-22-00/
     RDKit          3D

 14 14  0  0  0  0  0  0  0  0999 V2000
    1.1787   -8.0297    3.5154 C   0  0  0  0  0  0  0  0  0  0  0  0
    1.0491   -6.8434    2.9820 C   0  0  0  0  0  0  0  0  0  0  0  0
    0.0950   -8.8404    3.2292 C   0  0  0  0  0  0  0  0  0  0  0  0
   -0.9173   -8.4596    2.5152 C   0  0  0  0  0  0  0  0  0  0  0  0
   -1.0331   -7.2162    2.0653 C   0  0  0  0  0  0  0  0  0  0  0  0
   -0.0105   -6.3168    2.3081 C   0  0  0  0  0  0  0  0  0  0  0  0
    0.1465  -10.2446    3.6981 C   0  0  0  0  0  0  0  0  0  0  0  0
    1.2433  -10.8239    4.0166 C   0  0  0  0  0  0  0  0  0  0  0  0
    1.0790  -12.2885    4.3779 Cl  0  0  0  0  0  0  0  0  0  0  0  0
   -0.0220   -4.8532    1.7850 C   0  0  0  0  0  0  0  0  0  0  0  0
    0.8428   -4.0176    2.3386 C   0  0  0  0  0  0  0  0  0  0  0  0
    1.0370   -2.6847    1.8574 C   0  0  0  0  0  0  0  0  0  0  0  0
   -0.6753   -4.3722    0.7967 C   0  0  0  0  0  0  0  0  0  0  0  0
   -0.7517   -3.2105    0.3213 C   0  0  0  0  0  0  0  0  0  0  0  0
  3  7  1  0
  7  8  2  3
  8  9  1  0
  6 10  1  0
 10 11  2  3
 11 12  1  0
 10 13  1  0
 13 14  2  0
  1  2  2  0
  2  6  1  0
  5  6  2  0
  4  5  1  0
  3  4  2  0
  1  3  1  0
M  END

$$$$
No_3816-/export/home/yangzhenyu/potential_scad_32_flow//YTHDC2/2024-12-06-03-22-00/
     RDKit          3D

 19 21  0  0  1  0  0  0  0  0999 V2000
    1.1787   -8.0297    3.5154 C   0  0  0  0  0  0  0  0  0  0  0  0
    1.1048   -9.2215    3.2892 C   0  0  0  0  0  0  0  0  0  0  0  0
    1.2339   -9.7611    2.0189 C   0  0  1  0  0  0  0  0  0  0  0  0
    1.1954  -11.2312    1.8661 C   0  0  0  0  0  0  0  0  0  0  0  0
    1.5546  -12.1691    2.7931 C   0  0  0  0  0  0  0  0  0  0  0  0
    0.9527   -7.0669    2.3918 C   0  0  2  0  0  0  0  0  0  0  0  0
    1.0618   -7.6392    1.0692 C   0  0  0  0  0  0  0  0  0  0  0  0
    1.2060   -8.9530    0.8578 C   0  0  0  0  0  0  0  0  0  0  0  0
    1.5159  -13.5011    2.3738 C   0  0  0  0  0  0  0  0  0  0  0  0
    1.1409  -13.8990    1.1908 C   0  0  0  0  0  0  0  0  0  0  0  0
    0.9249  -13.0546    0.2183 C   0  0  0  0  0  0  0  0  0  0  0  0
    0.9227  -11.6707    0.5316 C   0  0  0  0  0  0  0  0  0  0  0  0
    1.0078   -5.6071    2.4628 C   0  0  0  0  0  0  0  0  0  0  0  0
    1.4830   -9.3509   -0.3550 O   0  0  0  0  0  0  0  0  0  0  0  0
    0.3308   -4.9161    1.6294 C   0  0  0  0  0  0  0  0  0  0  0  0
    0.0356   -3.6737    1.9200 C   0  0  0  0  0  0  0  0  0  0  0  0
    0.7041   -2.9967    3.0728 C   0  0  0  0  0  0  0  0  0  0  0  0
    1.4745   -3.8088    3.9624 C   0  0  0  0  0  0  0  0  0  0  0  0
    1.6096   -5.1269    3.7243 C   0  0  0  0  0  0  0  0  0  0  0  0
  1  2  1  0
  3  4  1  6
  6  7  1  0
  3  8  1  0
  7  8  1  0
  6 13  1  6
  8 14  2  0
  2  3  1  0
  1  6  1  0
 13 15  2  0
 15 16  1  0
 16 17  2  0
 17 18  1  0
 18 19  2  0
 13 19  1  0
  4  5  2  0
  5  9  1  0
  9 10  2  0
 10 11  1  0
 11 12  2  0
  4 12  1  0
M  END

$$$$
No_3817-/export/home/yangzhenyu/potential_scad_32_flow//YTHDC2/2024-12-06-03-22-00/
     RDKit          3D

 19 20  0  0  0  0  0  0  0  0999 V2000
    1.1787   -8.0297    3.5154 C   0  0  0  0  0  0  0  0  0  0  0  0
    1.0491   -6.8434    2.9820 C   0  0  0  0  0  0  0  0  0  0  0  0
    1.9985   -8.9840    2.8958 C   0  0  0  0  0  0  0  0  0  0  0  0
    1.1815  -10.1889    2.5497 C   0  0  0  0  0  0  0  0  0  0  0  0
    0.9817  -11.1388    2.8134 C   0  0  0  0  0  0  0  0  0  0  0  0
    0.1125  -12.0891    2.4837 C   0  0  0  0  0  0  0  0  0  0  0  0
   -0.6446  -11.8250    1.4596 C   0  0  0  0  0  0  0  0  0  0  0  0
   -0.2941  -10.7598    0.6431 C   0  0  0  0  0  0  0  0  0  0  0  0
    0.5711   -9.8346    1.1239 C   0  0  0  0  0  0  0  0  0  0  0  0
    0.3257   -6.8342    1.7752 C   0  0  0  0  0  0  0  0  0  0  0  0
   -0.0217   -5.6805    1.1562 C   0  0  0  0  0  0  0  0  0  0  0  0
    0.4056   -4.4833    1.6886 C   0  0  0  0  0  0  0  0  0  0  0  0
    1.3105   -4.4840    2.7880 C   0  0  0  0  0  0  0  0  0  0  0  0
    1.6041   -5.6844    3.4590 C   0  0  0  0  0  0  0  0  0  0  0  0
    1.0672   -8.8800    0.2416 C   0  0  0  0  0  0  0  0  0  0  0  0
    2.3210   -8.4514    0.1002 C   0  0  0  0  0  0  0  0  0  0  0  0
    0.2856   -8.5716   -0.8621 O   0  0  0  0  0  0  0  0  0  0  0  0
   -0.1578  -13.5174    3.3723 Cl  0  0  0  0  0  0  0  0  0  0  0  0
    0.2022   -3.2931    0.9738 Cl  0  0  0  0  0  0  0  0  0  0  0  0
  1  2  1  0
  1  3  1  0
  3  4  1  0
  9 15  1  0
 15 16  1  0
 15 17  2  0
  6 18  1  0
 12 19  1  0
  2 10  2  0
 10 11  1  0
 11 12  2  0
 12 13  1  0
 13 14  2  0
  2 14  1  0
  4  5  2  0
  5  6  1  0
  6  7  2  0
  7  8  1  0
  8  9  2  0
  4  9  1  0
M  END

$$$$
No_3818-/export/home/yangzhenyu/potential_scad_32_flow//YTHDC2/2024-12-06-03-22-00/
     RDKit          3D

 19 20  0  0  1  0  0  0  0  0999 V2000
    1.1787   -8.0297    3.5154 O   0  0  0  0  0  0  0  0  0  0  0  0
    0.9969   -8.9689    3.0048 C   0  0  0  0  0  0  0  0  0  0  0  0
    1.3055  -10.1056    3.6616 C   0  0  0  0  0  0  0  0  0  0  0  0
    1.1249  -11.3503    3.0941 C   0  0  0  0  0  0  0  0  0  0  0  0
    0.6932  -11.4484    1.8586 C   0  0  0  0  0  0  0  0  0  0  0  0
    0.5498  -10.3736    1.0579 C   0  0  0  0  0  0  0  0  0  0  0  0
    0.7643   -9.1185    1.6383 C   0  0  0  0  0  0  0  0  0  0  0  0
    0.5937   -7.8467    1.0482 C   0  0  0  0  0  0  0  0  0  0  0  0
    1.5294   -7.0230    1.0749 O   0  0  0  0  0  0  0  0  0  0  0  0
   -0.3798   -7.6033    0.1974 N   0  0  0  0  0  0  0  0  0  0  0  0
    1.1887  -12.6463    3.8406 C   0  0  0  0  0  0  0  0  0  0  0  0
    0.4122  -13.7507    3.2142 N   0  0  0  0  0  0  0  0  0  0  0  0
    1.2497  -14.8829    3.1327 C   0  0  0  0  0  0  0  0  0  0  0  0
    0.5758  -16.1104    2.8235 C   0  0  2  0  0  0  0  0  0  0  0  0
   -0.5646  -16.0470    2.3969 C   0  0  0  0  0  0  0  0  0  0  0  0
   -1.0976  -17.3285    2.2589 C   0  0  0  0  0  0  0  0  0  0  0  0
    0.1263  -18.2612    2.6141 C   0  0  0  0  0  0  0  0  0  0  0  0
    1.0989  -17.2923    3.0415 C   0  0  0  0  0  0  0  0  0  0  0  0
    2.6261  -14.7101    3.0578 O   0  0  0  0  0  0  0  0  0  0  0  0
  1  2  1  0
  7  8  1  0
  8  9  2  0
  8 10  1  0
  4 11  1  0
 11 12  1  0
 12 13  1  0
 14 13  1  1
 14 15  1  0
 15 16  2  0
 16 17  1  0
 14 18  1  0
 17 18  1  0
 13 19  2  0
  2  3  2  0
  3  4  1  0
  4  5  2  0
  5  6  1  0
  6  7  2  0
  2  7  1  0
M  END

$$$$
No_3819-/export/home/yangzhenyu/potential_scad_32_flow//YTHDC2/2024-12-06-03-22-00/
     RDKit          3D

 19 19  0  0  1  0  0  0  0  0999 V2000
    1.1787   -8.0297    3.5154 C   0  0  0  0  0  0  0  0  0  0  0  0
    1.0491   -6.8434    2.9820 C   0  0  0  0  0  0  0  0  0  0  0  0
    0.0950   -8.8404    3.2292 C   0  0  0  0  0  0  0  0  0  0  0  0
    0.0602  -10.1764    3.8231 C   0  0  0  0  0  0  0  0  0  0  0  0
    0.2248   -6.3830    2.0648 C   0  0  0  0  0  0  0  0  0  0  0  0
   -0.6745   -7.2322    1.6857 C   0  0  0  0  0  0  0  0  0  0  0  0
   -0.7374   -8.4992    2.1291 C   0  0  0  0  0  0  0  0  0  0  0  0
   -0.1792  -11.3045    3.0702 C   0  0  0  0  0  0  0  0  0  0  0  0
    0.7825  -12.3781    3.1611 C   0  0  2  0  0  0  0  0  0  0  0  0
    1.9699  -12.1253    3.5164 C   0  0  0  0  0  0  0  0  0  0  0  0
    0.4352   -5.1058    1.4255 O   0  0  0  0  0  0  0  0  0  0  0  0
    0.7523  -13.2627    2.0085 C   0  0  0  0  0  0  0  0  0  0  0  0
    0.6921  -12.8745    0.9474 C   0  0  0  0  0  0  0  0  0  0  0  0
    1.6280  -11.7779    0.6428 C   0  0  0  0  0  0  0  0  0  0  0  0
    1.1502  -10.5877    0.1613 C   0  0  1  0  0  0  0  0  0  0  0  0
   -0.1896  -10.5239   -0.0481 C   0  0  0  0  0  0  0  0  0  0  0  0
    1.9523   -9.4444    0.0968 C   0  0  0  0  0  0  0  0  0  0  0  0
    2.9044   -9.1340    0.9645 O   0  0  0  0  0  0  0  0  0  0  0  0
    1.8570   -8.4611   -0.8704 O   0  0  0  0  0  0  0  0  0  0  0  0
  3  4  1  0
  4  8  1  0
  8  9  1  0
  9 10  1  6
  5 11  1  0
  9 12  1  0
 12 13  1  0
 13 14  1  0
 14 15  1  0
 15 16  1  1
 15 17  1  0
 17 18  2  0
 17 19  1  0
  1  2  2  0
  2  5  1  0
  5  6  2  0
  6  7  1  0
  3  7  2  0
  1  3  1  0
M  END

$$$$
No_3820-/export/home/yangzhenyu/potential_scad_32_flow//YTHDC2/2024-12-06-03-22-00/
     RDKit          3D

 19 20  0  0  0  0  0  0  0  0999 V2000
    1.1787   -8.0297    3.5154 N   0  0  0  0  0  0  0  0  0  0  0  0
    1.0818   -9.0751    3.2053 C   0  0  0  0  0  0  0  0  0  0  0  0
    1.5216  -10.1164    3.9747 C   0  0  0  0  0  0  0  0  0  0  0  0
    1.4420  -11.4363    3.6461 C   0  0  0  0  0  0  0  0  0  0  0  0
    0.5969  -11.7648    2.6785 C   0  0  0  0  0  0  0  0  0  0  0  0
    0.0096  -10.8332    1.9506 C   0  0  0  0  0  0  0  0  0  0  0  0
    0.3359   -9.5186    2.1388 C   0  0  0  0  0  0  0  0  0  0  0  0
    0.8819   -6.9011    2.6487 C   0  0  0  0  0  0  0  0  0  0  0  0
    0.4076   -7.2265    1.4607 C   0  0  0  0  0  0  0  0  0  0  0  0
    0.0604   -8.4780    1.1746 C   0  0  0  0  0  0  0  0  0  0  0  0
   -0.5471   -8.7214    0.0063 C   0  0  0  0  0  0  0  0  0  0  0  0
   -1.8401   -9.2136    0.0266 C   0  0  0  0  0  0  0  0  0  0  0  0
    0.0143   -6.1068    0.7914 O   0  0  0  0  0  0  0  0  0  0  0  0
   -2.3826   -9.5716   -1.3536 C   0  0  0  0  0  0  0  0  0  0  0  0
   -2.9198  -10.5871   -1.5693 C   0  0  0  0  0  0  0  0  0  0  0  0
   -3.2311  -11.5395   -0.4645 C   0  0  0  0  0  0  0  0  0  0  0  0
   -3.8010  -12.7654   -0.8118 C   0  0  0  0  0  0  0  0  0  0  0  0
   -4.1368  -13.0059   -1.9743 N   0  0  0  0  0  0  0  0  0  0  0  0
   -3.1658  -11.0222   -2.8673 N   0  0  0  0  0  0  0  0  0  0  0  0
  1  2  1  0
  8  9  1  0
  7 10  1  0
  9 10  1  0
 10 11  1  0
 11 12  2  3
  9 13  2  0
 12 14  1  0
 14 15  2  3
 15 16  1  0
 16 17  1  0
 17 18  1  0
 15 19  1  0
  1  8  1  0
  2  3  2  0
  3  4  1  0
  4  5  2  0
  5  6  1  0
  6  7  2  0
  2  7  1  0
M  END

$$$$
No_3821-/export/home/yangzhenyu/potential_scad_32_flow//YTHDC2/2024-12-06-03-22-00/
     RDKit          3D

 17 18  0  0  0  0  0  0  0  0999 V2000
    1.1787   -8.0297    3.5154 C   0  0  0  0  0  0  0  0  0  0  0  0
    1.1048   -9.2215    3.2892 C   0  0  0  0  0  0  0  0  0  0  0  0
    1.2339   -9.7611    2.0189 C   0  0  0  0  0  0  0  0  0  0  0  0
    1.3583   -9.0036    0.9764 C   0  0  0  0  0  0  0  0  0  0  0  0
    1.5996   -7.6362    1.1311 C   0  0  0  0  0  0  0  0  0  0  0  0
    1.4830   -7.0928    2.3626 C   0  0  0  0  0  0  0  0  0  0  0  0
    1.1008  -11.2372    1.8542 C   0  0  0  0  0  0  0  0  0  0  0  0
    0.5178  -11.9759    2.3445 C   0  0  0  0  0  0  0  0  0  0  0  0
    0.4575  -13.3705    2.1281 C   0  0  0  0  0  0  0  0  0  0  0  0
   -0.4455  -13.9844    1.5571 C   0  0  0  0  0  0  0  0  0  0  0  0
   -0.4379  -15.3838    1.3066 N   0  0  0  0  0  0  0  0  0  0  0  0
    0.7405  -15.8714    1.9346 C   0  0  0  0  0  0  0  0  0  0  0  0
    1.4364  -14.7639    2.6030 C   0  0  0  0  0  0  0  0  0  0  0  0
    1.5599   -5.6609    2.6630 C   0  0  0  0  0  0  0  0  0  0  0  0
    1.2230  -17.0914    2.2133 C   0  0  0  0  0  0  0  0  0  0  0  0
    2.4251  -17.3964    1.8141 C   0  0  0  0  0  0  0  0  0  0  0  0
    2.8661  -18.6914    2.2436 C   0  0  0  0  0  0  0  0  0  0  0  0
  3  7  1  0
  7  8  2  3
  8  9  1  0
  9 10  2  0
 10 11  1  0
 11 12  2  0
  9 13  1  0
 12 13  1  0
  6 14  1  0
 12 15  1  0
 15 16  1  0
 16 17  2  0
  1  2  2  0
  2  3  1  0
  3  4  2  0
  4  5  1  0
  5  6  2  0
  1  6  1  0
M  END

$$$$
No_3822-/export/home/yangzhenyu/potential_scad_32_flow//YTHDC2/2024-12-06-03-22-00/
     RDKit          3D

 18 20  0  0  1  0  0  0  0  0999 V2000
    1.1787   -8.0297    3.5154 C   0  0  0  0  0  0  0  0  0  0  0  0
    1.0491   -6.8434    2.9820 C   0  0  0  0  0  0  0  0  0  0  0  0
    0.0950   -8.8404    3.2292 C   0  0  0  0  0  0  0  0  0  0  0  0
   -0.7663   -8.2602    2.4375 C   0  0  0  0  0  0  0  0  0  0  0  0
   -0.3589   -6.8665    2.1913 C   0  0  2  0  0  0  0  0  0  0  0  0
    0.1663  -10.2527    3.6182 C   0  0  0  0  0  0  0  0  0  0  0  0
    0.1296  -11.2777    2.8027 C   0  0  1  0  0  0  0  0  0  0  0  0
   -0.4131  -11.3927    1.7542 N   0  0  0  0  0  0  0  0  0  0  0  0
    1.0414  -12.4038    3.1896 C   0  0  0  0  0  0  0  0  0  0  0  0
    1.1431  -13.5122    2.4319 C   0  0  0  0  0  0  0  0  0  0  0  0
    1.9717  -14.6832    3.0336 C   0  0  0  0  0  0  0  0  0  0  0  0
   -0.6188  -11.8352    0.8253 C   0  0  0  0  0  0  0  0  0  0  0  0
    0.1518  -13.1567    0.5254 C   0  0  0  0  0  0  0  0  0  0  0  0
    0.8765  -13.9549    1.1922 C   0  0  0  0  0  0  0  0  0  0  0  0
   -0.2835   -6.5583    0.7341 C   0  0  0  0  0  0  0  0  0  0  0  0
   -0.3299   -5.1915    0.6100 C   0  0  0  0  0  0  0  0  0  0  0  0
   -0.4496   -4.5724    1.9617 C   0  0  0  0  0  0  0  0  0  0  0  0
   -0.5020   -5.6637    2.9183 C   0  0  0  0  0  0  0  0  0  0  0  0
  1  2  1  0
  1  3  2  0
  3  4  1  0
  5  2  1  1
  4  5  1  0
  3  6  1  0
  7  6  1  6
  7  8  1  0
  7  9  1  0
  9 10  2  0
 10 11  1  0
  8 12  2  0
 12 13  1  0
 10 14  1  0
 13 14  1  0
  5 15  1  0
 15 16  2  0
 16 17  1  0
  5 18  1  0
 17 18  1  0
M  END

$$$$
No_3823-/export/home/yangzhenyu/potential_scad_32_flow//YTHDC2/2024-12-06-03-22-00/
     RDKit          3D

 20 22  0  0  0  0  0  0  0  0999 V2000
    1.1787   -8.0297    3.5154 C   0  0  0  0  0  0  0  0  0  0  0  0
    1.1048   -9.2215    3.2892 C   0  0  0  0  0  0  0  0  0  0  0  0
    1.0239   -9.7790    2.0239 C   0  0  0  0  0  0  0  0  0  0  0  0
    1.2490   -9.1017    1.1040 C   0  0  0  0  0  0  0  0  0  0  0  0
    1.5689   -7.7608    1.1010 C   0  0  0  0  0  0  0  0  0  0  0  0
    1.5562   -7.1368    2.3144 C   0  0  0  0  0  0  0  0  0  0  0  0
    1.6692   -5.7588    2.5078 C   0  0  0  0  0  0  0  0  0  0  0  0
    0.9154  -11.2407    1.9833 C   0  0  0  0  0  0  0  0  0  0  0  0
    1.8769  -12.0805    2.1278 C   0  0  0  0  0  0  0  0  0  0  0  0
    1.7018  -13.4601    1.9175 C   0  0  0  0  0  0  0  0  0  0  0  0
    0.5048  -13.9087    1.6875 C   0  0  0  0  0  0  0  0  0  0  0  0
   -0.5967  -13.1874    1.6460 C   0  0  0  0  0  0  0  0  0  0  0  0
   -0.3918  -11.7882    1.7089 C   0  0  0  0  0  0  0  0  0  0  0  0
    0.3325  -15.5637    1.5818 C   0  0  0  0  0  0  0  0  0  0  0  0
   -0.0417  -16.0596    0.7012 C   0  0  0  0  0  0  0  0  0  0  0  0
    0.7769  -16.2229    2.8256 C   0  0  0  0  0  0  0  0  0  0  0  0
    0.8467  -17.2346    3.1335 C   0  0  0  0  0  0  0  0  0  0  0  0
    0.2522  -18.1096    2.0792 C   0  0  0  0  0  0  0  0  0  0  0  0
   -0.1134  -17.5170    0.8170 C   0  0  0  0  0  0  0  0  0  0  0  0
    1.4378   -4.8605    1.4661 O   0  0  0  0  0  0  0  0  0  0  0  0
  6  7  1  0
  3  8  1  0
 11 14  1  0
  7 20  2  0
  1  2  2  0
  2  3  1  0
  3  4  2  0
  4  5  1  0
  5  6  2  0
  1  6  1  0
  8  9  2  0
  9 10  1  0
 10 11  2  0
 11 12  1  0
 12 13  2  0
  8 13  1  0
 14 15  2  0
 15 19  1  0
 18 19  2  0
 17 18  1  0
 16 17  2  0
 14 16  1  0
M  END

$$$$
No_3824-/export/home/yangzhenyu/potential_scad_32_flow//YTHDC2/2024-12-06-03-22-00/
     RDKit          3D

 17 17  0  0  1  0  0  0  0  0999 V2000
    1.1787   -8.0297    3.5154 C   0  0  0  0  0  0  0  0  0  0  0  0
    1.1048   -9.2215    3.2892 C   0  0  0  0  0  0  0  0  0  0  0  0
    1.2339   -9.7611    2.0189 C   0  0  0  0  0  0  0  0  0  0  0  0
    1.1954  -11.2312    1.8661 C   0  0  0  0  0  0  0  0  0  0  0  0
    1.5546  -12.1691    2.7931 C   0  0  0  0  0  0  0  0  0  0  0  0
    0.9527   -7.0669    2.3918 C   0  0  0  0  0  0  0  0  0  0  0  0
    1.0618   -7.6392    1.0692 C   0  0  0  0  0  0  0  0  0  0  0  0
    1.2060   -8.9530    0.8578 C   0  0  0  0  0  0  0  0  0  0  0  0
    1.4025  -12.0925    3.8150 C   0  0  0  0  0  0  0  0  0  0  0  0
    2.2225  -13.3800    2.1811 C   0  0  0  0  0  0  0  0  0  0  0  0
    0.9574   -5.4684    2.5146 C   0  0  2  0  0  0  0  0  0  0  0  0
    2.3399  -14.4887    2.9211 C   0  0  0  0  0  0  0  0  0  0  0  0
    2.6741  -15.7264    2.1067 C   0  0  0  0  0  0  0  0  0  0  0  0
    1.7189  -16.8703    2.2582 N   0  0  0  0  0  0  0  0  0  0  0  0
    1.7177   -5.1381    3.4875 N   0  0  0  0  0  0  0  0  0  0  0  0
    0.2199   -4.8995    1.7884 F   0  0  0  0  0  0  0  0  0  0  0  0
    2.3588  -18.0337    1.9634 C   0  0  0  0  0  0  0  0  0  0  0  0
  3  4  1  0
  4  5  1  0
  5  9  2  0
  5 10  1  0
  6 11  1  0
 10 12  2  3
 12 13  1  0
 13 14  1  0
 11 15  1  1
 11 16  1  0
 14 17  1  0
  1  2  2  0
  2  3  1  0
  3  8  2  0
  7  8  1  0
  6  7  2  0
  1  6  1  0
M  END

$$$$
No_3825-/export/home/yangzhenyu/potential_scad_32_flow//YTHDC2/2024-12-06-03-22-00/
     RDKit          3D

 19 20  0  0  0  0  0  0  0  0999 V2000
    1.1787   -8.0297    3.5154 C   0  0  0  0  0  0  0  0  0  0  0  0
    1.0491   -6.8434    2.9820 C   0  0  0  0  0  0  0  0  0  0  0  0
    1.9985   -8.9840    2.8958 C   0  0  0  0  0  0  0  0  0  0  0  0
    1.7297   -9.2108    1.6335 C   0  0  0  0  0  0  0  0  0  0  0  0
    1.5234   -8.1478    0.8618 C   0  0  0  0  0  0  0  0  0  0  0  0
    0.7424   -5.6589    3.4622 C   0  0  0  0  0  0  0  0  0  0  0  0
    1.1288   -6.9849    1.4057 C   0  0  0  0  0  0  0  0  0  0  0  0
   -0.4145   -5.1124    2.9281 O   0  0  0  0  0  0  0  0  0  0  0  0
    1.7601   -4.6441    3.5191 O   0  0  0  0  0  0  0  0  0  0  0  0
    2.0979  -10.2924    3.6998 C   0  0  0  0  0  0  0  0  0  0  0  0
    1.8543  -11.3658    3.7573 C   0  0  0  0  0  0  0  0  0  0  0  0
    0.6011  -11.6382    3.0363 C   0  0  0  0  0  0  0  0  0  0  0  0
    0.5322  -12.9421    2.3861 C   0  0  0  0  0  0  0  0  0  0  0  0
   -0.5994  -13.3498    1.7405 C   0  0  0  0  0  0  0  0  0  0  0  0
   -1.6750  -12.5549    1.8225 C   0  0  0  0  0  0  0  0  0  0  0  0
   -1.6538  -11.3513    2.4991 C   0  0  0  0  0  0  0  0  0  0  0  0
   -0.4739  -10.9180    3.1963 C   0  0  0  0  0  0  0  0  0  0  0  0
    1.8690  -13.9234    2.2352 C   0  0  0  0  0  0  0  0  0  0  0  0
    1.8363  -14.9188    3.1415 N   0  0  0  0  0  0  0  0  0  0  0  0
  2  6  1  0
  6  8  1  0
  6  9  1  0
  3 10  1  0
 10 11  2  3
 11 12  1  0
 13 18  1  0
 18 19  1  0
  1  2  2  0
  2  7  1  0
  5  7  2  0
  4  5  1  0
  3  4  2  0
  1  3  1  0
 12 13  2  0
 13 14  1  0
 14 15  2  0
 15 16  1  0
 16 17  2  0
 12 17  1  0
M  END

$$$$
No_3826-/export/home/yangzhenyu/potential_scad_32_flow//YTHDC2/2024-12-06-03-22-00/
     RDKit          3D

 21 22  0  0  0  0  0  0  0  0999 V2000
    1.1787   -8.0297    3.5154 C   0  0  0  0  0  0  0  0  0  0  0  0
    1.0491   -6.8434    2.9820 C   0  0  0  0  0  0  0  0  0  0  0  0
    0.0950   -8.8404    3.2292 C   0  0  0  0  0  0  0  0  0  0  0  0
   -0.9173   -8.4596    2.5152 C   0  0  0  0  0  0  0  0  0  0  0  0
   -1.0331   -7.2162    2.0653 C   0  0  0  0  0  0  0  0  0  0  0  0
   -2.2155   -6.7621    1.5011 C   0  0  0  0  0  0  0  0  0  0  0  0
    0.0919   -6.3006    2.2576 C   0  0  0  0  0  0  0  0  0  0  0  0
   -2.4371   -7.0823    0.2852 C   0  0  0  0  0  0  0  0  0  0  0  0
   -3.3720   -6.4107   -0.4378 C   0  0  0  0  0  0  0  0  0  0  0  0
   -4.0964   -5.4001    0.0970 C   0  0  0  0  0  0  0  0  0  0  0  0
   -3.8853   -4.9724    1.3811 C   0  0  0  0  0  0  0  0  0  0  0  0
   -2.8450   -5.6540    2.0981 C   0  0  0  0  0  0  0  0  0  0  0  0
    0.1694  -10.2366    3.8695 C   0  0  0  0  0  0  0  0  0  0  0  0
   -0.9968  -10.9540    3.9960 O   0  0  0  0  0  0  0  0  0  0  0  0
    1.1461  -10.6526    4.6527 N   0  0  0  0  0  0  0  0  0  0  0  0
    1.9333  -11.6772    4.3324 C   0  0  0  0  0  0  0  0  0  0  0  0
    1.4397  -12.5152    3.2970 C   0  0  0  0  0  0  0  0  0  0  0  0
    1.5067  -12.1256    1.9819 C   0  0  0  0  0  0  0  0  0  0  0  0
    1.0769  -12.7647    0.9641 C   0  0  0  0  0  0  0  0  0  0  0  0
    0.5056  -14.0178    1.2691 C   0  0  0  0  0  0  0  0  0  0  0  0
    0.4280  -14.4999    2.4790 C   0  0  0  0  0  0  0  0  0  0  0  0
  5  6  1  0
  3 13  1  0
 13 14  2  0
 13 15  1  0
 15 16  1  0
 16 17  1  0
 17 18  1  0
 18 19  2  3
 19 20  1  0
 20 21  2  0
  1  2  2  0
  2  7  1  0
  5  7  2  0
  4  5  1  0
  3  4  2  0
  1  3  1  0
  6  8  2  0
  8  9  1  0
  9 10  2  0
 10 11  1  0
 11 12  2  0
  6 12  1  0
M  END

$$$$
No_3827-/export/home/yangzhenyu/potential_scad_32_flow//YTHDC2/2024-12-06-03-22-00/
     RDKit          3D

 19 20  0  0  1  0  0  0  0  0999 V2000
    1.1787   -8.0297    3.5154 C   0  0  0  0  0  0  0  0  0  0  0  0
    1.1048   -9.2215    3.2892 C   0  0  0  0  0  0  0  0  0  0  0  0
    1.2339   -9.7611    2.0189 C   0  0  0  0  0  0  0  0  0  0  0  0
    1.3583   -9.0036    0.9764 C   0  0  0  0  0  0  0  0  0  0  0  0
    1.5996   -7.6362    1.1311 C   0  0  0  0  0  0  0  0  0  0  0  0
    1.4830   -7.0928    2.3626 C   0  0  0  0  0  0  0  0  0  0  0  0
    1.5395   -5.7300    2.6182 C   0  0  0  0  0  0  0  0  0  0  0  0
    1.1775  -11.2233    1.8407 C   0  0  0  0  0  0  0  0  0  0  0  0
    1.9057  -12.1147    2.3397 C   0  0  0  0  0  0  0  0  0  0  0  0
    1.6867  -13.4551    2.0621 C   0  0  2  0  0  0  0  0  0  0  0  0
    0.7025  -13.8511    1.3021 C   0  0  0  0  0  0  0  0  0  0  0  0
   -0.1111  -12.9140    0.6527 C   0  0  0  0  0  0  0  0  0  0  0  0
    0.1535  -11.5434    0.9240 C   0  0  0  0  0  0  0  0  0  0  0  0
    1.2825   -4.8055    1.6933 O   0  0  0  0  0  0  0  0  0  0  0  0
    1.5277   -5.1878    3.9178 O   0  0  0  0  0  0  0  0  0  0  0  0
    2.6263  -14.5793    2.8656 Cl  0  0  0  0  0  0  0  0  0  0  0  0
   -0.7731  -10.7072    0.4290 O   0  0  0  0  0  0  0  0  0  0  0  0
    1.6052   -9.3985   -0.3632 C   0  0  0  0  0  0  0  0  0  0  0  0
    2.4185  -10.2913   -0.7274 O   0  0  0  0  0  0  0  0  0  0  0  0
  6  7  1  0
  3  8  1  0
  8  9  1  0
 10 11  1  0
  8 13  1  0
 12 13  1  0
  7 14  2  0
  7 15  1  0
 10 16  1  1
 13 17  2  0
  4 18  1  0
 18 19  2  0
  9 10  1  0
 11 12  1  0
  1  2  2  0
  2  3  1  0
  3  4  2  0
  4  5  1  0
  5  6  2  0
  1  6  1  0
M  END

$$$$
No_3828-/export/home/yangzhenyu/potential_scad_32_flow//YTHDC2/2024-12-06-03-22-00/
     RDKit          3D

 18 19  0  0  0  0  0  0  0  0999 V2000
    1.1787   -8.0297    3.5154 C   0  0  0  0  0  0  0  0  0  0  0  0
    1.1048   -9.2215    3.2892 C   0  0  0  0  0  0  0  0  0  0  0  0
    1.2339   -9.7611    2.0189 C   0  0  0  0  0  0  0  0  0  0  0  0
    1.3583   -9.0036    0.9764 C   0  0  0  0  0  0  0  0  0  0  0  0
    1.5996   -7.6362    1.1311 C   0  0  0  0  0  0  0  0  0  0  0  0
    1.4830   -7.0928    2.3626 C   0  0  0  0  0  0  0  0  0  0  0  0
    1.3121   -5.7497    2.5440 C   0  0  0  0  0  0  0  0  0  0  0  0
    1.1998  -11.2296    1.8484 C   0  0  0  0  0  0  0  0  0  0  0  0
    0.8758  -11.6194    0.5866 N   0  0  0  0  0  0  0  0  0  0  0  0
    1.5373  -12.0733    2.7547 N   0  0  0  0  0  0  0  0  0  0  0  0
    1.5215  -13.3822    2.3998 C   0  0  0  0  0  0  0  0  0  0  0  0
    1.1539  -13.3701    1.0439 C   0  0  0  0  0  0  0  0  0  0  0  0
    1.8273  -14.5292    2.9155 C   0  0  0  0  0  0  0  0  0  0  0  0
    1.3562  -15.7631    2.3036 C   0  0  0  0  0  0  0  0  0  0  0  0
    0.0410  -15.9421    2.5565 C   0  0  0  0  0  0  0  0  0  0  0  0
   -0.4620  -17.1937    2.3190 C   0  0  0  0  0  0  0  0  0  0  0  0
    0.3542  -18.2012    1.8830 C   0  0  0  0  0  0  0  0  0  0  0  0
    1.7427  -18.0065    1.8222 C   0  0  0  0  0  0  0  0  0  0  0  0
  6  7  1  0
  3  8  1  0
  8  9  2  0
  8 10  1  0
 10 11  2  0
  9 12  1  0
 11 12  1  0
 11 13  1  0
 13 14  1  0
 14 15  1  0
 15 16  2  3
 16 17  1  0
 17 18  2  0
  1  2  2  0
  2  3  1  0
  3  4  2  0
  4  5  1  0
  5  6  2  0
  1  6  1  0
M  END

$$$$
No_3829-/export/home/yangzhenyu/potential_scad_32_flow//YTHDC2/2024-12-06-03-22-00/
     RDKit          3D

 17 18  0  0  1  0  0  0  0  0999 V2000
    1.1787   -8.0297    3.5154 C   0  0  0  0  0  0  0  0  0  0  0  0
    1.0491   -6.8434    2.9820 C   0  0  0  0  0  0  0  0  0  0  0  0
    0.9905   -9.0774    2.6527 C   0  0  0  0  0  0  0  0  0  0  0  0
    0.7897   -8.9519    1.3691 C   0  0  0  0  0  0  0  0  0  0  0  0
    0.7018   -7.7198    0.7892 C   0  0  0  0  0  0  0  0  0  0  0  0
    0.8918   -6.5957    1.6117 C   0  0  0  0  0  0  0  0  0  0  0  0
    1.0998  -10.4710    3.2437 C   0  0  1  0  0  0  0  0  0  0  0  0
    0.0472  -11.2546    3.3963 C   0  0  0  0  0  0  0  0  0  0  0  0
   -1.1989  -10.6161    3.7011 C   0  0  0  0  0  0  0  0  0  0  0  0
    0.8603   -5.2612    1.2139 C   0  0  0  0  0  0  0  0  0  0  0  0
   -2.3157  -10.8626    3.0665 C   0  0  0  0  0  0  0  0  0  0  0  0
   -3.5218  -10.1519    3.4179 C   0  0  0  0  0  0  0  0  0  0  0  0
   -4.5360  -10.4327    2.8861 C   0  0  0  0  0  0  0  0  0  0  0  0
   -4.6431  -11.4468    1.9491 C   0  0  0  0  0  0  0  0  0  0  0  0
   -3.5480  -12.1575    1.5944 C   0  0  0  0  0  0  0  0  0  0  0  0
   -2.3002  -11.8521    2.1447 C   0  0  0  0  0  0  0  0  0  0  0  0
    2.3693  -10.8692    3.4172 C   0  0  0  0  0  0  0  0  0  0  0  0
  3  7  1  0
  7  8  1  0
  8  9  1  0
  6 10  1  0
  7 17  1  6
  9 11  1  0
 11 12  2  0
 12 13  1  0
 13 14  2  0
 14 15  1  0
 15 16  2  0
 11 16  1  0
  1  2  2  0
  2  6  1  0
  5  6  2  0
  4  5  1  0
  3  4  2  0
  1  3  1  0
M  END

$$$$
No_3830-/export/home/yangzhenyu/potential_scad_32_flow//YTHDC2/2024-12-06-03-22-00/
     RDKit          3D

 18 20  0  0  0  0  0  0  0  0999 V2000
    1.1787   -8.0297    3.5154 C   0  0  0  0  0  0  0  0  0  0  0  0
    1.1048   -9.2215    3.2892 C   0  0  0  0  0  0  0  0  0  0  0  0
    1.3627  -10.1721    4.3044 C   0  0  0  0  0  0  0  0  0  0  0  0
    1.0682  -11.5187    4.0618 C   0  0  0  0  0  0  0  0  0  0  0  0
    0.6332  -11.9655    2.9682 C   0  0  0  0  0  0  0  0  0  0  0  0
    0.4776  -11.1308    1.9203 C   0  0  0  0  0  0  0  0  0  0  0  0
    0.7470   -9.8274    2.0368 C   0  0  0  0  0  0  0  0  0  0  0  0
    1.0387   -7.0301    2.5175 C   0  0  0  0  0  0  0  0  0  0  0  0
    0.9130   -7.5288    1.2013 C   0  0  0  0  0  0  0  0  0  0  0  0
    1.0339   -6.5946    0.2140 C   0  0  0  0  0  0  0  0  0  0  0  0
    0.8501   -8.8374    0.9631 C   0  0  0  0  0  0  0  0  0  0  0  0
    0.6142   -7.0635   -0.8500 C   0  0  0  0  0  0  0  0  0  0  0  0
    0.4924   -8.6939   -0.4785 C   0  0  0  0  0  0  0  0  0  0  0  0
    0.4333  -13.3880    2.7787 O   0  0  0  0  0  0  0  0  0  0  0  0
   -0.3127  -13.9528    2.0576 C   0  0  0  0  0  0  0  0  0  0  0  0
   -1.5031  -13.8278    2.3706 C   0  0  0  0  0  0  0  0  0  0  0  0
   -2.0688  -12.6607    2.3320 C   0  0  0  0  0  0  0  0  0  0  0  0
   -3.5021  -12.5636    2.6959 C   0  0  0  0  0  0  0  0  0  0  0  0
  9 10  1  0
 10 12  2  0
 11 13  1  0
 12 13  1  0
  5 14  1  0
 14 15  1  0
 15 16  1  0
 16 17  2  3
 17 18  1  0
  2  3  1  0
  3  4  2  0
  4  5  1  0
  5  6  2  0
  6  7  1  0
  1  2  2  0
  2  7  1  0
  7 11  2  0
  9 11  1  0
  8  9  2  0
  1  8  1  0
M  END

$$$$
No_3831-/export/home/yangzhenyu/potential_scad_32_flow//YTHDC2/2024-12-06-03-22-00/
     RDKit          3D

 17 17  0  0  1  0  0  0  0  0999 V2000
    1.1787   -8.0297    3.5154 C   0  0  0  0  0  0  0  0  0  0  0  0
    1.1048   -9.2215    3.2892 C   0  0  0  0  0  0  0  0  0  0  0  0
    1.2339   -9.7611    2.0189 C   0  0  0  0  0  0  0  0  0  0  0  0
    1.3583   -9.0036    0.9764 C   0  0  0  0  0  0  0  0  0  0  0  0
    1.5996   -7.6362    1.1311 C   0  0  0  0  0  0  0  0  0  0  0  0
    1.4830   -7.0928    2.3626 C   0  0  0  0  0  0  0  0  0  0  0  0
    1.5395   -5.7300    2.6182 C   0  0  0  0  0  0  0  0  0  0  0  0
    1.1775  -11.2233    1.8407 C   0  0  1  0  0  0  0  0  0  0  0  0
    0.7252  -11.5870    0.5412 C   0  0  0  0  0  0  0  0  0  0  0  0
   -0.1807  -10.9849   -0.0827 C   0  0  0  0  0  0  0  0  0  0  0  0
    1.7325  -12.0565    2.7078 C   0  0  0  0  0  0  0  0  0  0  0  0
    1.6505  -13.3750    2.3526 C   0  0  0  0  0  0  0  0  0  0  0  0
    2.0182  -14.4024    3.2911 C   0  0  0  0  0  0  0  0  0  0  0  0
    1.5608  -15.7445    3.0128 O   0  0  0  0  0  0  0  0  0  0  0  0
    1.3117   -4.8213    1.6588 O   0  0  0  0  0  0  0  0  0  0  0  0
    1.7385   -5.1847    3.8377 O   0  0  0  0  0  0  0  0  0  0  0  0
   -1.0355  -10.0308    0.3490 N   0  0  0  0  0  0  0  0  0  0  0  0
  6  7  1  0
  8  3  1  6
  8  9  1  0
  9 10  2  3
  8 11  1  0
 11 12  2  3
 12 13  1  0
 13 14  2  0
  7 15  2  0
  7 16  1  0
 10 17  1  0
  1  2  2  0
  2  3  1  0
  3  4  2  0
  4  5  1  0
  5  6  2  0
  1  6  1  0
M  END

$$$$
No_3832-/export/home/yangzhenyu/potential_scad_32_flow//YTHDC2/2024-12-06-03-22-00/
     RDKit          3D

 17 18  0  0  0  0  0  0  0  0999 V2000
    1.1787   -8.0297    3.5154 C   0  0  0  0  0  0  0  0  0  0  0  0
    1.0491   -6.8434    2.9820 C   0  0  0  0  0  0  0  0  0  0  0  0
    0.0950   -8.8404    3.2292 C   0  0  0  0  0  0  0  0  0  0  0  0
   -0.9173   -8.4596    2.5152 C   0  0  0  0  0  0  0  0  0  0  0  0
   -1.0331   -7.2162    2.0653 C   0  0  0  0  0  0  0  0  0  0  0  0
   -0.0105   -6.3168    2.3081 C   0  0  0  0  0  0  0  0  0  0  0  0
    0.1465  -10.2446    3.6981 C   0  0  0  0  0  0  0  0  0  0  0  0
    1.2433  -10.8239    4.0166 C   0  0  0  0  0  0  0  0  0  0  0  0
    1.0790  -12.2885    4.3779 C   0  0  0  0  0  0  0  0  0  0  0  0
    0.0275  -12.8546    3.8829 C   0  0  0  0  0  0  0  0  0  0  0  0
   -0.9912  -12.3424    3.4171 C   0  0  0  0  0  0  0  0  0  0  0  0
   -1.0024  -10.9675    3.2748 C   0  0  0  0  0  0  0  0  0  0  0  0
   -0.1252   -5.0186    1.8241 Cl  0  0  0  0  0  0  0  0  0  0  0  0
   -2.3921   -6.6318    1.3899 C   0  0  0  0  0  0  0  0  0  0  0  0
   -3.2810   -6.2625    1.9584 C   0  0  0  0  0  0  0  0  0  0  0  0
   -4.1791   -5.4644    1.4682 C   0  0  0  0  0  0  0  0  0  0  0  0
   -4.3314   -5.4684    0.0860 C   0  0  0  0  0  0  0  0  0  0  0  0
  3  7  1  0
  6 13  1  0
  5 14  1  0
 14 15  1  0
 15 16  2  3
 16 17  1  0
  1  2  2  0
  2  6  1  0
  5  6  2  0
  4  5  1  0
  3  4  2  0
  1  3  1  0
  7  8  2  0
  8  9  1  0
  9 10  2  0
 10 11  1  0
 11 12  2  0
  7 12  1  0
M  END

$$$$
No_3833-/export/home/yangzhenyu/potential_scad_32_flow//YTHDC2/2024-12-06-03-22-00/
     RDKit          3D

 18 18  0  0  1  0  0  0  0  0999 V2000
    1.1787   -8.0297    3.5154 C   0  0  0  0  0  0  0  0  0  0  0  0
    1.0491   -6.8434    2.9820 C   0  0  0  0  0  0  0  0  0  0  0  0
    0.0950   -8.8404    3.2292 C   0  0  0  0  0  0  0  0  0  0  0  0
    0.0602  -10.1764    3.8231 C   0  0  0  0  0  0  0  0  0  0  0  0
    0.2248   -6.3830    2.0648 C   0  0  0  0  0  0  0  0  0  0  0  0
   -0.6745   -7.2322    1.6857 C   0  0  0  0  0  0  0  0  0  0  0  0
   -0.7374   -8.4992    2.1291 C   0  0  0  0  0  0  0  0  0  0  0  0
    1.0517  -10.8728    4.0967 C   0  0  0  0  0  0  0  0  0  0  0  0
    0.8765  -12.2762    4.4635 N   0  0  0  0  0  0  0  0  0  0  0  0
    0.3924   -5.1142    1.3874 Cl  0  0  0  0  0  0  0  0  0  0  0  0
    1.8175  -12.9125    3.7606 C   0  0  0  0  0  0  0  0  0  0  0  0
    1.2806  -14.3031    3.2080 C   0  0  1  0  0  0  0  0  0  0  0  0
   -0.0302  -14.6039    3.2609 N   0  0  0  0  0  0  0  0  0  0  0  0
    2.1123  -15.0227    2.5283 C   0  0  0  0  0  0  0  0  0  0  0  0
    3.2841  -14.5146    2.0030 C   0  0  0  0  0  0  0  0  0  0  0  0
    1.9612  -16.4443    2.4476 C   0  0  0  0  0  0  0  0  0  0  0  0
    3.0462  -17.0929    1.6938 C   0  0  0  0  0  0  0  0  0  0  0  0
    4.1840  -16.4803    1.4142 C   0  0  0  0  0  0  0  0  0  0  0  0
  3  4  1  0
  4  8  2  3
  8  9  1  0
  5 10  1  0
  9 11  1  0
 11 12  1  0
 12 13  1  6
 12 14  1  0
 14 15  2  0
 14 16  1  0
 16 17  2  3
 17 18  1  0
  1  2  2  0
  2  5  1  0
  5  6  2  0
  6  7  1  0
  3  7  2  0
  1  3  1  0
M  END

$$$$
No_3834-/export/home/yangzhenyu/potential_scad_32_flow//YTHDC2/2024-12-06-03-22-00/
     RDKit          3D

 19 19  0  0  1  0  0  0  0  0999 V2000
    1.1787   -8.0297    3.5154 Cl  0  0  0  0  0  0  0  0  0  0  0  0
    0.7279   -9.0023    2.8722 C   0  0  1  0  0  0  0  0  0  0  0  0
   -0.0117   -8.9271    1.8829 C   0  0  0  0  0  0  0  0  0  0  0  0
   -0.4744   -7.9794    1.4770 C   0  0  0  0  0  0  0  0  0  0  0  0
   -0.5831   -6.9024    1.8383 C   0  0  1  0  0  0  0  0  0  0  0  0
    1.3538  -10.3234    3.3572 F   0  0  0  0  0  0  0  0  0  0  0  0
    0.2049   -5.7292    1.3119 C   0  0  0  0  0  0  0  0  0  0  0  0
    0.1034   -4.2994    1.6696 C   0  0  0  0  0  0  0  0  0  0  0  0
   -0.9894   -3.9833    2.3116 C   0  0  0  0  0  0  0  0  0  0  0  0
   -1.9002   -4.9053    2.8098 C   0  0  0  0  0  0  0  0  0  0  0  0
   -1.7730   -6.2525    2.6300 C   0  0  0  0  0  0  0  0  0  0  0  0
   -0.4471  -10.2140    1.4163 O   0  0  0  0  0  0  0  0  0  0  0  0
   -2.6953   -7.0909    3.0826 O   0  0  0  0  0  0  0  0  0  0  0  0
   -1.2024   -8.1663    0.1091 C   0  0  0  0  0  0  0  0  0  0  0  0
   -0.3625   -8.3282   -1.0846 C   0  0  0  0  0  0  0  0  0  0  0  0
   -0.9271   -8.5105   -2.3062 S   0  0  0  0  0  0  0  0  0  0  0  0
   -0.6391   -9.5664   -3.0040 O   0  0  0  0  0  0  0  0  0  0  0  0
   -2.5922   -8.4667   -2.0691 C   0  0  0  0  0  0  0  0  0  0  0  0
   -0.5407   -7.2637   -3.1185 O   0  0  0  0  0  0  0  0  0  0  0  0
  1  2  1  0
  2  3  1  0
  3  4  1  0
  5  4  1  6
  2  6  1  6
  5  7  1  0
  8  9  1  0
  5 11  1  0
 10 11  1  0
  3 12  2  0
 11 13  2  0
  4 14  1  0
 14 15  1  0
 15 16  1  0
 16 17  2  0
 16 18  1  0
 16 19  2  0
  7  8  1  0
  9 10  1  0
M  END

$$$$
No_3835-/export/home/yangzhenyu/potential_scad_32_flow//YTHDC2/2024-12-06-03-22-00/
     RDKit          3D

 18 20  0  0  1  0  0  0  0  0999 V2000
    1.1787   -8.0297    3.5154 C   0  0  0  0  0  0  0  0  0  0  0  0
    1.0491   -6.8434    2.9820 C   0  0  0  0  0  0  0  0  0  0  0  0
    1.9985   -8.9840    2.8958 C   0  0  1  0  0  0  0  0  0  0  0  0
    1.9135  -10.3404    3.6266 C   0  0  0  0  0  0  0  0  0  0  0  0
    1.3291  -11.3908    3.0222 C   0  0  0  0  0  0  0  0  0  0  0  0
    1.2749  -12.5326    3.7562 C   0  0  0  0  0  0  0  0  0  0  0  0
    0.4248   -6.6481    1.7861 C   0  0  0  0  0  0  0  0  0  0  0  0
    0.3130   -5.3457    1.3131 C   0  0  0  0  0  0  0  0  0  0  0  0
    0.9258   -4.2319    1.9852 C   0  0  0  0  0  0  0  0  0  0  0  0
    1.6192   -4.4910    3.2243 C   0  0  0  0  0  0  0  0  0  0  0  0
    1.6572   -5.7342    3.6993 C   0  0  0  0  0  0  0  0  0  0  0  0
    1.1144  -13.7125    3.1201 C   0  0  0  0  0  0  0  0  0  0  0  0
    1.2278  -13.7488    1.7111 C   0  0  0  0  0  0  0  0  0  0  0  0
    1.5213  -12.6331    0.9556 C   0  0  0  0  0  0  0  0  0  0  0  0
    1.5966  -11.4281    1.5970 C   0  0  0  0  0  0  0  0  0  0  0  0
    1.8580  -10.4795    0.9136 C   0  0  0  0  0  0  0  0  0  0  0  0
    1.9404   -9.0877    1.5213 C   0  0  0  0  0  0  0  0  0  0  0  0
    1.8810  -10.3885   -0.4077 O   0  0  0  0  0  0  0  0  0  0  0  0
  1  2  1  0
  3  1  1  1
  3  4  1  0
  4  5  1  0
 15 16  1  0
  3 17  1  0
 16 17  1  0
 16 18  2  0
  5  6  2  0
  6 12  1  0
 12 13  2  0
 13 14  1  0
 14 15  2  0
  5 15  1  0
  2  7  2  0
  7  8  1  0
  8  9  2  0
  9 10  1  0
 10 11  2  0
  2 11  1  0
M  END

$$$$
No_3836-/export/home/yangzhenyu/potential_scad_32_flow//YTHDC2/2024-12-06-03-22-00/
     RDKit          3D

 19 20  0  0  1  0  0  0  0  0999 V2000
    1.1787   -8.0297    3.5154 O   0  0  0  0  0  0  0  0  0  0  0  0
    0.9969   -8.9689    3.0048 C   0  0  0  0  0  0  0  0  0  0  0  0
    1.3055  -10.1056    3.6616 C   0  0  0  0  0  0  0  0  0  0  0  0
    1.1249  -11.3503    3.0941 C   0  0  0  0  0  0  0  0  0  0  0  0
    0.6932  -11.4484    1.8586 C   0  0  0  0  0  0  0  0  0  0  0  0
    0.5498  -10.3736    1.0579 C   0  0  0  0  0  0  0  0  0  0  0  0
    0.7643   -9.1185    1.6383 C   0  0  0  0  0  0  0  0  0  0  0  0
    0.5937   -7.8467    1.0482 C   0  0  0  0  0  0  0  0  0  0  0  0
   -0.4358   -7.6746    0.4159 C   0  0  0  0  0  0  0  0  0  0  0  0
    1.2531  -12.6631    3.7963 C   0  0  0  0  0  0  0  0  0  0  0  0
   -1.3039   -8.7767    0.2118 C   0  0  0  0  0  0  0  0  0  0  0  0
   -1.7188   -9.2504   -0.5802 C   0  0  0  0  0  0  0  0  0  0  0  0
    1.4935  -13.7163    2.9249 C   0  0  2  0  0  0  0  0  0  0  0  0
    2.6865  -13.9303    2.4056 N   0  0  0  0  0  0  0  0  0  0  0  0
    0.4034  -14.4677    2.4594 C   0  0  0  0  0  0  0  0  0  0  0  0
    2.7849  -15.2057    1.7593 C   0  0  0  0  0  0  0  0  0  0  0  0
    1.8679  -16.0031    1.4710 N   0  0  0  0  0  0  0  0  0  0  0  0
    0.6047  -15.6391    1.8600 C   0  0  0  0  0  0  0  0  0  0  0  0
   -0.4005  -16.3647    1.5309 O   0  0  0  0  0  0  0  0  0  0  0  0
  1  2  1  0
  7  8  1  0
  8  9  2  3
  4 10  1  0
  9 11  1  0
 11 12  3  0
 13 10  1  6
 13 14  1  0
 13 15  1  0
 16 17  1  0
 15 18  1  0
 17 18  1  0
 18 19  2  0
 14 16  1  0
  2  3  2  0
  3  4  1  0
  4  5  2  0
  5  6  1  0
  6  7  2  0
  2  7  1  0
M  END

$$$$
No_3837-/export/home/yangzhenyu/potential_scad_32_flow//YTHDC2/2024-12-06-03-22-00/
     RDKit          3D

 18 18  0  0  0  0  0  0  0  0999 V2000
    1.1787   -8.0297    3.5154 Br  0  0  0  0  0  0  0  0  0  0  0  0
    0.6895   -9.0837    2.8296 C   0  0  0  0  0  0  0  0  0  0  0  0
    1.2740  -10.3624    3.0870 C   0  0  0  0  0  0  0  0  0  0  0  0
    1.3415  -11.4697    2.3477 C   0  0  0  0  0  0  0  0  0  0  0  0
    0.8727  -11.2851    1.1127 C   0  0  0  0  0  0  0  0  0  0  0  0
    0.4523  -10.1612    0.6127 C   0  0  0  0  0  0  0  0  0  0  0  0
    0.4262   -9.0557    1.4238 C   0  0  0  0  0  0  0  0  0  0  0  0
   -0.1588   -7.9120    0.8466 C   0  0  0  0  0  0  0  0  0  0  0  0
    0.5149   -6.9153    0.7963 C   0  0  0  0  0  0  0  0  0  0  0  0
    1.8850  -12.9222    2.9703 N   0  0  0  0  0  0  0  0  0  0  0  0
    1.4605  -14.0213    2.3211 C   0  0  0  0  0  0  0  0  0  0  0  0
    0.0095   -5.5828    0.5712 C   0  0  0  0  0  0  0  0  0  0  0  0
    0.3974   -4.4826    1.3682 C   0  0  0  0  0  0  0  0  0  0  0  0
    1.3794   -4.7111    2.3067 C   0  0  0  0  0  0  0  0  0  0  0  0
   -0.1644   -3.2834    1.1945 C   0  0  0  0  0  0  0  0  0  0  0  0
    1.9733  -15.0480    2.4480 C   0  0  0  0  0  0  0  0  0  0  0  0
    1.7422  -16.3558    1.9747 Cl  0  0  0  0  0  0  0  0  0  0  0  0
    0.4101  -13.9224    1.4854 C   0  0  0  0  0  0  0  0  0  0  0  0
  1  2  1  0
  7  8  1  0
  8  9  2  3
  4 10  1  0
 10 11  1  0
  9 12  1  0
 12 13  1  0
 13 14  1  0
 13 15  1  0
 11 16  1  0
 16 17  1  0
 11 18  1  0
  2  3  2  0
  3  4  1  0
  4  5  2  0
  5  6  1  0
  6  7  2  0
  2  7  1  0
M  END

$$$$
No_3838-/export/home/yangzhenyu/potential_scad_32_flow//YTHDC2/2024-12-06-03-22-00/
     RDKit          3D

 16 17  0  0  0  0  0  0  0  0999 V2000
    1.1787   -8.0297    3.5154 C   0  0  0  0  0  0  0  0  0  0  0  0
    1.0491   -6.8434    2.9820 C   0  0  0  0  0  0  0  0  0  0  0  0
    0.0950   -8.8404    3.2292 C   0  0  0  0  0  0  0  0  0  0  0  0
   -0.9173   -8.4596    2.5152 C   0  0  0  0  0  0  0  0  0  0  0  0
   -1.0331   -7.2162    2.0653 C   0  0  0  0  0  0  0  0  0  0  0  0
   -0.0105   -6.3168    2.3081 C   0  0  0  0  0  0  0  0  0  0  0  0
    0.1935  -10.3737    3.7416 C   0  0  0  0  0  0  0  0  0  0  0  0
    1.2406  -10.8901    4.0986 C   0  0  0  0  0  0  0  0  0  0  0  0
    1.7689  -11.7893    3.2364 Cl  0  0  0  0  0  0  0  0  0  0  0  0
    0.0007   -4.9901    1.7918 C   0  0  0  0  0  0  0  0  0  0  0  0
   -0.5630   -4.6774    0.7161 C   0  0  0  0  0  0  0  0  0  0  0  0
   -1.2811   -5.3124    0.0734 C   0  0  0  0  0  0  0  0  0  0  0  0
   -2.0656   -4.9963   -0.6742 C   0  0  0  0  0  0  0  0  0  0  0  0
   -2.7490   -5.8317   -1.6749 N   0  0  0  0  0  0  0  0  0  0  0  0
   -2.2341   -7.0104   -1.5071 C   0  0  0  0  0  0  0  0  0  0  0  0
   -1.2576   -6.8693   -0.4823 C   0  0  0  0  0  0  0  0  0  0  0  0
  3  7  1  0
  7  8  1  0
  8  9  1  0
  6 10  1  0
 10 11  1  0
 11 12  2  3
 12 13  1  0
 13 14  2  0
 14 15  1  0
 12 16  1  0
 15 16  1  0
  1  2  2  0
  2  6  1  0
  5  6  2  0
  4  5  1  0
  3  4  2  0
  1  3  1  0
M  END

$$$$
No_3839-/export/home/yangzhenyu/potential_scad_32_flow//YTHDC2/2024-12-06-03-22-00/
     RDKit          3D

 19 20  0  0  0  0  0  0  0  0999 V2000
    1.1787   -8.0297    3.5154 C   0  0  0  0  0  0  0  0  0  0  0  0
    1.1048   -9.2215    3.2892 C   0  0  0  0  0  0  0  0  0  0  0  0
    1.2339   -9.7611    2.0189 C   0  0  0  0  0  0  0  0  0  0  0  0
    1.3583   -9.0036    0.9764 C   0  0  0  0  0  0  0  0  0  0  0  0
    1.5996   -7.6362    1.1311 C   0  0  0  0  0  0  0  0  0  0  0  0
    1.4830   -7.0928    2.3626 C   0  0  0  0  0  0  0  0  0  0  0  0
    1.4898   -5.7274    2.6199 C   0  0  0  0  0  0  0  0  0  0  0  0
    1.1882  -11.3736    1.8424 C   0  0  0  0  0  0  0  0  0  0  0  0
    1.7911  -12.1283    2.5447 C   0  0  0  0  0  0  0  0  0  0  0  0
    1.6644  -13.4813    2.2354 C   0  0  0  0  0  0  0  0  0  0  0  0
    0.9132  -13.8750    1.1189 C   0  0  0  0  0  0  0  0  0  0  0  0
    0.2965  -12.8531    0.3493 C   0  0  0  0  0  0  0  0  0  0  0  0
    0.4746  -11.5251    0.6707 C   0  0  0  0  0  0  0  0  0  0  0  0
    2.2614  -14.4763    3.0498 Cl  0  0  0  0  0  0  0  0  0  0  0  0
    1.2406   -4.8669    1.6189 O   0  0  0  0  0  0  0  0  0  0  0  0
    1.7678   -5.1428    3.7951 O   0  0  0  0  0  0  0  0  0  0  0  0
    1.5961   -9.4072   -0.3548 O   0  0  0  0  0  0  0  0  0  0  0  0
    0.7966  -15.1443    0.7570 O   0  0  0  0  0  0  0  0  0  0  0  0
    0.8951  -10.1059    4.4223 O   0  0  0  0  0  0  0  0  0  0  0  0
  6  7  1  0
  3  8  1  0
 10 14  1  0
  7 15  2  0
  7 16  1  0
  4 17  1  0
 11 18  1  0
  2 19  1  0
  1  2  2  0
  2  3  1  0
  3  4  2  0
  4  5  1  0
  5  6  2  0
  1  6  1  0
  8  9  2  0
  9 10  1  0
 10 11  2  0
 11 12  1  0
 12 13  2  0
  8 13  1  0
M  END

$$$$
No_3840-/export/home/yangzhenyu/potential_scad_32_flow//YTHDC2/2024-12-06-03-22-00/
     RDKit          3D

 20 20  0  0  0  0  0  0  0  0999 V2000
    1.1787   -8.0297    3.5154 C   0  0  0  0  0  0  0  0  0  0  0  0
    1.0491   -6.8434    2.9820 C   0  0  0  0  0  0  0  0  0  0  0  0
    0.0950   -8.8404    3.2292 C   0  0  0  0  0  0  0  0  0  0  0  0
   -0.7663   -8.2602    2.4375 C   0  0  0  0  0  0  0  0  0  0  0  0
   -0.7437   -6.9718    1.9778 C   0  0  0  0  0  0  0  0  0  0  0  0
    0.2554   -6.2202    2.2855 C   0  0  0  0  0  0  0  0  0  0  0  0
    0.4072   -4.8741    1.9191 C   0  0  0  0  0  0  0  0  0  0  0  0
    0.0230  -10.2260    3.5719 C   0  0  0  0  0  0  0  0  0  0  0  0
    1.0465  -10.9363    4.0611 C   0  0  0  0  0  0  0  0  0  0  0  0
    0.9324  -12.3214    4.2760 F   0  0  0  0  0  0  0  0  0  0  0  0
    2.1874  -10.5334    4.5778 O   0  0  0  0  0  0  0  0  0  0  0  0
    1.0067   -3.9529    2.6044 O   0  0  0  0  0  0  0  0  0  0  0  0
    0.0076   -4.4077    0.7754 O   0  0  0  0  0  0  0  0  0  0  0  0
   -1.1936  -10.9651    3.4647 O   0  0  0  0  0  0  0  0  0  0  0  0
   -2.2126  -10.6311    4.3458 C   0  0  0  0  0  0  0  0  0  0  0  0
   -3.2316  -10.0404    3.8105 C   0  0  0  0  0  0  0  0  0  0  0  0
   -3.7329  -10.6109    2.7392 O   0  0  0  0  0  0  0  0  0  0  0  0
   -3.8474   -8.9984    4.3636 O   0  0  0  0  0  0  0  0  0  0  0  0
   -3.3267   -8.4382    5.6102 C   0  0  0  0  0  0  0  0  0  0  0  0
   -2.5647   -7.1504    5.3961 C   0  0  0  0  0  0  0  0  0  0  0  0
  6  7  1  0
  3  8  1  0
  8  9  2  3
  9 10  1  0
  9 11  1  0
  7 12  1  0
  7 13  2  0
  8 14  1  0
 14 15  1  0
 15 16  1  0
 16 17  2  0
 16 18  1  0
 18 19  1  0
 19 20  1  0
  1  2  2  0
  2  6  1  0
  5  6  2  0
  4  5  1  0
  3  4  2  0
  1  3  1  0
M  END

$$$$
No_3841-/export/home/yangzhenyu/potential_scad_32_flow//YTHDC2/2024-12-06-03-22-00/
     RDKit          3D

 17 18  0  0  0  0  0  0  0  0999 V2000
    1.1787   -8.0297    3.5154 C   0  0  0  0  0  0  0  0  0  0  0  0
    1.1048   -9.2215    3.2892 C   0  0  0  0  0  0  0  0  0  0  0  0
    1.2339   -9.7611    2.0189 C   0  0  0  0  0  0  0  0  0  0  0  0
    1.1954  -11.2312    1.8661 C   0  0  0  0  0  0  0  0  0  0  0  0
    1.5546  -12.1691    2.7931 C   0  0  0  0  0  0  0  0  0  0  0  0
    0.5849   -7.0929    2.5729 C   0  0  0  0  0  0  0  0  0  0  0  0
    0.5651   -5.6716    2.6680 C   0  0  0  0  0  0  0  0  0  0  0  0
    1.5967   -4.9664    3.3918 C   0  0  0  0  0  0  0  0  0  0  0  0
    1.4516  -13.4995    2.4920 C   0  0  0  0  0  0  0  0  0  0  0  0
    0.9791  -13.9176    1.3072 C   0  0  0  0  0  0  0  0  0  0  0  0
    0.5097  -13.1441    0.4168 C   0  0  0  0  0  0  0  0  0  0  0  0
    0.6450  -11.7432    0.6092 C   0  0  0  0  0  0  0  0  0  0  0  0
   -0.3143   -4.8975    1.9821 C   0  0  0  0  0  0  0  0  0  0  0  0
   -0.1706   -3.5928    1.8534 C   0  0  0  0  0  0  0  0  0  0  0  0
    0.7053   -2.9437    2.6815 C   0  0  0  0  0  0  0  0  0  0  0  0
    0.8043   -1.5180    2.8400 C   0  0  0  0  0  0  0  0  0  0  0  0
    1.6691   -3.6833    3.4774 C   0  0  0  0  0  0  0  0  0  0  0  0
  1  2  1  0
  2  3  2  3
  3  4  1  0
  1  6  2  3
  6  7  1  0
 15 16  1  0
  7  8  2  0
  8 17  1  0
 15 17  2  0
 14 15  1  0
 13 14  2  0
  7 13  1  0
  4  5  2  0
  5  9  1  0
  9 10  2  0
 10 11  1  0
 11 12  2  0
  4 12  1  0
M  END

$$$$
No_3842-/export/home/yangzhenyu/potential_scad_32_flow//YTHDC2/2024-12-06-03-22-00/
     RDKit          3D

 17 18  0  0  1  0  0  0  0  0999 V2000
    1.1787   -8.0297    3.5154 C   0  0  0  0  0  0  0  0  0  0  0  0
    1.0491   -6.8434    2.9820 C   0  0  0  0  0  0  0  0  0  0  0  0
    1.9985   -8.9840    2.8958 C   0  0  2  0  0  0  0  0  0  0  0  0
    1.7297   -9.2108    1.6335 C   0  0  0  0  0  0  0  0  0  0  0  0
    1.7343   -8.0566    0.8408 C   0  0  2  0  0  0  0  0  0  0  0  0
    1.0269   -6.8892    1.4456 C   0  0  0  0  0  0  0  0  0  0  0  0
    2.0740   -7.9416   -0.3682 C   0  0  0  0  0  0  0  0  0  0  0  0
    2.2588   -9.0634   -1.1089 C   0  0  0  0  0  0  0  0  0  0  0  0
    3.4999   -9.2524   -1.6422 O   0  0  0  0  0  0  0  0  0  0  0  0
    1.9133  -10.3653    3.5973 C   0  0  0  0  0  0  0  0  0  0  0  0
    1.1855  -11.3180    3.2617 C   0  0  1  0  0  0  0  0  0  0  0  0
   -0.1826  -11.1636    3.4280 C   0  0  0  0  0  0  0  0  0  0  0  0
   -1.0859  -11.9829    2.9629 N   0  0  0  0  0  0  0  0  0  0  0  0
   -0.4985  -13.0883    2.5268 C   0  0  0  0  0  0  0  0  0  0  0  0
    0.9855  -12.6373    2.6359 C   0  0  2  0  0  0  0  0  0  0  0  0
   -0.8064  -14.2368    2.0837 C   0  0  0  0  0  0  0  0  0  0  0  0
    2.0697  -13.4466    2.3454 C   0  0  0  0  0  0  0  0  0  0  0  0
  1  2  1  0
  1  3  1  0
  3  4  1  0
  4  5  1  0
  2  6  1  0
  5  6  1  0
  5  7  1  6
  7  8  1  0
  8  9  2  0
  3 10  1  1
 11 10  1  6
 11 12  1  0
 12 13  2  0
 13 14  1  0
 11 15  1  0
 14 15  1  0
 14 16  1  0
 15 17  1  1
M  END

$$$$
No_3843-/export/home/yangzhenyu/potential_scad_32_flow//YTHDC2/2024-12-06-03-22-00/
     RDKit          3D

 19 21  0  0  0  0  0  0  0  0999 V2000
    1.1787   -8.0297    3.5154 C   0  0  0  0  0  0  0  0  0  0  0  0
    1.0491   -6.8434    2.9820 C   0  0  0  0  0  0  0  0  0  0  0  0
    0.9905   -9.0774    2.6527 C   0  0  0  0  0  0  0  0  0  0  0  0
    1.1655  -10.4663    3.1286 C   0  0  0  0  0  0  0  0  0  0  0  0
    1.2197  -11.4898    2.5831 C   0  0  0  0  0  0  0  0  0  0  0  0
    1.5411  -12.7330    3.1052 C   0  0  0  0  0  0  0  0  0  0  0  0
    0.6212   -6.5301    1.7066 C   0  0  0  0  0  0  0  0  0  0  0  0
    0.4208   -7.5365    0.9144 C   0  0  0  0  0  0  0  0  0  0  0  0
    0.5253   -8.8638    1.3136 C   0  0  0  0  0  0  0  0  0  0  0  0
    1.3022  -13.9942    2.3741 C   0  0  0  0  0  0  0  0  0  0  0  0
    0.9814  -13.9934    1.1090 C   0  0  0  0  0  0  0  0  0  0  0  0
    0.7329  -12.7274    0.4705 C   0  0  0  0  0  0  0  0  0  0  0  0
    0.7782  -11.5500    1.2312 C   0  0  0  0  0  0  0  0  0  0  0  0
    0.4293  -10.1218    0.5453 C   0  0  0  0  0  0  0  0  0  0  0  0
    1.7743  -15.1952    2.9837 C   0  0  0  0  0  0  0  0  0  0  0  0
    2.6979  -15.9833    2.5349 O   0  0  0  0  0  0  0  0  0  0  0  0
    1.0164  -15.6845    3.9536 O   0  0  0  0  0  0  0  0  0  0  0  0
    0.4395   -5.2442    1.1325 O   0  0  0  0  0  0  0  0  0  0  0  0
    0.0080  -10.0915   -0.6143 O   0  0  0  0  0  0  0  0  0  0  0  0
  3  4  1  0
  9 14  1  0
 13 14  1  0
 10 15  1  0
 15 16  2  0
 15 17  1  0
  7 18  1  0
 14 19  2  0
  4  5  1  0
  1  2  2  0
  2  7  1  0
  7  8  2  0
  8  9  1  0
  3  9  2  0
  1  3  1  0
  5  6  2  0
  6 10  1  0
 10 11  2  0
 11 12  1  0
 12 13  2  0
  5 13  1  0
M  END

$$$$
No_3844-/export/home/yangzhenyu/potential_scad_32_flow//YTHDC2/2024-12-06-03-22-00/
     RDKit          3D

 18 19  0  0  0  0  0  0  0  0999 V2000
    1.1787   -8.0297    3.5154 C   0  0  0  0  0  0  0  0  0  0  0  0
    1.1048   -9.2215    3.2892 C   0  0  0  0  0  0  0  0  0  0  0  0
    1.3627  -10.1721    4.3044 C   0  0  0  0  0  0  0  0  0  0  0  0
    1.0682  -11.5187    4.0618 C   0  0  0  0  0  0  0  0  0  0  0  0
    0.6332  -11.9655    2.9682 C   0  0  0  0  0  0  0  0  0  0  0  0
    0.4776  -11.1308    1.9203 C   0  0  0  0  0  0  0  0  0  0  0  0
    0.7470   -9.8274    2.0368 C   0  0  0  0  0  0  0  0  0  0  0  0
    1.0387   -7.0301    2.5175 C   0  0  0  0  0  0  0  0  0  0  0  0
    0.9130   -7.5288    1.2013 C   0  0  0  0  0  0  0  0  0  0  0  0
    0.7893   -8.7979    0.9542 C   0  0  0  0  0  0  0  0  0  0  0  0
    0.5241   -9.2578   -0.2817 C   0  0  0  0  0  0  0  0  0  0  0  0
    1.2450   -9.2169   -1.2769 O   0  0  0  0  0  0  0  0  0  0  0  0
   -0.9193   -9.0668   -0.6939 O   0  0  0  0  0  0  0  0  0  0  0  0
    0.5126  -13.3802    2.7043 C   0  0  0  0  0  0  0  0  0  0  0  0
    1.4672  -14.3361    3.2479 O   0  0  0  0  0  0  0  0  0  0  0  0
   -0.3882  -13.8940    2.0109 O   0  0  0  0  0  0  0  0  0  0  0  0
    1.3248   -5.6129    2.7082 C   0  0  0  0  0  0  0  0  0  0  0  0
    1.4484   -5.1576    3.9215 O   0  0  0  0  0  0  0  0  0  0  0  0
 10 11  1  0
 11 12  2  0
 11 13  1  0
  5 14  1  0
 14 15  1  0
 14 16  2  0
  8 17  1  0
 17 18  1  0
  2  3  1  0
  3  4  2  0
  4  5  1  0
  5  6  2  0
  6  7  1  0
  1  2  2  0
  2  7  1  0
  7 10  2  0
  9 10  1  0
  8  9  2  0
  1  8  1  0
M  END

$$$$
No_3845-/export/home/yangzhenyu/potential_scad_32_flow//YTHDC2/2024-12-06-03-22-00/
     RDKit          3D

 19 19  0  0  1  0  0  0  0  0999 V2000
    1.1787   -8.0297    3.5154 C   0  0  0  0  0  0  0  0  0  0  0  0
    1.1048   -9.2215    3.2892 C   0  0  0  0  0  0  0  0  0  0  0  0
    1.2339   -9.7611    2.0189 C   0  0  0  0  0  0  0  0  0  0  0  0
    1.3583   -9.0036    0.9764 C   0  0  0  0  0  0  0  0  0  0  0  0
    1.5996   -7.6362    1.1311 C   0  0  0  0  0  0  0  0  0  0  0  0
    1.4830   -7.0928    2.3626 C   0  0  0  0  0  0  0  0  0  0  0  0
    1.5395   -5.7300    2.6182 C   0  0  0  0  0  0  0  0  0  0  0  0
    1.1969  -11.3760    1.8433 C   0  0  0  0  0  0  0  0  0  0  0  0
    1.0771  -11.6644    0.5388 O   0  0  0  0  0  0  0  0  0  0  0  0
    1.3881  -12.0946    2.7683 N   0  0  0  0  0  0  0  0  0  0  0  0
    1.4226  -13.4857    2.6586 C   0  0  0  0  0  0  0  0  0  0  0  0
    0.1627  -14.1049    2.7280 C   0  0  0  0  0  0  0  0  0  0  0  0
    0.2364  -15.5969    2.8021 O   0  0  0  0  0  0  0  0  0  0  0  0
   -0.8209  -13.5725    2.6192 O   0  0  0  0  0  0  0  0  0  0  0  0
    0.6262   -4.8804    2.7663 O   0  0  0  0  0  0  0  0  0  0  0  0
    0.6018   -3.6356    2.2697 C   0  0  2  0  0  0  0  0  0  0  0  0
   -0.3297   -2.9126    2.6012 C   0  0  0  0  0  0  0  0  0  0  0  0
    1.5237   -3.3918    1.3231 C   0  0  0  0  0  0  0  0  0  0  0  0
   -1.2417   -3.2132    3.4499 C   0  0  0  0  0  0  0  0  0  0  0  0
  6  7  1  0
  3  8  1  0
  8  9  2  0
  8 10  1  0
 10 11  1  0
 11 12  1  0
 12 13  2  0
 12 14  1  0
  7 15  1  0
 15 16  1  0
 16 17  1  0
 16 18  1  6
 17 19  1  0
  1  2  2  0
  2  3  1  0
  3  4  2  0
  4  5  1  0
  5  6  2  0
  1  6  1  0
M  END

$$$$
No_3846-/export/home/yangzhenyu/potential_scad_32_flow//YTHDC2/2024-12-06-03-22-00/
     RDKit          3D

 18 19  0  0  1  0  0  0  0  0999 V2000
    1.1787   -8.0297    3.5154 C   0  0  0  0  0  0  0  0  0  0  0  0
    1.0491   -6.8434    2.9820 C   0  0  0  0  0  0  0  0  0  0  0  0
    0.9905   -9.0774    2.6527 C   0  0  0  0  0  0  0  0  0  0  0  0
    0.7897   -8.9519    1.3691 C   0  0  0  0  0  0  0  0  0  0  0  0
    0.7018   -7.7198    0.7892 C   0  0  0  0  0  0  0  0  0  0  0  0
    0.8918   -6.5957    1.6117 C   0  0  0  0  0  0  0  0  0  0  0  0
    1.0600  -10.5680    3.3321 C   0  0  2  0  0  0  0  0  0  0  0  0
   -0.1041  -11.1772    3.5150 C   0  0  0  0  0  0  0  0  0  0  0  0
   -1.2204  -10.4119    3.8534 C   0  0  0  0  0  0  0  0  0  0  0  0
    0.8704   -5.2520    1.1771 N   0  0  0  0  0  0  0  0  0  0  0  0
   -2.3589  -10.5169    3.1322 C   0  0  0  0  0  0  0  0  0  0  0  0
   -2.5192  -11.5711    2.3476 C   0  0  0  0  0  0  0  0  0  0  0  0
   -1.4823  -12.4553    2.1044 C   0  0  0  0  0  0  0  0  0  0  0  0
   -0.2458  -12.2587    2.6155 C   0  0  0  0  0  0  0  0  0  0  0  0
    2.2786  -10.9197    3.6492 C   0  0  0  0  0  0  0  0  0  0  0  0
    0.7577  -13.1235    2.3335 C   0  0  0  0  0  0  0  0  0  0  0  0
    1.1134  -14.0311    3.2130 C   0  0  0  0  0  0  0  0  0  0  0  0
    1.3345  -15.4475    2.7907 C   0  0  0  0  0  0  0  0  0  0  0  0
  3  7  1  0
  7  8  1  0
  7 15  1  1
 14 16  1  0
 16 17  1  0
 17 18  1  0
  6 10  1  0
  1  2  2  0
  2  6  1  0
  5  6  2  0
  4  5  1  0
  3  4  2  0
  1  3  1  0
  8  9  2  0
  9 11  1  0
 11 12  2  0
 12 13  1  0
 13 14  2  0
  8 14  1  0
M  END

$$$$
No_3847-/export/home/yangzhenyu/potential_scad_32_flow//YTHDC2/2024-12-06-03-22-00/
     RDKit          3D

 20 21  0  0  0  0  0  0  0  0999 V2000
    1.1787   -8.0297    3.5154 C   0  0  0  0  0  0  0  0  0  0  0  0
    1.1048   -9.2215    3.2892 C   0  0  0  0  0  0  0  0  0  0  0  0
    1.3627  -10.1721    4.3044 C   0  0  0  0  0  0  0  0  0  0  0  0
    1.7354  -11.4730    3.9023 C   0  0  0  0  0  0  0  0  0  0  0  0
    1.8080  -11.8127    2.7216 C   0  0  0  0  0  0  0  0  0  0  0  0
    1.5854  -11.0021    1.7249 C   0  0  0  0  0  0  0  0  0  0  0  0
    1.3573   -9.7389    1.9287 C   0  0  0  0  0  0  0  0  0  0  0  0
    1.2865   -8.8078    0.9161 C   0  0  0  0  0  0  0  0  0  0  0  0
    0.9210   -7.5140    1.1674 C   0  0  0  0  0  0  0  0  0  0  0  0
    1.0097   -7.0192    2.4369 C   0  0  0  0  0  0  0  0  0  0  0  0
    2.0228  -13.2586    2.4222 C   0  0  0  0  0  0  0  0  0  0  0  0
    2.3575  -13.7715    1.2631 O   0  0  0  0  0  0  0  0  0  0  0  0
    1.8241  -14.2018    3.4130 N   0  0  0  0  0  0  0  0  0  0  0  0
    0.8138   -5.3897    2.7526 Cl  0  0  0  0  0  0  0  0  0  0  0  0
    1.6271  -15.5463    3.1813 C   0  0  0  0  0  0  0  0  0  0  0  0
    2.5749  -16.2306    2.5747 C   0  0  0  0  0  0  0  0  0  0  0  0
    0.4963  -16.2049    3.5600 C   0  0  0  0  0  0  0  0  0  0  0  0
    2.4019  -17.6866    2.4237 N   0  0  0  0  0  0  0  0  0  0  0  0
    0.3116  -17.4579    3.5057 C   0  0  0  0  0  0  0  0  0  0  0  0
    1.5713  -18.1363    2.7815 H   0  0  0  0  0  0  0  0  0  0  0  0
  5 11  1  0
 11 12  2  0
 11 13  1  0
 10 14  1  0
 13 15  1  0
 15 16  1  0
 15 17  1  0
 16 18  2  0
 17 19  2  0
  1  2  2  0
  7  8  2  0
  8  9  1  0
  9 10  2  0
  1 10  1  0
  2  3  1  0
  3  4  2  0
  4  5  1  0
  5  6  2  0
  6  7  1  0
  2  7  1  0
 18 20  1  0
M  END

$$$$
No_3848-/export/home/yangzhenyu/potential_scad_32_flow//YTHDC2/2024-12-06-03-22-00/
     RDKit          3D

 16 17  0  0  1  0  0  0  0  0999 V2000
    1.1787   -8.0297    3.5154 C   0  0  0  0  0  0  0  0  0  0  0  0
    1.0491   -6.8434    2.9820 C   0  0  0  0  0  0  0  0  0  0  0  0
    0.0950   -8.8404    3.2292 C   0  0  0  0  0  0  0  0  0  0  0  0
   -0.9173   -8.4596    2.5152 C   0  0  0  0  0  0  0  0  0  0  0  0
   -1.0331   -7.2162    2.0653 C   0  0  0  0  0  0  0  0  0  0  0  0
   -0.0105   -6.3168    2.3081 C   0  0  0  0  0  0  0  0  0  0  0  0
    0.1465  -10.2446    3.6981 C   0  0  1  0  0  0  0  0  0  0  0  0
    1.2433  -10.8239    4.0166 C   0  0  0  0  0  0  0  0  0  0  0  0
    1.6493  -11.8557    3.2298 C   0  0  0  0  0  0  0  0  0  0  0  0
    0.6201  -12.4802    2.5672 C   0  0  0  0  0  0  0  0  0  0  0  0
    0.8445  -13.8378    1.9075 C   0  0  0  0  0  0  0  0  0  0  0  0
   -0.0609  -14.3178    1.2931 C   0  0  0  0  0  0  0  0  0  0  0  0
   -1.2081  -13.6146    0.8736 C   0  0  0  0  0  0  0  0  0  0  0  0
   -1.4412  -12.3690    1.3623 C   0  0  0  0  0  0  0  0  0  0  0  0
   -0.4853  -11.7766    2.2470 C   0  0  0  0  0  0  0  0  0  0  0  0
   -0.7933  -10.3559    4.6962 C   0  0  0  0  0  0  0  0  0  0  0  0
  3  7  1  0
  7  8  1  0
  8  9  2  3
  9 10  1  0
  7 16  1  1
  1  2  2  0
  2  6  1  0
  5  6  2  0
  4  5  1  0
  3  4  2  0
  1  3  1  0
 10 11  2  0
 11 12  1  0
 12 13  2  0
 13 14  1  0
 14 15  2  0
 10 15  1  0
M  END

$$$$
No_3849-/export/home/yangzhenyu/potential_scad_32_flow//YTHDC2/2024-12-06-03-22-00/
     RDKit          3D

 17 17  0  0  1  0  0  0  0  0999 V2000
    1.1787   -8.0297    3.5154 C   0  0  0  0  0  0  0  0  0  0  0  0
    1.0491   -6.8434    2.9820 C   0  0  0  0  0  0  0  0  0  0  0  0
    0.9905   -9.0774    2.6527 C   0  0  0  0  0  0  0  0  0  0  0  0
    1.1655  -10.4663    3.1286 C   0  0  2  0  0  0  0  0  0  0  0  0
    1.7409  -10.6480    4.4599 C   0  0  0  0  0  0  0  0  0  0  0  0
    0.4783   -6.4688    1.7590 C   0  0  0  0  0  0  0  0  0  0  0  0
    0.2119   -7.5787    0.9640 C   0  0  0  0  0  0  0  0  0  0  0  0
    0.4248   -8.8744    1.3136 C   0  0  0  0  0  0  0  0  0  0  0  0
    1.0421  -11.5142    2.2935 C   0  0  0  0  0  0  0  0  0  0  0  0
    0.4106  -12.6154    2.6102 C   0  0  0  0  0  0  0  0  0  0  0  0
    1.2399  -13.7773    2.8057 C   0  0  0  0  0  0  0  0  0  0  0  0
    0.5547  -15.0138    3.0639 C   0  0  0  0  0  0  0  0  0  0  0  0
   -0.6885  -15.0704    2.7850 O   0  0  0  0  0  0  0  0  0  0  0  0
    1.1683  -16.0550    3.6007 O   0  0  0  0  0  0  0  0  0  0  0  0
    0.3192   -5.2061    1.2497 C   0  0  0  0  0  0  0  0  0  0  0  0
   -0.6837   -4.7292    0.6194 O   0  0  0  0  0  0  0  0  0  0  0  0
    1.0920   -4.1304    1.8442 O   0  0  0  0  0  0  0  0  0  0  0  0
  3  4  1  0
  4  5  1  6
  4  9  1  0
  9 10  1  0
 10 11  1  0
 11 12  1  0
 12 13  2  0
 12 14  1  0
  6 15  1  0
 15 16  2  0
 15 17  1  0
  1  2  2  0
  2  6  1  0
  6  7  2  0
  7  8  1  0
  3  8  2  0
  1  3  1  0
M  END

$$$$
No_3850-/export/home/yangzhenyu/potential_scad_32_flow//YTHDC2/2024-12-06-03-22-00/
     RDKit          3D

 20 22  0  0  0  0  0  0  0  0999 V2000
    1.1787   -8.0297    3.5154 C   0  0  0  0  0  0  0  0  0  0  0  0
    1.1048   -9.2215    3.2892 C   0  0  0  0  0  0  0  0  0  0  0  0
    1.3627  -10.1721    4.3044 C   0  0  0  0  0  0  0  0  0  0  0  0
    1.7354  -11.4730    3.9023 C   0  0  0  0  0  0  0  0  0  0  0  0
    1.8080  -11.8127    2.7216 C   0  0  0  0  0  0  0  0  0  0  0  0
    1.5854  -11.0021    1.7249 C   0  0  0  0  0  0  0  0  0  0  0  0
    1.3573   -9.7389    1.9287 C   0  0  0  0  0  0  0  0  0  0  0  0
    1.1102   -8.8712    0.9017 C   0  0  0  0  0  0  0  0  0  0  0  0
    1.5724   -9.1697   -0.3048 O   0  0  0  0  0  0  0  0  0  0  0  0
    0.5064   -7.6844    0.9896 N   0  0  0  0  0  0  0  0  0  0  0  0
    1.2204   -6.8307    2.8551 C   0  0  0  0  0  0  0  0  0  0  0  0
    0.7765   -6.6808    1.5662 C   0  0  0  0  0  0  0  0  0  0  0  0
    2.1124  -13.4609    2.3382 C   0  0  0  0  0  0  0  0  0  0  0  0
    0.4366   -5.4025    1.0782 C   0  0  0  0  0  0  0  0  0  0  0  0
   -0.8612   -5.1454    0.6010 C   0  0  0  0  0  0  0  0  0  0  0  0
    1.1362   -4.2233    1.6314 C   0  0  0  0  0  0  0  0  0  0  0  0
   -1.1712   -3.8587    0.2930 C   0  0  0  0  0  0  0  0  0  0  0  0
   -0.5089   -2.8026    0.7629 C   0  0  0  0  0  0  0  0  0  0  0  0
    0.6961   -2.9774    1.4089 C   0  0  0  0  0  0  0  0  0  0  0  0
    1.0509  -14.1630    1.8514 C   0  0  0  0  0  0  0  0  0  0  0  0
  1  2  1  0
  7  8  1  0
  8  9  2  0
  8 10  1  0
  1 11  2  0
 10 12  2  0
 11 12  1  0
  5 13  1  0
 12 14  1  0
 13 20  1  0
  2  3  2  0
  3  4  1  0
  4  5  2  0
  5  6  1  0
  6  7  2  0
  2  7  1  0
 14 15  2  0
 15 17  1  0
 17 18  2  0
 18 19  1  0
 16 19  2  0
 14 16  1  0
M  END

$$$$
No_3851-/export/home/yangzhenyu/potential_scad_32_flow//YTHDC2/2024-12-06-03-22-00/
     RDKit          3D

 20 22  0  0  1  0  0  0  0  0999 V2000
    1.1787   -8.0297    3.5154 C   0  0  0  0  0  0  0  0  0  0  0  0
    1.1048   -9.2215    3.2892 C   0  0  0  0  0  0  0  0  0  0  0  0
    1.2339   -9.7611    2.0189 C   0  0  0  0  0  0  0  0  0  0  0  0
    1.1954  -11.2312    1.8661 C   0  0  0  0  0  0  0  0  0  0  0  0
    1.5546  -12.1691    2.7931 C   0  0  0  0  0  0  0  0  0  0  0  0
    0.9527   -7.0669    2.3918 C   0  0  0  0  0  0  0  0  0  0  0  0
    1.0618   -7.6392    1.0692 C   0  0  0  0  0  0  0  0  0  0  0  0
    1.2060   -8.9530    0.8578 C   0  0  0  0  0  0  0  0  0  0  0  0
    1.5110  -13.5006    2.3856 C   0  0  0  0  0  0  0  0  0  0  0  0
    1.1461  -13.9087    1.2014 C   0  0  0  0  0  0  0  0  0  0  0  0
    0.9324  -13.0660    0.2177 C   0  0  0  0  0  0  0  0  0  0  0  0
    0.9275  -11.6786    0.5224 C   0  0  0  0  0  0  0  0  0  0  0  0
    1.0094   -5.6129    2.4729 Cl  0  0  0  0  0  0  0  0  0  0  0  0
    1.9079  -14.4151    3.4322 Cl  0  0  0  0  0  0  0  0  0  0  0  0
    0.5348  -10.8531   -0.4151 P   0  0  2  0  0  0  0  0  0  0  0  0
    1.0911   -9.4109   -0.3719 O   0  0  0  0  0  0  0  0  0  0  0  0
   -1.0477  -10.5224   -0.3265 O   0  0  0  0  0  0  0  0  0  0  0  0
    0.7545  -11.1601   -1.8136 O   0  0  0  0  0  0  0  0  0  0  0  0
    1.2411  -10.1125    4.4113 O   0  0  0  0  0  0  0  0  0  0  0  0
    1.0920   -6.9158    0.0336 F   0  0  0  0  0  0  0  0  0  0  0  0
  3  4  1  0
  6 13  1  0
  9 14  1  0
 12 15  1  0
  8 16  1  0
 15 16  1  0
 15 17  1  6
 15 18  2  0
  2 19  1  0
  7 20  1  0
  1  2  2  0
  2  3  1  0
  3  8  2  0
  7  8  1  0
  6  7  2  0
  1  6  1  0
  4  5  2  0
  5  9  1  0
  9 10  2  0
 10 11  1  0
 11 12  2  0
  4 12  1  0
M  END

$$$$
No_3852-/export/home/yangzhenyu/potential_scad_32_flow//YTHDC2/2024-12-06-03-22-00/
     RDKit          3D

 20 22  0  0  0  0  0  0  0  0999 V2000
    1.1787   -8.0297    3.5154 C   0  0  0  0  0  0  0  0  0  0  0  0
    1.1048   -9.2215    3.2892 C   0  0  0  0  0  0  0  0  0  0  0  0
    1.3627  -10.1721    4.3044 C   0  0  0  0  0  0  0  0  0  0  0  0
    1.7354  -11.4730    3.9023 C   0  0  0  0  0  0  0  0  0  0  0  0
    1.8080  -11.8127    2.7216 C   0  0  0  0  0  0  0  0  0  0  0  0
    1.5854  -11.0021    1.7249 C   0  0  0  0  0  0  0  0  0  0  0  0
    1.3573   -9.7389    1.9287 C   0  0  0  0  0  0  0  0  0  0  0  0
    1.1102   -8.8712    0.9017 C   0  0  0  0  0  0  0  0  0  0  0  0
    0.5299   -7.6926    1.0325 C   0  0  0  0  0  0  0  0  0  0  0  0
    0.7526   -7.0802    2.3301 C   0  0  0  0  0  0  0  0  0  0  0  0
    2.1027  -13.4660    2.3958 O   0  0  0  0  0  0  0  0  0  0  0  0
    0.4794   -5.6414    2.5040 C   0  0  0  0  0  0  0  0  0  0  0  0
   -0.6844   -5.1130    2.2427 C   0  0  0  0  0  0  0  0  0  0  0  0
   -0.8691   -3.6998    2.3138 C   0  0  0  0  0  0  0  0  0  0  0  0
    1.5704   -4.8068    2.9774 C   0  0  0  0  0  0  0  0  0  0  0  0
    0.2279   -2.8931    2.7035 C   0  0  0  0  0  0  0  0  0  0  0  0
    1.3924   -3.4122    3.0426 C   0  0  0  0  0  0  0  0  0  0  0  0
    1.2865  -14.1246    1.7648 C   0  0  0  0  0  0  0  0  0  0  0  0
    1.2854   -9.3418   -0.3952 O   0  0  0  0  0  0  0  0  0  0  0  0
    1.7175  -15.1293    1.3717 C   0  0  0  0  0  0  0  0  0  0  0  0
  5 11  1  0
 10 12  1  0
 11 18  1  0
  8 19  1  0
 18 20  1  0
  1  2  2  0
  7  8  2  0
  8  9  1  0
  9 10  2  0
  1 10  1  0
  2  3  1  0
  3  4  2  0
  4  5  1  0
  5  6  2  0
  6  7  1  0
  2  7  1  0
 12 13  2  0
 13 14  1  0
 14 16  2  0
 16 17  1  0
 15 17  2  0
 12 15  1  0
M  END

$$$$
No_3853-/export/home/yangzhenyu/potential_scad_32_flow//YTHDC2/2024-12-06-03-22-00/
     RDKit          3D

 16 17  0  0  1  0  0  0  0  0999 V2000
    1.1787   -8.0297    3.5154 C   0  0  0  0  0  0  0  0  0  0  0  0
    1.0491   -6.8434    2.9820 C   0  0  2  0  0  0  0  0  0  0  0  0
    1.9985   -8.9840    2.8958 C   0  0  0  0  0  0  0  0  0  0  0  0
    1.9135  -10.3404    3.6266 C   0  0  0  0  0  0  0  0  0  0  0  0
    1.3291  -11.3908    3.0222 C   0  0  0  0  0  0  0  0  0  0  0  0
    1.2749  -12.5326    3.7562 C   0  0  0  0  0  0  0  0  0  0  0  0
    1.2373   -6.5190    1.7857 C   0  0  0  0  0  0  0  0  0  0  0  0
    0.8961   -5.1567    1.3903 N   0  0  0  0  0  0  0  0  0  0  0  0
    0.7384  -13.6867    3.1682 C   0  0  0  0  0  0  0  0  0  0  0  0
    0.4716  -13.6696    1.8566 C   0  0  0  0  0  0  0  0  0  0  0  0
    0.6959  -12.6541    1.0791 C   0  0  0  0  0  0  0  0  0  0  0  0
    1.1700  -11.4771    1.6179 C   0  0  0  0  0  0  0  0  0  0  0  0
    0.7295   -4.3630    2.3360 N   0  0  0  0  0  0  0  0  0  0  0  0
    0.9274   -5.4693    3.4980 C   0  0  0  0  0  0  0  0  0  0  0  0
    1.2019  -10.4019    0.7480 C   0  0  0  0  0  0  0  0  0  0  0  0
    0.3995   -9.3402    1.0089 O   0  0  0  0  0  0  0  0  0  0  0  0
  2  1  1  1
  1  3  1  0
  3  4  1  0
  4  5  1  0
  2  7  1  0
  7  8  2  0
  8 13  1  0
  2 14  1  0
 13 14  1  0
 12 15  1  0
 15 16  1  0
  5  6  2  0
  6  9  1  0
  9 10  2  0
 10 11  1  0
 11 12  2  0
  5 12  1  0
M  END

$$$$
No_3854-/export/home/yangzhenyu/potential_scad_32_flow//YTHDC2/2024-12-06-03-22-00/
     RDKit          3D

 18 20  0  0  0  0  0  0  0  0999 V2000
    1.1787   -8.0297    3.5154 C   0  0  0  0  0  0  0  0  0  0  0  0
    1.1048   -9.2215    3.2892 C   0  0  0  0  0  0  0  0  0  0  0  0
    1.3627  -10.1721    4.3044 C   0  0  0  0  0  0  0  0  0  0  0  0
    1.7354  -11.4730    3.9023 C   0  0  0  0  0  0  0  0  0  0  0  0
    1.6166  -11.5515    2.5159 C   0  0  0  0  0  0  0  0  0  0  0  0
    1.4172  -10.6242    1.6178 C   0  0  0  0  0  0  0  0  0  0  0  0
    1.2598   -9.4423    1.9811 C   0  0  0  0  0  0  0  0  0  0  0  0
    1.0996   -7.0633    2.5049 C   0  0  0  0  0  0  0  0  0  0  0  0
    1.2790   -8.2105    1.2541 C   0  0  0  0  0  0  0  0  0  0  0  0
    1.2794   -7.9931    0.1028 O   0  0  0  0  0  0  0  0  0  0  0  0
    1.0357   -5.6360    2.1188 C   0  0  0  0  0  0  0  0  0  0  0  0
    1.9231  -13.2595    1.9358 C   0  0  0  0  0  0  0  0  0  0  0  0
    1.7076  -13.3926    0.7587 C   0  0  0  0  0  0  0  0  0  0  0  0
    2.2825  -14.1493    2.8308 C   0  0  0  0  0  0  0  0  0  0  0  0
    2.4795  -15.4428    2.3703 C   0  0  0  0  0  0  0  0  0  0  0  0
    2.2918  -15.7388    1.0622 C   0  0  0  0  0  0  0  0  0  0  0  0
    1.8700  -14.7690    0.2758 C   0  0  0  0  0  0  0  0  0  0  0  0
    2.4542  -16.9113    0.6718 O   0  0  0  0  0  0  0  0  0  0  0  0
  1  2  1  0
  1  8  2  0
  7  9  1  0
  8  9  1  0
  9 10  2  0
  8 11  1  0
  5 12  1  0
 12 14  1  0
 15 16  1  0
 13 17  1  0
 16 17  1  0
 16 18  2  0
 14 15  1  0
 12 13  1  0
  2  3  2  0
  3  4  1  0
  4  5  2  0
  5  6  1  0
  6  7  2  0
  2  7  1  0
M  END

$$$$
No_3855-/export/home/yangzhenyu/potential_scad_32_flow//YTHDC2/2024-12-06-03-22-00/
     RDKit          3D

 19 21  0  0  0  0  0  0  0  0999 V2000
    1.1787   -8.0297    3.5154 C   0  0  0  0  0  0  0  0  0  0  0  0
    1.0491   -6.8434    2.9820 C   0  0  0  0  0  0  0  0  0  0  0  0
    0.0950   -8.8404    3.2292 C   0  0  0  0  0  0  0  0  0  0  0  0
   -0.9173   -8.4596    2.5152 C   0  0  0  0  0  0  0  0  0  0  0  0
   -1.0331   -7.2162    2.0653 C   0  0  0  0  0  0  0  0  0  0  0  0
   -0.0105   -6.3168    2.3081 C   0  0  0  0  0  0  0  0  0  0  0  0
    0.1935  -10.3737    3.7416 C   0  0  0  0  0  0  0  0  0  0  0  0
   -0.9968  -11.0614    3.6410 C   0  0  0  0  0  0  0  0  0  0  0  0
   -2.0651  -10.5736    2.9123 C   0  0  0  0  0  0  0  0  0  0  0  0
   -3.1579  -11.4198    2.8493 C   0  0  0  0  0  0  0  0  0  0  0  0
   -2.0273   -9.4208    2.3372 C   0  0  0  0  0  0  0  0  0  0  0  0
   -0.0824   -4.9695    1.8590 C   0  0  0  0  0  0  0  0  0  0  0  0
   -0.6619   -4.1129    2.3003 N   0  0  0  0  0  0  0  0  0  0  0  0
   -2.9858  -12.6698    2.3256 C   0  0  0  0  0  0  0  0  0  0  0  0
   -4.0667  -13.6383    2.4896 C   0  0  0  0  0  0  0  0  0  0  0  0
   -5.1908  -13.2510    3.2088 C   0  0  0  0  0  0  0  0  0  0  0  0
   -5.3147  -12.0836    3.8696 C   0  0  0  0  0  0  0  0  0  0  0  0
   -4.3033  -11.1530    3.7390 C   0  0  0  0  0  0  0  0  0  0  0  0
    0.5116   -4.6987    0.6504 O   0  0  0  0  0  0  0  0  0  0  0  0
  9 10  1  0
  6 12  1  0
 12 13  1  0
 12 19  2  0
  1  2  2  0
  2  6  1  0
  5  6  2  0
  4  5  1  0
  1  3  1  0
  3  4  2  0
  4 11  1  0
  9 11  2  0
  8  9  1  0
  7  8  2  0
  3  7  1  0
 10 14  2  0
 14 15  1  0
 15 16  2  0
 16 17  1  0
 17 18  2  0
 10 18  1  0
M  END

$$$$
No_3856-/export/home/yangzhenyu/potential_scad_32_flow//YTHDC2/2024-12-06-03-22-00/
     RDKit          3D

 17 17  0  0  1  0  0  0  0  0999 V2000
    1.1787   -8.0297    3.5154 C   0  0  0  0  0  0  0  0  0  0  0  0
    1.1048   -9.2215    3.2892 C   0  0  0  0  0  0  0  0  0  0  0  0
    1.2339   -9.7611    2.0189 C   0  0  0  0  0  0  0  0  0  0  0  0
    1.3583   -9.0036    0.9764 C   0  0  0  0  0  0  0  0  0  0  0  0
    1.5996   -7.6362    1.1311 C   0  0  0  0  0  0  0  0  0  0  0  0
    1.4830   -7.0928    2.3626 C   0  0  0  0  0  0  0  0  0  0  0  0
    1.5395   -5.7300    2.6182 C   0  0  0  0  0  0  0  0  0  0  0  0
    1.1775  -11.2233    1.8407 C   0  0  1  0  0  0  0  0  0  0  0  0
    0.5085  -11.9762    2.1989 N   0  0  0  0  0  0  0  0  0  0  0  0
   -0.7398  -11.6527    2.6516 C   0  0  0  0  0  0  0  0  0  0  0  0
    1.1022  -13.0287    3.0755 C   0  0  0  0  0  0  0  0  0  0  0  0
    0.6676  -14.3948    2.8108 C   0  0  0  0  0  0  0  0  0  0  0  0
    1.5878  -15.3833    3.1250 O   0  0  0  0  0  0  0  0  0  0  0  0
   -0.1314  -14.6026    1.8553 O   0  0  0  0  0  0  0  0  0  0  0  0
    1.3023   -4.8042    1.6787 O   0  0  0  0  0  0  0  0  0  0  0  0
    1.5027   -5.1779    3.9084 O   0  0  0  0  0  0  0  0  0  0  0  0
    2.2113  -11.5969    0.8928 F   0  0  0  0  0  0  0  0  0  0  0  0
  6  7  1  0
  3  8  1  0
  8  9  1  0
  9 10  1  0
  9 11  1  0
 11 12  1  0
 12 13  1  0
 12 14  2  0
  7 15  2  0
  7 16  1  0
  8 17  1  6
  1  2  2  0
  2  3  1  0
  3  4  2  0
  4  5  1  0
  5  6  2  0
  1  6  1  0
M  END

$$$$
No_3857-/export/home/yangzhenyu/potential_scad_32_flow//YTHDC2/2024-12-06-03-22-00/
     RDKit          3D

 18 19  0  0  0  0  0  0  0  0999 V2000
    1.1787   -8.0297    3.5154 C   0  0  0  0  0  0  0  0  0  0  0  0
    1.0491   -6.8434    2.9820 C   0  0  0  0  0  0  0  0  0  0  0  0
    0.9905   -9.0774    2.6527 C   0  0  0  0  0  0  0  0  0  0  0  0
    0.7897   -8.9519    1.3691 C   0  0  0  0  0  0  0  0  0  0  0  0
    0.7018   -7.7198    0.7892 C   0  0  0  0  0  0  0  0  0  0  0  0
    0.8918   -6.5957    1.6117 C   0  0  0  0  0  0  0  0  0  0  0  0
    1.0600  -10.5680    3.3321 C   0  0  0  0  0  0  0  0  0  0  0  0
    1.1634  -11.6086    2.5010 C   0  0  0  0  0  0  0  0  0  0  0  0
    1.3344  -12.8974    3.1596 C   0  0  0  0  0  0  0  0  0  0  0  0
    1.1071  -14.0522    2.4564 C   0  0  0  0  0  0  0  0  0  0  0  0
    0.1583  -14.3093    1.7064 C   0  0  0  0  0  0  0  0  0  0  0  0
   -0.1601  -13.0775    0.9243 C   0  0  0  0  0  0  0  0  0  0  0  0
    0.2054  -11.8497    1.3456 C   0  0  0  0  0  0  0  0  0  0  0  0
    0.8350   -5.2860    1.1754 O   0  0  0  0  0  0  0  0  0  0  0  0
    1.3534  -15.2989    3.4122 F   0  0  0  0  0  0  0  0  0  0  0  0
   -0.1208  -15.5153    1.1154 C   0  0  0  0  0  0  0  0  0  0  0  0
   -1.3098  -16.0316    1.4163 C   0  0  0  0  0  0  0  0  0  0  0  0
   -1.5529  -17.3358    0.7506 C   0  0  0  0  0  0  0  0  0  0  0  0
  1  2  1  0
  3  4  1  0
  2  6  1  0
  5  6  1  0
  3  7  1  0
  6 14  2  0
 10 15  1  0
 11 16  1  0
 16 17  2  3
 17 18  1  0
  7  8  1  0
  1  3  1  0
  4  5  1  0
  8  9  2  0
  9 10  1  0
 10 11  2  0
 11 12  1  0
 12 13  2  0
  8 13  1  0
M  END

$$$$
No_3858-/export/home/yangzhenyu/potential_scad_32_flow//YTHDC2/2024-12-06-03-22-00/
     RDKit          3D

 18 19  0  0  0  0  0  0  0  0999 V2000
    1.1787   -8.0297    3.5154 C   0  0  0  0  0  0  0  0  0  0  0  0
    1.1048   -9.2215    3.2892 C   0  0  0  0  0  0  0  0  0  0  0  0
    1.2339   -9.7611    2.0189 C   0  0  0  0  0  0  0  0  0  0  0  0
    1.3583   -9.0036    0.9764 C   0  0  0  0  0  0  0  0  0  0  0  0
    1.5996   -7.6362    1.1311 C   0  0  0  0  0  0  0  0  0  0  0  0
    1.4830   -7.0928    2.3626 C   0  0  0  0  0  0  0  0  0  0  0  0
    1.1008  -11.2372    1.8542 C   0  0  0  0  0  0  0  0  0  0  0  0
    1.9749  -12.0938    2.2342 C   0  0  0  0  0  0  0  0  0  0  0  0
    1.5180  -13.3509    2.5910 C   0  0  0  0  0  0  0  0  0  0  0  0
    0.4120  -13.9272    2.2191 C   0  0  0  0  0  0  0  0  0  0  0  0
   -0.5260  -13.4192    1.9850 C   0  0  0  0  0  0  0  0  0  0  0  0
   -0.2994  -11.8667    1.6674 C   0  0  0  0  0  0  0  0  0  0  0  0
    1.5792   -5.6631    2.6216 C   0  0  0  0  0  0  0  0  0  0  0  0
    0.2297  -15.4719    2.7066 C   0  0  0  0  0  0  0  0  0  0  0  0
    1.3321  -16.1054    3.2235 C   0  0  0  0  0  0  0  0  0  0  0  0
    1.1511  -17.4254    3.5982 C   0  0  0  0  0  0  0  0  0  0  0  0
    0.2961  -17.9132    4.4087 C   0  0  0  0  0  0  0  0  0  0  0  0
   -0.9436  -17.0819    4.2136 C   0  0  0  0  0  0  0  0  0  0  0  0
  3  7  1  0
  6 13  1  0
 10 14  1  0
 14 15  2  3
 15 16  1  0
 16 17  2  3
 17 18  1  0
  1  2  2  0
  2  3  1  0
  3  4  2  0
  4  5  1  0
  5  6  2  0
  1  6  1  0
  7  8  2  0
  8  9  1  0
  9 10  2  0
 10 11  1  0
 11 12  2  0
  7 12  1  0
M  END

$$$$
No_3859-/export/home/yangzhenyu/potential_scad_32_flow//YTHDC2/2024-12-06-03-22-00/
     RDKit          3D

 19 20  0  0  0  0  0  0  0  0999 V2000
    1.1787   -8.0297    3.5154 C   0  0  0  0  0  0  0  0  0  0  0  0
    1.0491   -6.8434    2.9820 C   0  0  0  0  0  0  0  0  0  0  0  0
    0.9905   -9.0774    2.6527 C   0  0  0  0  0  0  0  0  0  0  0  0
    0.7897   -8.9519    1.3691 C   0  0  0  0  0  0  0  0  0  0  0  0
    0.7018   -7.7198    0.7892 C   0  0  0  0  0  0  0  0  0  0  0  0
    0.8918   -6.5957    1.6117 C   0  0  0  0  0  0  0  0  0  0  0  0
    1.0711  -10.4814    3.2282 C   0  0  0  0  0  0  0  0  0  0  0  0
   -0.1055  -11.1328    3.5223 C   0  0  0  0  0  0  0  0  0  0  0  0
   -0.1824  -12.4513    3.3816 C   0  0  0  0  0  0  0  0  0  0  0  0
    0.9472  -13.2655    3.1726 C   0  0  0  0  0  0  0  0  0  0  0  0
    2.1715  -12.6012    2.9116 C   0  0  0  0  0  0  0  0  0  0  0  0
    2.2064  -11.2741    2.8264 C   0  0  0  0  0  0  0  0  0  0  0  0
    0.9212  -14.7926    3.2458 C   0  0  0  0  0  0  0  0  0  0  0  0
    2.0083  -15.4106    2.7289 C   0  0  0  0  0  0  0  0  0  0  0  0
    1.9824  -16.8163    2.8270 C   0  0  0  0  0  0  0  0  0  0  0  0
    1.1731  -17.6827    3.3034 F   0  0  0  0  0  0  0  0  0  0  0  0
    3.1666  -17.3582    2.2737 F   0  0  0  0  0  0  0  0  0  0  0  0
    0.8453   -5.2730    1.1133 Cl  0  0  0  0  0  0  0  0  0  0  0  0
    0.5992  -10.0223    0.3653 Cl  0  0  0  0  0  0  0  0  0  0  0  0
  3  7  1  0
 10 13  1  0
 13 14  2  3
 14 15  1  0
 15 16  1  0
 15 17  1  0
  6 18  1  0
  4 19  1  0
  1  2  2  0
  2  6  1  0
  5  6  2  0
  4  5  1  0
  3  4  2  0
  1  3  1  0
  7  8  2  0
  8  9  1  0
  9 10  2  0
 10 11  1  0
 11 12  2  0
  7 12  1  0
M  END

$$$$
No_3860-/export/home/yangzhenyu/potential_scad_32_flow//YTHDC2/2024-12-06-03-22-00/
     RDKit          3D

 21 22  0  0  0  0  0  0  0  0999 V2000
    1.1787   -8.0297    3.5154 C   0  0  0  0  0  0  0  0  0  0  0  0
    1.0491   -6.8434    2.9820 C   0  0  0  0  0  0  0  0  0  0  0  0
    0.9905   -9.0774    2.6527 C   0  0  0  0  0  0  0  0  0  0  0  0
    0.7897   -8.9519    1.3691 C   0  0  0  0  0  0  0  0  0  0  0  0
    0.7018   -7.7198    0.7892 C   0  0  0  0  0  0  0  0  0  0  0  0
    0.8918   -6.5957    1.6117 C   0  0  0  0  0  0  0  0  0  0  0  0
    1.0774  -10.6059    3.3145 C   0  0  0  0  0  0  0  0  0  0  0  0
   -0.1032  -11.1934    3.4585 C   0  0  0  0  0  0  0  0  0  0  0  0
   -0.6526  -11.6596    2.5137 N   0  0  0  0  0  0  0  0  0  0  0  0
    0.0061  -12.6637    1.8959 C   0  0  0  0  0  0  0  0  0  0  0  0
   -0.4124  -13.1189    0.7127 C   0  0  0  0  0  0  0  0  0  0  0  0
   -1.1864  -12.2819   -0.1532 C   0  0  0  0  0  0  0  0  0  0  0  0
   -1.5298  -12.8483   -1.4217 C   0  0  0  0  0  0  0  0  0  0  0  0
   -1.0539  -14.0304   -1.8556 C   0  0  0  0  0  0  0  0  0  0  0  0
   -0.2008  -14.7886   -1.0155 C   0  0  0  0  0  0  0  0  0  0  0  0
    0.1296  -14.3352    0.2329 C   0  0  0  0  0  0  0  0  0  0  0  0
    1.0300  -13.3353    2.5789 N   0  0  0  0  0  0  0  0  0  0  0  0
    0.8455   -5.0981    1.0412 C   0  0  0  0  0  0  0  0  0  0  0  0
    0.1289   -4.2219    1.9521 C   0  0  0  0  0  0  0  0  0  0  0  0
    1.0107   -3.2910    2.4570 C   0  0  0  0  0  0  0  0  0  0  0  0
    1.4896  -14.1256    2.1495 H   0  0  0  0  0  0  0  0  0  0  0  0
  3  7  1  0
  7  8  1  0
  8  9  1  0
  9 10  1  0
 10 11  1  0
 10 17  2  0
  6 18  1  0
 18 19  1  0
 19 20  1  0
 11 12  2  0
 12 13  1  0
 13 14  2  0
 14 15  1  0
 15 16  2  0
 11 16  1  0
  1  2  2  0
  2  6  1  0
  5  6  2  0
  4  5  1  0
  3  4  2  0
  1  3  1  0
 17 21  1  0
M  END

$$$$
No_3861-/export/home/yangzhenyu/potential_scad_32_flow//YTHDC2/2024-12-06-03-22-00/
     RDKit          3D

 18 19  0  0  0  0  0  0  0  0999 V2000
    1.1787   -8.0297    3.5154 N   0  0  0  0  0  0  0  0  0  0  0  0
    0.8669   -7.0905    2.8589 C   0  0  0  0  0  0  0  0  0  0  0  0
    1.0447   -7.3244    1.4123 C   0  0  0  0  0  0  0  0  0  0  0  0
    1.3746   -8.4389    1.0864 C   0  0  0  0  0  0  0  0  0  0  0  0
    1.6686   -9.1952    2.5608 C   0  0  0  0  0  0  0  0  0  0  0  0
    2.0321  -10.4919    2.7987 C   0  0  0  0  0  0  0  0  0  0  0  0
    1.9869  -11.3722    1.7482 C   0  0  0  0  0  0  0  0  0  0  0  0
    2.3624  -10.7636    4.0839 C   0  0  0  0  0  0  0  0  0  0  0  0
    1.6274  -11.1384    0.5254 C   0  0  0  0  0  0  0  0  0  0  0  0
    1.3891   -9.2214   -0.0368 C   0  0  0  0  0  0  0  0  0  0  0  0
    1.2419   -8.1825   -0.9799 C   0  0  0  0  0  0  0  0  0  0  0  0
    1.4847  -10.3693   -0.2577 C   0  0  0  0  0  0  0  0  0  0  0  0
    0.6196   -8.3882   -1.9204 O   0  0  0  0  0  0  0  0  0  0  0  0
    2.2825   -7.6173   -1.4427 O   0  0  0  0  0  0  0  0  0  0  0  0
    1.4839  -10.9219    5.0728 N   0  0  0  0  0  0  0  0  0  0  0  0
    3.7134  -10.8886    4.5039 O   0  0  0  0  0  0  0  0  0  0  0  0
    0.7109   -5.7977    3.4933 C   0  0  0  0  0  0  0  0  0  0  0  0
    1.9162   -4.9295    3.6865 C   0  0  0  0  0  0  0  0  0  0  0  0
  1  2  1  0
  2  3  2  0
  3  4  1  0
  1  5  1  0
  4  5  2  0
  5  6  1  0
  6  7  2  0
  6  8  1  0
  7  9  1  0
  4 10  1  0
 10 11  1  0
  9 12  2  0
 10 12  1  0
 11 13  2  0
 11 14  1  0
  8 15  1  0
  8 16  2  0
  2 17  1  0
 17 18  1  0
M  END

$$$$
No_3862-/export/home/yangzhenyu/potential_scad_32_flow//YTHDC2/2024-12-06-03-22-00/
     RDKit          3D

 17 17  0  0  1  0  0  0  0  0999 V2000
    1.1787   -8.0297    3.5154 O   0  0  0  0  0  0  0  0  0  0  0  0
    0.6747   -7.4019    2.7838 C   0  0  0  0  0  0  0  0  0  0  0  0
    0.7594   -8.0032    1.4295 C   0  0  2  0  0  0  0  0  0  0  0  0
    0.3459   -9.1500    1.3581 C   0  0  0  0  0  0  0  0  0  0  0  0
    0.9461   -9.9230    0.3350 C   0  0  0  0  0  0  0  0  0  0  0  0
    1.6883   -9.1549   -0.6693 C   0  0  0  0  0  0  0  0  0  0  0  0
    2.2919   -7.9289   -0.4546 C   0  0  0  0  0  0  0  0  0  0  0  0
    1.8021   -7.1760    0.6858 C   0  0  0  0  0  0  0  0  0  0  0  0
    0.6770  -11.1152    0.0462 O   0  0  0  0  0  0  0  0  0  0  0  0
   -0.5702   -9.7179    2.0237 C   0  0  0  0  0  0  0  0  0  0  0  0
   -1.9027   -9.3911    1.9969 C   0  0  0  0  0  0  0  0  0  0  0  0
   -2.2243   -8.2847    1.0447 C   0  0  0  0  0  0  0  0  0  0  0  0
   -2.3289   -8.5795   -0.2780 C   0  0  0  0  0  0  0  0  0  0  0  0
   -2.1029   -7.4965   -1.2345 C   0  0  0  0  0  0  0  0  0  0  0  0
   -1.9915   -7.9823   -2.6782 P   0  0  0  0  0  0  0  0  0  0  0  0
   -2.0027   -9.3088   -2.7235 O   0  0  0  0  0  0  0  0  0  0  0  0
   -0.5473   -7.5247   -3.2569 O   0  0  0  0  0  0  0  0  0  0  0  0
  1  2  1  0
  3  2  1  1
  3  4  1  0
  4  5  1  0
  5  6  1  0
  6  7  1  0
  3  8  1  0
  7  8  1  0
  5  9  2  0
  4 10  1  0
 10 11  2  3
 11 12  1  0
 12 13  1  0
 13 14  2  3
 14 15  1  0
 15 16  2  0
 15 17  2  0
M  END

$$$$
No_3863-/export/home/yangzhenyu/potential_scad_32_flow//YTHDC2/2024-12-06-03-22-00/
     RDKit          3D

 17 17  0  0  1  0  0  0  0  0999 V2000
    1.1787   -8.0297    3.5154 C   0  0  0  0  0  0  0  0  0  0  0  0
    1.1048   -9.2215    3.2892 C   0  0  0  0  0  0  0  0  0  0  0  0
    1.2339   -9.7611    2.0189 C   0  0  0  0  0  0  0  0  0  0  0  0
    1.3583   -9.0036    0.9764 C   0  0  0  0  0  0  0  0  0  0  0  0
    1.5996   -7.6362    1.1311 C   0  0  0  0  0  0  0  0  0  0  0  0
    1.4830   -7.0928    2.3626 C   0  0  0  0  0  0  0  0  0  0  0  0
    1.5395   -5.7300    2.6182 C   0  0  0  0  0  0  0  0  0  0  0  0
    1.1775  -11.2233    1.8407 C   0  0  0  0  0  0  0  0  0  0  0  0
    0.7252  -11.5870    0.5412 O   0  0  0  0  0  0  0  0  0  0  0  0
    1.6561  -12.0585    2.6191 N   0  0  0  0  0  0  0  0  0  0  0  0
    1.6681  -13.4386    2.3529 C   0  0  2  0  0  0  0  0  0  0  0  0
    2.7136  -14.1523    1.7590 C   0  0  0  0  0  0  0  0  0  0  0  0
    0.3943  -13.6746    1.4637 C   0  0  0  0  0  0  0  0  0  0  0  0
   -0.7459  -13.8368    2.1702 C   0  0  0  0  0  0  0  0  0  0  0  0
   -1.8158  -14.4409    1.6083 C   0  0  0  0  0  0  0  0  0  0  0  0
   -2.7081  -13.5519    1.0095 C   0  0  0  0  0  0  0  0  0  0  0  0
   -3.1713  -12.5139    1.7770 C   0  0  0  0  0  0  0  0  0  0  0  0
  6  7  1  0
  3  8  1  0
  8  9  2  0
  8 10  1  0
 10 11  1  0
 11 12  1  6
 11 13  1  0
 13 14  1  0
 14 15  1  0
 15 16  1  0
 16 17  1  0
  1  2  2  0
  2  3  1  0
  3  4  2  0
  4  5  1  0
  5  6  2  0
  1  6  1  0
M  END

$$$$
No_3864-/export/home/yangzhenyu/potential_scad_32_flow//YTHDC2/2024-12-06-03-22-00/
     RDKit          3D

 18 19  0  0  0  0  0  0  0  0999 V2000
    1.1787   -8.0297    3.5154 C   0  0  0  0  0  0  0  0  0  0  0  0
    1.1048   -9.2215    3.2892 C   0  0  0  0  0  0  0  0  0  0  0  0
    1.3627  -10.1721    4.3044 C   0  0  0  0  0  0  0  0  0  0  0  0
    1.7354  -11.4730    3.9023 C   0  0  0  0  0  0  0  0  0  0  0  0
    1.8080  -11.8127    2.7216 C   0  0  0  0  0  0  0  0  0  0  0  0
    1.5854  -11.0021    1.7249 C   0  0  0  0  0  0  0  0  0  0  0  0
    1.3573   -9.7389    1.9287 C   0  0  0  0  0  0  0  0  0  0  0  0
    1.2865   -8.8078    0.9161 C   0  0  0  0  0  0  0  0  0  0  0  0
    0.9210   -7.5140    1.1674 C   0  0  0  0  0  0  0  0  0  0  0  0
    1.0097   -7.0192    2.4369 C   0  0  0  0  0  0  0  0  0  0  0  0
    2.0228  -13.2586    2.4222 Cl  0  0  0  0  0  0  0  0  0  0  0  0
    0.8619   -5.5996    2.6914 C   0  0  0  0  0  0  0  0  0  0  0  0
    1.1622   -4.7966    1.8203 C   0  0  0  0  0  0  0  0  0  0  0  0
    0.4529   -3.4390    1.8917 C   0  0  0  0  0  0  0  0  0  0  0  0
   -0.6263   -3.2807    2.1987 C   0  0  0  0  0  0  0  0  0  0  0  0
    0.8691   -2.4793    0.7512 C   0  0  0  0  0  0  0  0  0  0  0  0
    1.4441   -9.1821   -0.4037 C   0  0  0  0  0  0  0  0  0  0  0  0
    2.6805   -9.3417   -0.9091 Br  0  0  0  0  0  0  0  0  0  0  0  0
  5 11  1  0
 10 12  1  0
 12 13  1  0
 13 14  1  0
 14 15  1  0
 14 16  1  0
  8 17  1  0
 17 18  1  0
  1  2  2  0
  7  8  2  0
  8  9  1  0
  9 10  2  0
  1 10  1  0
  2  3  1  0
  3  4  2  0
  4  5  1  0
  5  6  2  0
  6  7  1  0
  2  7  1  0
M  END

$$$$
No_3865-/export/home/yangzhenyu/potential_scad_32_flow//YTHDC2/2024-12-06-03-22-00/
     RDKit          3D

 18 19  0  0  1  0  0  0  0  0999 V2000
    1.1787   -8.0297    3.5154 C   0  0  0  0  0  0  0  0  0  0  0  0
    1.0491   -6.8434    2.9820 C   0  0  0  0  0  0  0  0  0  0  0  0
    0.9905   -9.0774    2.6527 C   0  0  0  0  0  0  0  0  0  0  0  0
    0.7897   -8.9519    1.3691 C   0  0  0  0  0  0  0  0  0  0  0  0
    0.7018   -7.7198    0.7892 C   0  0  0  0  0  0  0  0  0  0  0  0
    0.8918   -6.5957    1.6117 C   0  0  0  0  0  0  0  0  0  0  0  0
    1.0998  -10.4710    3.2437 C   0  0  1  0  0  0  0  0  0  0  0  0
    2.1917  -10.8879    3.7399 C   0  0  0  0  0  0  0  0  0  0  0  0
    0.8624   -5.2493    1.2482 C   0  0  0  0  0  0  0  0  0  0  0  0
   -0.0161  -11.2304    3.3728 C   0  0  0  0  0  0  0  0  0  0  0  0
   -1.1393  -10.5491    3.9487 C   0  0  0  0  0  0  0  0  0  0  0  0
   -0.9359   -9.7889    5.1894 C   0  0  0  0  0  0  0  0  0  0  0  0
   -1.9795   -8.9855    5.5911 C   0  0  0  0  0  0  0  0  0  0  0  0
   -3.2452   -9.1059    5.3417 C   0  0  0  0  0  0  0  0  0  0  0  0
   -3.5161   -9.9920    4.3467 C   0  0  0  0  0  0  0  0  0  0  0  0
   -2.5533  -10.7554    3.7487 C   0  0  0  0  0  0  0  0  0  0  0  0
    2.4556  -12.1141    4.2474 O   0  0  0  0  0  0  0  0  0  0  0  0
    0.1995   -4.2876    2.0466 F   0  0  0  0  0  0  0  0  0  0  0  0
  3  7  1  0
  7  8  1  0
  6  9  1  0
  7 10  1  1
 10 11  1  0
  8 17  2  0
  9 18  1  0
 11 12  2  0
 12 13  1  0
 13 14  2  0
 14 15  1  0
 15 16  2  0
 11 16  1  0
  1  2  2  0
  2  6  1  0
  5  6  2  0
  4  5  1  0
  3  4  2  0
  1  3  1  0
M  END

$$$$
No_3866-/export/home/yangzhenyu/potential_scad_32_flow//YTHDC2/2024-12-06-03-22-00/
     RDKit          3D

 17 18  0  0  0  0  0  0  0  0999 V2000
    1.1787   -8.0297    3.5154 C   0  0  0  0  0  0  0  0  0  0  0  0
    1.1048   -9.2215    3.2892 N   0  0  0  0  0  0  0  0  0  0  0  0
    1.0346   -9.7785    2.1176 C   0  0  0  0  0  0  0  0  0  0  0  0
    1.2597   -9.0826    1.0431 C   0  0  0  0  0  0  0  0  0  0  0  0
    1.5530   -7.7656    1.0977 C   0  0  0  0  0  0  0  0  0  0  0  0
    1.5300   -7.1323    2.3379 C   0  0  0  0  0  0  0  0  0  0  0  0
    1.5865   -5.7484    2.5734 C   0  0  0  0  0  0  0  0  0  0  0  0
    0.9746  -11.2434    2.1142 C   0  0  0  0  0  0  0  0  0  0  0  0
    1.9518  -12.0263    2.4377 C   0  0  0  0  0  0  0  0  0  0  0  0
    1.7708  -13.4132    2.2900 C   0  0  0  0  0  0  0  0  0  0  0  0
    0.5984  -13.9078    1.8785 C   0  0  0  0  0  0  0  0  0  0  0  0
   -0.4760  -13.1540    1.6384 C   0  0  0  0  0  0  0  0  0  0  0  0
   -0.3250  -11.7837    1.6750 C   0  0  0  0  0  0  0  0  0  0  0  0
    0.4190  -15.3738    1.8489 C   0  0  0  0  0  0  0  0  0  0  0  0
    0.9458  -16.1831    2.8992 C   0  0  0  0  0  0  0  0  0  0  0  0
    0.7080  -17.5209    2.9964 C   0  0  0  0  0  0  0  0  0  0  0  0
   -0.0578  -18.1031    2.0806 C   0  0  0  0  0  0  0  0  0  0  0  0
  6  7  1  0
  3  8  1  0
 11 14  1  0
 14 15  1  0
 15 16  2  3
 16 17  1  0
  1  2  2  0
  2  3  1  0
  3  4  2  0
  4  5  1  0
  5  6  2  0
  1  6  1  0
  8  9  2  0
  9 10  1  0
 10 11  2  0
 11 12  1  0
 12 13  2  0
  8 13  1  0
M  END

$$$$
No_3867-/export/home/yangzhenyu/potential_scad_32_flow//YTHDC2/2024-12-06-03-22-00/
     RDKit          3D

 17 18  0  0  0  0  0  0  0  0999 V2000
    1.1787   -8.0297    3.5154 C   0  0  0  0  0  0  0  0  0  0  0  0
    1.1048   -9.2215    3.2892 C   0  0  0  0  0  0  0  0  0  0  0  0
    1.3627  -10.1721    4.3044 C   0  0  0  0  0  0  0  0  0  0  0  0
    1.7354  -11.4730    3.9023 C   0  0  0  0  0  0  0  0  0  0  0  0
    1.8080  -11.8127    2.7216 C   0  0  0  0  0  0  0  0  0  0  0  0
    1.5854  -11.0021    1.7249 C   0  0  0  0  0  0  0  0  0  0  0  0
    1.3573   -9.7389    1.9287 C   0  0  0  0  0  0  0  0  0  0  0  0
    1.1102   -8.8712    0.9017 C   0  0  0  0  0  0  0  0  0  0  0  0
    0.5299   -7.6926    1.0325 C   0  0  0  0  0  0  0  0  0  0  0  0
    0.7526   -7.0802    2.3301 C   0  0  0  0  0  0  0  0  0  0  0  0
    2.0515  -13.2522    2.4284 O   0  0  0  0  0  0  0  0  0  0  0  0
    0.4866   -5.6528    2.5258 C   0  0  0  0  0  0  0  0  0  0  0  0
    1.5907   -4.9441    2.9670 C   0  0  0  0  0  0  0  0  0  0  0  0
    1.3279  -14.0592    1.7430 C   0  0  0  0  0  0  0  0  0  0  0  0
    1.2199   -3.4919    3.0402 C   0  0  0  0  0  0  0  0  0  0  0  0
   -0.0355   -3.0419    2.9552 C   0  0  0  0  0  0  0  0  0  0  0  0
   -1.0400   -3.8466    2.5520 C   0  0  0  0  0  0  0  0  0  0  0  0
  5 11  1  0
 10 12  1  0
 12 13  1  0
 11 14  1  0
 13 15  2  3
 15 16  1  0
 16 17  2  0
  1  2  2  0
  7  8  2  0
  8  9  1  0
  9 10  2  0
  1 10  1  0
  2  3  1  0
  3  4  2  0
  4  5  1  0
  5  6  2  0
  6  7  1  0
  2  7  1  0
M  END

$$$$
No_3868-/export/home/yangzhenyu/potential_scad_32_flow//YTHDC2/2024-12-06-03-22-00/
     RDKit          3D

 18 19  0  0  1  0  0  0  0  0999 V2000
    1.1787   -8.0297    3.5154 C   0  0  0  0  0  0  0  0  0  0  0  0
    1.1048   -9.2215    3.2892 C   0  0  0  0  0  0  0  0  0  0  0  0
    1.3627  -10.1721    4.3044 C   0  0  0  0  0  0  0  0  0  0  0  0
    1.0682  -11.5187    4.0618 C   0  0  0  0  0  0  0  0  0  0  0  0
    0.6332  -11.9655    2.9682 C   0  0  0  0  0  0  0  0  0  0  0  0
    0.4776  -11.1308    1.9203 C   0  0  0  0  0  0  0  0  0  0  0  0
    0.7470   -9.8274    2.0368 C   0  0  0  0  0  0  0  0  0  0  0  0
    0.5535   -7.1314    2.6861 N   0  0  0  0  0  0  0  0  0  0  0  0
    0.3069   -7.6119    1.3920 C   0  0  0  0  0  0  0  0  0  0  0  0
    0.2579   -8.8240    1.1187 C   0  0  0  0  0  0  0  0  0  0  0  0
   -0.0304   -6.6302    0.5461 O   0  0  0  0  0  0  0  0  0  0  0  0
    0.4746  -13.6120    2.7121 C   0  0  0  0  0  0  0  0  0  0  0  0
   -0.6038  -13.9994    2.5494 O   0  0  0  0  0  0  0  0  0  0  0  0
    1.5085  -14.3532    3.1168 N   0  0  0  0  0  0  0  0  0  0  0  0
    1.5475  -15.6813    2.9667 C   0  0  1  0  0  0  0  0  0  0  0  0
    0.6832  -16.5120    3.6153 C   0  0  0  0  0  0  0  0  0  0  0  0
    1.9416  -16.1421    1.7351 C   0  0  0  0  0  0  0  0  0  0  0  0
    1.9260  -17.6377    1.7919 C   0  0  0  0  0  0  0  0  0  0  0  0
  1  2  1  0
  8  9  1  0
  7 10  1  0
  9 10  1  0
  9 11  2  0
  5 12  1  0
 12 13  2  0
 12 14  1  0
 14 15  1  0
 15 16  1  6
 15 17  1  0
 17 18  2  0
  1  8  1  0
  2  3  2  0
  3  4  1  0
  4  5  2  0
  5  6  1  0
  6  7  2  0
  2  7  1  0
M  END

$$$$
No_3869-/export/home/yangzhenyu/potential_scad_32_flow//YTHDC2/2024-12-06-03-22-00/
     RDKit          3D

 18 19  0  0  1  0  0  0  0  0999 V2000
    1.1787   -8.0297    3.5154 C   0  0  0  0  0  0  0  0  0  0  0  0
    1.1048   -9.2215    3.2892 C   0  0  2  0  0  0  0  0  0  0  0  0
    1.3627  -10.1721    4.3044 C   0  0  0  0  0  0  0  0  0  0  0  0
    1.7354  -11.4730    3.9023 C   0  0  0  0  0  0  0  0  0  0  0  0
    1.6166  -11.5515    2.5159 C   0  0  1  0  0  0  0  0  0  0  0  0
    1.4080  -10.1475    2.0704 C   0  0  2  0  0  0  0  0  0  0  0  0
    1.0837   -7.1462    2.2374 C   0  0  2  0  0  0  0  0  0  0  0  0
    1.3901   -7.8684    1.0270 C   0  0  0  0  0  0  0  0  0  0  0  0
    1.5319   -9.2097    0.9492 C   0  0  0  0  0  0  0  0  0  0  0  0
    1.7955   -9.7511   -0.2799 O   0  0  0  0  0  0  0  0  0  0  0  0
    0.9527   -5.5602    2.2177 C   0  0  0  0  0  0  0  0  0  0  0  0
    1.9091  -12.4165    1.6897 C   0  0  0  0  0  0  0  0  0  0  0  0
    1.5664  -12.6180    0.5142 O   0  0  0  0  0  0  0  0  0  0  0  0
    2.2872  -13.6861    2.1696 O   0  0  0  0  0  0  0  0  0  0  0  0
    0.1021   -5.1496    1.2256 C   0  0  0  0  0  0  0  0  0  0  0  0
   -1.0084   -5.6982    0.9232 C   0  0  0  0  0  0  0  0  0  0  0  0
   -1.8218   -5.2101   -0.1101 C   0  0  0  0  0  0  0  0  0  0  0  0
   -2.5795   -5.9157   -0.8672 C   0  0  0  0  0  0  0  0  0  0  0  0
  2  1  1  1
  2  3  1  0
  3  4  2  0
  4  5  1  0
  2  6  1  0
  5  6  1  0
  7  8  1  0
  6  9  1  1
  8  9  1  0
  9 10  2  0
  7 11  1  1
  5 12  1  6
 12 13  2  0
 12 14  1  0
 11 15  1  0
 15 16  2  3
 16 17  1  0
 17 18  2  0
  1  7  1  0
M  END

$$$$
No_3870-/export/home/yangzhenyu/potential_scad_32_flow//YTHDC2/2024-12-06-03-22-00/
     RDKit          3D

 19 20  0  0  0  0  0  0  0  0999 V2000
    1.1787   -8.0297    3.5154 C   0  0  0  0  0  0  0  0  0  0  0  0
    1.1048   -9.2215    3.2892 C   0  0  0  0  0  0  0  0  0  0  0  0
    1.3627  -10.1721    4.3044 C   0  0  0  0  0  0  0  0  0  0  0  0
    2.3720  -10.8948    4.2468 C   0  0  0  0  0  0  0  0  0  0  0  0
    0.8234   -7.0464    2.5717 C   0  0  0  0  0  0  0  0  0  0  0  0
    0.4328   -7.4736    1.3042 C   0  0  0  0  0  0  0  0  0  0  0  0
    0.3532   -8.7488    0.9919 C   0  0  0  0  0  0  0  0  0  0  0  0
    0.7039   -9.7094    1.9672 C   0  0  0  0  0  0  0  0  0  0  0  0
    0.6986  -10.9809    1.7122 N   0  0  0  0  0  0  0  0  0  0  0  0
    2.2820  -12.2285    4.0278 C   0  0  0  0  0  0  0  0  0  0  0  0
    1.6815  -12.5813    2.6162 C   0  0  0  0  0  0  0  0  0  0  0  0
    1.0801  -12.1149    1.7450 C   0  0  0  0  0  0  0  0  0  0  0  0
    2.0308  -14.0588    2.5034 C   0  0  0  0  0  0  0  0  0  0  0  0
    1.0038   -5.5637    2.7954 C   0  0  0  0  0  0  0  0  0  0  0  0
    0.7732  -12.8344    0.7306 O   0  0  0  0  0  0  0  0  0  0  0  0
    1.1454  -14.9489    2.9102 O   0  0  0  0  0  0  0  0  0  0  0  0
    3.1328  -14.5676    2.0387 O   0  0  0  0  0  0  0  0  0  0  0  0
    1.6916   -5.2337    3.8355 C   0  0  0  0  0  0  0  0  0  0  0  0
    0.6915   -4.7775    1.7657 C   0  0  0  0  0  0  0  0  0  0  0  0
  2  3  1  0
  3  4  1  0
  4 10  2  3
 10 11  1  0
  9 12  1  0
 11 12  1  0
 11 13  1  0
  5 14  1  0
 12 15  2  0
 13 16  1  0
 13 17  2  0
 14 18  1  0
 14 19  1  0
  8  9  1  0
  1  2  2  0
  2  8  1  0
  7  8  2  0
  6  7  1  0
  5  6  2  0
  1  5  1  0
M  END

$$$$
No_3871-/export/home/yangzhenyu/potential_scad_32_flow//YTHDC2/2024-12-06-03-22-00/
     RDKit          3D

 18 19  0  0  1  0  0  0  0  0999 V2000
    1.1787   -8.0297    3.5154 C   0  0  0  0  0  0  0  0  0  0  0  0
    1.1048   -9.2215    3.2892 C   0  0  0  0  0  0  0  0  0  0  0  0
    1.3627  -10.1721    4.3044 C   0  0  0  0  0  0  0  0  0  0  0  0
    1.7354  -11.4730    3.9023 C   0  0  0  0  0  0  0  0  0  0  0  0
    1.8080  -11.8127    2.7216 C   0  0  0  0  0  0  0  0  0  0  0  0
    1.5854  -11.0021    1.7249 C   0  0  0  0  0  0  0  0  0  0  0  0
    1.3573   -9.7389    1.9287 C   0  0  0  0  0  0  0  0  0  0  0  0
    1.1102   -8.8712    0.9017 C   0  0  0  0  0  0  0  0  0  0  0  0
    1.5724   -9.1697   -0.3048 O   0  0  0  0  0  0  0  0  0  0  0  0
    0.5064   -7.6844    0.9896 C   0  0  0  0  0  0  0  0  0  0  0  0
    1.2705   -6.8742    2.8796 C   0  0  0  0  0  0  0  0  0  0  0  0
    0.7956   -6.6699    1.5921 C   0  0  2  0  0  0  0  0  0  0  0  0
    0.5454   -5.3585    1.1943 C   0  0  0  0  0  0  0  0  0  0  0  0
    2.0591  -13.2392    2.3696 Cl  0  0  0  0  0  0  0  0  0  0  0  0
   -0.5938   -5.0355    0.6618 C   0  0  0  0  0  0  0  0  0  0  0  0
   -0.8770   -3.6466    0.2642 C   0  0  0  0  0  0  0  0  0  0  0  0
   -1.5024   -3.2340   -0.6787 C   0  0  0  0  0  0  0  0  0  0  0  0
   -2.1253   -4.1882   -1.4714 C   0  0  0  0  0  0  0  0  0  0  0  0
  1  2  1  0
  7  8  1  0
  8  9  2  0
  8 10  1  0
  1 11  2  0
 12 10  1  1
 11 12  1  0
 12 13  1  0
  5 14  1  0
 13 15  2  3
 15 16  1  0
 16 17  2  3
 17 18  1  0
  2  3  2  0
  3  4  1  0
  4  5  2  0
  5  6  1  0
  6  7  2  0
  2  7  1  0
M  END

$$$$
No_3872-/export/home/yangzhenyu/potential_scad_32_flow//YTHDC2/2024-12-06-03-22-00/
     RDKit          3D

 14 14  0  0  1  0  0  0  0  0999 V2000
    1.1787   -8.0297    3.5154 C   0  0  0  0  0  0  0  0  0  0  0  0
    1.0491   -6.8434    2.9820 C   0  0  0  0  0  0  0  0  0  0  0  0
    1.9985   -8.9840    2.8958 C   0  0  2  0  0  0  0  0  0  0  0  0
    1.7297   -9.2108    1.6335 C   0  0  0  0  0  0  0  0  0  0  0  0
    1.7343   -8.0566    0.8408 C   0  0  1  0  0  0  0  0  0  0  0  0
    1.4996   -6.5076    2.0364 C   0  0  0  0  0  0  0  0  0  0  0  0
    1.7100   -7.2746    0.9665 C   0  0  0  0  0  0  0  0  0  0  0  0
    2.2039   -8.6888   -0.5685 C   0  0  0  0  0  0  0  0  0  0  0  0
    2.4172   -9.9752   -0.7350 O   0  0  0  0  0  0  0  0  0  0  0  0
    2.2747   -8.0766   -1.7041 O   0  0  0  0  0  0  0  0  0  0  0  0
    0.9288   -4.9338    1.7396 Cl  0  0  0  0  0  0  0  0  0  0  0  0
    1.9834  -10.3746    3.5907 C   0  0  0  0  0  0  0  0  0  0  0  0
    2.9411  -10.5429    4.4770 O   0  0  0  0  0  0  0  0  0  0  0  0
    1.2837  -11.3661    3.3022 O   0  0  0  0  0  0  0  0  0  0  0  0
  1  2  1  0
  1  3  1  0
  3  4  1  0
  4  5  1  0
  2  6  2  0
  5  7  1  0
  6  7  1  0
  5  8  1  1
  8  9  2  0
  8 10  1  0
  6 11  1  0
  3 12  1  1
 12 13  1  0
 12 14  2  0
M  END

$$$$
No_3873-/export/home/yangzhenyu/potential_scad_32_flow//YTHDC2/2024-12-06-03-22-00/
     RDKit          3D

 18 18  0  0  1  0  0  0  0  0999 V2000
    1.1787   -8.0297    3.5154 O   0  0  0  0  0  0  0  0  0  0  0  0
    0.6747   -7.4019    2.7838 C   0  0  0  0  0  0  0  0  0  0  0  0
    0.7594   -8.0032    1.4295 C   0  0  0  0  0  0  0  0  0  0  0  0
    1.4743   -7.4398    0.6034 C   0  0  0  0  0  0  0  0  0  0  0  0
    1.8433   -8.4151   -0.4648 C   0  0  0  0  0  0  0  0  0  0  0  0
    1.3204   -9.5205   -0.5909 C   0  0  0  0  0  0  0  0  0  0  0  0
    0.4880  -10.0838    0.3555 C   0  0  0  0  0  0  0  0  0  0  0  0
    0.2363   -9.3226    1.4465 C   0  0  0  0  0  0  0  0  0  0  0  0
   -0.5984   -9.6542    2.4538 C   0  0  2  0  0  0  0  0  0  0  0  0
   -1.8465   -9.1558    2.6200 Cl  0  0  0  0  0  0  0  0  0  0  0  0
    0.5580   -6.0989    2.9756 O   0  0  0  0  0  0  0  0  0  0  0  0
    0.2999   -9.8429    3.7948 C   0  0  0  0  0  0  0  0  0  0  0  0
    0.5363  -11.2154    3.9890 C   0  0  0  0  0  0  0  0  0  0  0  0
    1.3985  -11.7723    3.1175 C   0  0  1  0  0  0  0  0  0  0  0  0
    2.5765  -11.0771    3.0012 C   0  0  0  0  0  0  0  0  0  0  0  0
    1.6589  -13.2674    3.4206 C   0  0  0  0  0  0  0  0  0  0  0  0
    1.1060  -14.1399    2.2849 C   0  0  0  0  0  0  0  0  0  0  0  0
    1.1440  -15.2028    2.1017 C   0  0  0  0  0  0  0  0  0  0  0  0
  1  2  1  0
  2  3  1  0
  8  9  1  0
  9 10  1  1
  2 11  2  0
  9 12  1  0
 12 13  1  0
 13 14  1  0
 14 15  1  1
 14 16  1  0
 16 17  1  0
 17 18  1  0
  3  4  2  0
  4  5  1  0
  5  6  2  0
  6  7  1  0
  7  8  2  0
  3  8  1  0
M  END

$$$$
No_3874-/export/home/yangzhenyu/potential_scad_32_flow//YTHDC2/2024-12-06-03-22-00/
     RDKit          3D

 17 18  0  0  1  0  0  0  0  0999 V2000
    1.1787   -8.0297    3.5154 C   0  0  0  0  0  0  0  0  0  0  0  0
    1.1048   -9.2215    3.2892 C   0  0  0  0  0  0  0  0  0  0  0  0
    1.0239   -9.7790    2.0239 C   0  0  1  0  0  0  0  0  0  0  0  0
    1.1393   -9.0211    0.9686 C   0  0  0  0  0  0  0  0  0  0  0  0
    1.4050   -7.6500    1.1251 C   0  0  0  0  0  0  0  0  0  0  0  0
    1.4868   -7.1041    2.3534 C   0  0  1  0  0  0  0  0  0  0  0  0
    1.5885   -5.7190    2.5687 C   0  0  0  0  0  0  0  0  0  0  0  0
    0.8747  -11.3633    1.9261 C   0  0  0  0  0  0  0  0  0  0  0  0
   -0.2067  -11.6965    1.2277 C   0  0  0  0  0  0  0  0  0  0  0  0
   -0.3283  -13.0799    1.0153 C   0  0  0  0  0  0  0  0  0  0  0  0
    0.2873  -13.8862    1.3469 C   0  0  0  0  0  0  0  0  0  0  0  0
    1.4657  -13.5873    2.2167 C   0  0  0  0  0  0  0  0  0  0  0  0
    1.7665  -12.2498    2.3743 C   0  0  0  0  0  0  0  0  0  0  0  0
    2.4469  -14.5741    2.6981 Cl  0  0  0  0  0  0  0  0  0  0  0  0
    1.5888   -6.9140    0.1191 O   0  0  0  0  0  0  0  0  0  0  0  0
    0.0995  -15.2984    1.1915 C   0  0  0  0  0  0  0  0  0  0  0  0
   -0.9884  -15.6822    0.7732 C   0  0  0  0  0  0  0  0  0  0  0  0
  2  3  1  0
  4  5  1  0
  1  6  1  0
  5  6  1  0
  6  7  1  6
  3  8  1  1
 12 14  1  0
  5 15  2  0
 11 16  1  0
 16 17  2  0
  3  4  1  0
  1  2  1  0
  8  9  2  0
  9 10  1  0
 10 11  2  0
 11 12  1  0
 12 13  2  0
  8 13  1  0
M  END

$$$$
No_3875-/export/home/yangzhenyu/potential_scad_32_flow//YTHDC2/2024-12-06-03-22-00/
     RDKit          3D

 18 20  0  0  0  0  0  0  0  0999 V2000
    1.1787   -8.0297    3.5154 C   0  0  0  0  0  0  0  0  0  0  0  0
    1.1048   -9.2215    3.2892 C   0  0  0  0  0  0  0  0  0  0  0  0
    1.3627  -10.1721    4.3044 C   0  0  0  0  0  0  0  0  0  0  0  0
    1.0682  -11.5187    4.0618 C   0  0  0  0  0  0  0  0  0  0  0  0
    0.6332  -11.9655    2.9682 C   0  0  0  0  0  0  0  0  0  0  0  0
    0.4776  -11.1308    1.9203 C   0  0  0  0  0  0  0  0  0  0  0  0
    0.7470   -9.8274    2.0368 C   0  0  0  0  0  0  0  0  0  0  0  0
    0.5536   -7.1314    2.6860 N   0  0  0  0  0  0  0  0  0  0  0  0
    0.3069   -7.6119    1.3919 C   0  0  0  0  0  0  0  0  0  0  0  0
    0.2579   -8.8240    1.1187 C   0  0  0  0  0  0  0  0  0  0  0  0
   -0.0304   -6.6302    0.5461 C   0  0  0  0  0  0  0  0  0  0  0  0
   -0.7698   -7.0231   -0.4917 C   0  0  0  0  0  0  0  0  0  0  0  0
   -0.9029   -8.3334   -0.8463 C   0  0  0  0  0  0  0  0  0  0  0  0
   -0.3652   -9.2258   -0.0863 C   0  0  0  0  0  0  0  0  0  0  0  0
   -1.8489   -8.6378   -1.8168 O   0  0  0  0  0  0  0  0  0  0  0  0
    0.5382  -13.3906    2.6977 C   0  0  0  0  0  0  0  0  0  0  0  0
    0.9214  -14.0179    1.7631 C   0  0  0  0  0  0  0  0  0  0  0  0
    1.6742  -15.0861    1.8672 C   0  0  0  0  0  0  0  0  0  0  0  0
  9 11  1  0
 12 13  1  0
 10 14  1  0
 13 14  1  0
 13 15  2  0
  5 16  1  0
 16 17  1  0
 17 18  2  0
 11 12  1  0
  2  3  1  0
  3  4  2  0
  4  5  1  0
  5  6  2  0
  6  7  1  0
  1  2  2  0
  2  7  1  0
  7 10  2  0
  9 10  1  0
  8  9  2  0
  1  8  1  0
M  END

$$$$
No_3876-/export/home/yangzhenyu/potential_scad_32_flow//YTHDC2/2024-12-06-03-22-00/
     RDKit          3D

 18 19  0  0  0  0  0  0  0  0999 V2000
    1.1787   -8.0297    3.5154 C   0  0  0  0  0  0  0  0  0  0  0  0
    1.1048   -9.2215    3.2892 C   0  0  0  0  0  0  0  0  0  0  0  0
    1.2339   -9.7611    2.0189 C   0  0  0  0  0  0  0  0  0  0  0  0
    1.3583   -9.0036    0.9764 C   0  0  0  0  0  0  0  0  0  0  0  0
    1.5996   -7.6362    1.1311 C   0  0  0  0  0  0  0  0  0  0  0  0
    1.4830   -7.0928    2.3626 C   0  0  0  0  0  0  0  0  0  0  0  0
    1.1171  -11.3311    1.8661 C   0  0  0  0  0  0  0  0  0  0  0  0
    0.5022  -11.6388    0.6531 N   0  0  0  0  0  0  0  0  0  0  0  0
    1.7354  -12.0497    2.6433 C   0  0  0  0  0  0  0  0  0  0  0  0
    1.6435  -13.4593    2.3328 C   0  0  0  0  0  0  0  0  0  0  0  0
    1.0194  -13.8711    1.1604 C   0  0  0  0  0  0  0  0  0  0  0  0
    0.9536  -15.2273    0.8348 C   0  0  0  0  0  0  0  0  0  0  0  0
    0.5346  -12.9405    0.3673 C   0  0  0  0  0  0  0  0  0  0  0  0
    1.8558  -16.1082    1.4764 N   0  0  0  0  0  0  0  0  0  0  0  0
    1.6093  -17.4014    1.3354 C   0  0  0  0  0  0  0  0  0  0  0  0
    1.5453   -5.4366    2.6893 Cl  0  0  0  0  0  0  0  0  0  0  0  0
    0.7788  -17.8971    0.5565 C   0  0  0  0  0  0  0  0  0  0  0  0
    0.0159  -17.2549   -0.1220 C   0  0  0  0  0  0  0  0  0  0  0  0
  3  7  1  0
 11 12  1  0
 12 14  2  3
 14 15  1  0
  6 16  1  0
 15 17  2  3
 17 18  1  0
  7  8  2  0
  8 13  1  0
 11 13  2  0
 10 11  1  0
  9 10  2  0
  7  9  1  0
  1  2  2  0
  2  3  1  0
  3  4  2  0
  4  5  1  0
  5  6  2  0
  1  6  1  0
M  END

$$$$
No_3877-/export/home/yangzhenyu/potential_scad_32_flow//YTHDC2/2024-12-06-03-22-00/
     RDKit          3D

 16 16  0  0  1  0  0  0  0  0999 V2000
    1.1787   -8.0297    3.5154 C   0  0  0  0  0  0  0  0  0  0  0  0
    1.1048   -9.2215    3.2892 C   0  0  0  0  0  0  0  0  0  0  0  0
    1.3627  -10.1721    4.3044 C   0  0  0  0  0  0  0  0  0  0  0  0
    2.3720  -10.8948    4.2468 C   0  0  0  0  0  0  0  0  0  0  0  0
    1.0579   -7.0441    2.4219 C   0  0  0  0  0  0  0  0  0  0  0  0
    0.8578   -7.4970    1.1686 C   0  0  0  0  0  0  0  0  0  0  0  0
    0.7382   -8.7683    0.8754 C   0  0  0  0  0  0  0  0  0  0  0  0
    0.8882   -9.7347    1.9238 C   0  0  0  0  0  0  0  0  0  0  0  0
    0.9437  -11.0299    1.7005 C   0  0  0  0  0  0  0  0  0  0  0  0
   -0.0869  -11.8512    1.8957 O   0  0  0  0  0  0  0  0  0  0  0  0
    2.0237  -11.5609    1.0147 O   0  0  0  0  0  0  0  0  0  0  0  0
    1.1947   -5.5992    2.6899 C   0  0  1  0  0  0  0  0  0  0  0  0
    1.6262   -5.2504    3.8162 C   0  0  0  0  0  0  0  0  0  0  0  0
    1.1160   -4.8262    1.5910 C   0  0  0  0  0  0  0  0  0  0  0  0
    1.5445   -3.5164    1.6603 C   0  0  0  0  0  0  0  0  0  0  0  0
    1.1141   -2.5616    0.7142 C   0  0  0  0  0  0  0  0  0  0  0  0
  2  3  1  0
  3  4  1  0
  8  9  1  0
  9 10  2  0
  9 11  1  0
  5 12  1  0
 12 13  1  6
 12 14  1  0
 14 15  2  3
 15 16  1  0
  1  2  2  0
  2  8  1  0
  7  8  2  0
  6  7  1  0
  5  6  2  0
  1  5  1  0
M  END

$$$$
No_3878-/export/home/yangzhenyu/potential_scad_32_flow//YTHDC2/2024-12-06-03-22-00/
     RDKit          3D

 18 18  0  0  0  0  0  0  0  0999 V2000
    1.1787   -8.0297    3.5154 C   0  0  0  0  0  0  0  0  0  0  0  0
    1.1048   -9.2215    3.2892 C   0  0  0  0  0  0  0  0  0  0  0  0
    1.2339   -9.7611    2.0189 C   0  0  0  0  0  0  0  0  0  0  0  0
    1.3583   -9.0036    0.9764 C   0  0  0  0  0  0  0  0  0  0  0  0
    1.5996   -7.6362    1.1311 C   0  0  0  0  0  0  0  0  0  0  0  0
    1.4830   -7.0928    2.3626 C   0  0  0  0  0  0  0  0  0  0  0  0
    1.1008  -11.2372    1.8542 C   0  0  0  0  0  0  0  0  0  0  0  0
    0.4812  -11.6084    0.6459 O   0  0  0  0  0  0  0  0  0  0  0  0
    2.0292  -12.0272    2.3781 C   0  0  0  0  0  0  0  0  0  0  0  0
    1.3611  -13.2575    2.8991 C   0  0  0  0  0  0  0  0  0  0  0  0
    1.7937  -14.5730    2.4044 C   0  0  0  0  0  0  0  0  0  0  0  0
    1.1544  -15.6859    2.9564 C   0  0  0  0  0  0  0  0  0  0  0  0
    1.8177  -16.9141    2.7349 O   0  0  0  0  0  0  0  0  0  0  0  0
    0.1389  -15.7308    3.6990 O   0  0  0  0  0  0  0  0  0  0  0  0
    1.5675   -5.4620    2.7148 C   0  0  0  0  0  0  0  0  0  0  0  0
    0.6441   -4.7995    2.6414 O   0  0  0  0  0  0  0  0  0  0  0  0
    1.6477   -9.4330   -0.3260 C   0  0  0  0  0  0  0  0  0  0  0  0
    1.9720   -8.7612   -1.2431 O   0  0  0  0  0  0  0  0  0  0  0  0
  3  7  1  0
  7  8  2  0
  7  9  1  0
  9 10  1  0
 10 11  1  0
 11 12  1  0
 12 13  2  0
 12 14  1  0
  6 15  1  0
 15 16  2  0
  4 17  1  0
 17 18  2  0
  1  2  2  0
  2  3  1  0
  3  4  2  0
  4  5  1  0
  5  6  2  0
  1  6  1  0
M  END

$$$$
No_3879-/export/home/yangzhenyu/potential_scad_32_flow//YTHDC2/2024-12-06-03-22-00/
     RDKit          3D

 17 17  0  0  0  0  0  0  0  0999 V2000
    1.1787   -8.0297    3.5154 N   0  0  0  0  0  0  0  0  0  0  0  0
    0.8669   -7.0905    2.8589 C   0  0  0  0  0  0  0  0  0  0  0  0
    1.0447   -7.3244    1.4123 C   0  0  0  0  0  0  0  0  0  0  0  0
    0.7109   -6.4286    0.5881 C   0  0  0  0  0  0  0  0  0  0  0  0
    0.2173   -5.2281    1.1218 C   0  0  0  0  0  0  0  0  0  0  0  0
    0.1536   -4.9362    2.5021 C   0  0  0  0  0  0  0  0  0  0  0  0
    0.5406   -6.0042    3.3464 C   0  0  0  0  0  0  0  0  0  0  0  0
    1.5822   -8.5466    0.9394 C   0  0  0  0  0  0  0  0  0  0  0  0
    1.7770   -8.7953   -0.3363 C   0  0  0  0  0  0  0  0  0  0  0  0
    2.6752   -9.8535   -0.6914 O   0  0  0  0  0  0  0  0  0  0  0  0
    1.2946   -8.3115   -1.3334 O   0  0  0  0  0  0  0  0  0  0  0  0
   -0.4237   -3.6953    3.1010 Cl  0  0  0  0  0  0  0  0  0  0  0  0
    1.9840   -9.5584    1.7839 O   0  0  0  0  0  0  0  0  0  0  0  0
   -0.2479   -3.9460    0.2100 Cl  0  0  0  0  0  0  0  0  0  0  0  0
    0.4767   -9.0725    3.9937 C   0  0  0  0  0  0  0  0  0  0  0  0
   -0.8913   -9.0264    3.9131 O   0  0  0  0  0  0  0  0  0  0  0  0
    1.0676  -10.4229    4.1985 C   0  0  0  0  0  0  0  0  0  0  0  0
  1  2  1  0
  3  8  1  0
  8  9  1  0
  9 10  1  0
  9 11  2  0
  6 12  1  0
  8 13  2  0
  5 14  1  0
  1 15  1  0
 15 16  2  0
 15 17  1  0
  2  3  2  0
  3  4  1  0
  4  5  2  0
  5  6  1  0
  6  7  2  0
  2  7  1  0
M  END

$$$$
No_3880-/export/home/yangzhenyu/potential_scad_32_flow//YTHDC2/2024-12-06-03-22-00/
     RDKit          3D

 18 19  0  0  0  0  0  0  0  0999 V2000
    1.1787   -8.0297    3.5154 C   0  0  0  0  0  0  0  0  0  0  0  0
    1.0491   -6.8434    2.9820 C   0  0  0  0  0  0  0  0  0  0  0  0
    1.0690   -9.1150    2.7206 C   0  0  0  0  0  0  0  0  0  0  0  0
    0.9689   -6.6391    1.6260 C   0  0  0  0  0  0  0  0  0  0  0  0
    0.9670   -9.0334    1.3824 C   0  0  0  0  0  0  0  0  0  0  0  0
    0.8189   -7.7113    0.8022 C   0  0  0  0  0  0  0  0  0  0  0  0
    1.2114  -10.5217    3.2468 C   0  0  0  0  0  0  0  0  0  0  0  0
    0.2824  -11.3381    3.2295 C   0  0  0  0  0  0  0  0  0  0  0  0
    0.3769  -12.2415    2.3766 C   0  0  0  0  0  0  0  0  0  0  0  0
    1.5588  -12.7511    1.9812 C   0  0  0  0  0  0  0  0  0  0  0  0
    2.7286  -11.9946    2.3564 C   0  0  0  0  0  0  0  0  0  0  0  0
    2.5701  -10.8883    2.8853 C   0  0  0  0  0  0  0  0  0  0  0  0
    1.7236  -14.0922    1.3692 C   0  0  0  0  0  0  0  0  0  0  0  0
    2.7081  -14.8371    1.6811 C   0  0  0  0  0  0  0  0  0  0  0  0
    2.3659  -16.1452    1.8571 C   0  0  0  0  0  0  0  0  0  0  0  0
    1.3318  -16.6914    1.5541 O   0  0  0  0  0  0  0  0  0  0  0  0
    3.4560  -17.0996    2.3576 O   0  0  0  0  0  0  0  0  0  0  0  0
    0.8898   -5.3247    1.0407 O   0  0  0  0  0  0  0  0  0  0  0  0
  3  7  1  0
 10 13  1  0
 13 14  1  0
 14 15  2  3
 15 16  1  0
 15 17  1  0
  4 18  1  0
  1  2  2  0
  2  4  1  0
  4  6  2  0
  5  6  1  0
  3  5  2  0
  1  3  1  0
  7  8  2  0
  8  9  1  0
  9 10  2  0
 10 11  1  0
 11 12  2  0
  7 12  1  0
M  END

$$$$
No_3881-/export/home/yangzhenyu/potential_scad_32_flow//YTHDC2/2024-12-06-03-22-00/
     RDKit          3D

 21 23  0  0  1  0  0  0  0  0999 V2000
    1.1787   -8.0297    3.5154 C   0  0  0  0  0  0  0  0  0  0  0  0
    1.1048   -9.2215    3.2892 C   0  0  0  0  0  0  0  0  0  0  0  0
    1.2339   -9.7611    2.0189 C   0  0  0  0  0  0  0  0  0  0  0  0
    1.3583   -9.0036    0.9764 C   0  0  0  0  0  0  0  0  0  0  0  0
    1.5996   -7.6362    1.1311 C   0  0  0  0  0  0  0  0  0  0  0  0
    1.4830   -7.0928    2.3626 C   0  0  0  0  0  0  0  0  0  0  0  0
    1.1008  -11.2372    1.8542 C   0  0  1  0  0  0  0  0  0  0  0  0
    0.4812  -11.6084    0.6459 C   0  0  0  0  0  0  0  0  0  0  0  0
    0.5134  -13.0269    0.4830 C   0  0  0  0  0  0  0  0  0  0  0  0
    1.2057  -13.8685    1.2734 C   0  0  0  0  0  0  0  0  0  0  0  0
    1.9819  -13.3990    2.3594 C   0  0  0  0  0  0  0  0  0  0  0  0
    1.8610  -12.0988    2.6716 C   0  0  0  0  0  0  0  0  0  0  0  0
    2.5653  -11.6133    3.6969 O   0  0  0  0  0  0  0  0  0  0  0  0
    1.5679   -5.4498    2.7017 C   0  0  0  0  0  0  0  0  0  0  0  0
    1.1975   -4.8067    1.6034 C   0  0  0  0  0  0  0  0  0  0  0  0
   -0.1096   -4.8758    1.1765 C   0  0  0  0  0  0  0  0  0  0  0  0
   -0.9709   -5.5331    1.6718 C   0  0  0  0  0  0  0  0  0  0  0  0
   -0.4400   -4.4787   -0.0902 C   0  0  0  0  0  0  0  0  0  0  0  0
   -2.2837   -5.3560    1.6000 C   0  0  0  0  0  0  0  0  0  0  0  0
   -2.6840   -4.7566    0.3481 C   0  0  0  0  0  0  0  0  0  0  0  0
   -1.6967   -4.2834   -0.4477 C   0  0  0  0  0  0  0  0  0  0  0  0
  7  3  1  6
  7  8  1  0
  9 10  1  0
  7 12  1  0
 11 12  1  0
 12 13  2  0
  6 14  1  0
 14 15  1  0
 15 16  1  0
  8  9  1  0
 10 11  1  0
  1  2  2  0
  2  3  1  0
  3  4  2  0
  4  5  1  0
  5  6  2  0
  1  6  1  0
 16 17  2  0
 17 19  1  0
 19 20  2  0
 20 21  1  0
 18 21  2  0
 16 18  1  0
M  END

$$$$
No_3882-/export/home/yangzhenyu/potential_scad_32_flow//YTHDC2/2024-12-06-03-22-00/
     RDKit          3D

 17 18  0  0  0  0  0  0  0  0999 V2000
    1.1787   -8.0297    3.5154 C   0  0  0  0  0  0  0  0  0  0  0  0
    1.1048   -9.2215    3.2892 C   0  0  0  0  0  0  0  0  0  0  0  0
    1.2339   -9.7611    2.0189 C   0  0  0  0  0  0  0  0  0  0  0  0
    1.3583   -9.0036    0.9764 C   0  0  0  0  0  0  0  0  0  0  0  0
    1.5996   -7.6362    1.1311 C   0  0  0  0  0  0  0  0  0  0  0  0
    1.4830   -7.0928    2.3626 C   0  0  0  0  0  0  0  0  0  0  0  0
    1.1008  -11.2372    1.8542 C   0  0  0  0  0  0  0  0  0  0  0  0
    0.4812  -11.6084    0.6459 C   0  0  0  0  0  0  0  0  0  0  0  0
   -0.6166  -12.2864    0.7859 C   0  0  0  0  0  0  0  0  0  0  0  0
   -0.7300  -13.0625    1.9848 C   0  0  0  0  0  0  0  0  0  0  0  0
    0.1540  -12.9133    3.0511 C   0  0  0  0  0  0  0  0  0  0  0  0
    1.1516  -11.9685    2.9361 C   0  0  0  0  0  0  0  0  0  0  0  0
    1.4250   -5.4091    2.6315 Cl  0  0  0  0  0  0  0  0  0  0  0  0
    2.0776  -11.7510    3.9357 C   0  0  0  0  0  0  0  0  0  0  0  0
   -1.7259  -14.4464    2.1178 N   0  0  0  0  0  0  0  0  0  0  0  0
   -1.1851  -15.5198    2.3756 C   0  0  0  0  0  0  0  0  0  0  0  0
   -2.9788  -13.8846    2.5191 C   0  0  0  0  0  0  0  0  0  0  0  0
  3  7  1  0
  6 13  1  0
 12 14  1  0
 10 15  1  0
 15 16  1  0
 15 17  1  0
  1  2  2  0
  2  3  1  0
  3  4  2  0
  4  5  1  0
  5  6  2  0
  1  6  1  0
  7  8  2  0
  8  9  1  0
  9 10  2  0
 10 11  1  0
 11 12  2  0
  7 12  1  0
M  END

$$$$
No_3883-/export/home/yangzhenyu/potential_scad_32_flow//YTHDC2/2024-12-06-03-22-00/
     RDKit          3D

 19 20  0  0  0  0  0  0  0  0999 V2000
    1.1787   -8.0297    3.5154 C   0  0  0  0  0  0  0  0  0  0  0  0
    1.0491   -6.8434    2.9820 C   0  0  0  0  0  0  0  0  0  0  0  0
    1.9985   -8.9840    2.8958 C   0  0  0  0  0  0  0  0  0  0  0  0
    1.9135  -10.3404    3.6266 C   0  0  0  0  0  0  0  0  0  0  0  0
    0.9460  -10.6347    4.5748 C   0  0  0  0  0  0  0  0  0  0  0  0
   -0.0977   -9.6850    4.6652 C   0  0  0  0  0  0  0  0  0  0  0  0
   -0.0465   -8.4791    4.1040 C   0  0  0  0  0  0  0  0  0  0  0  0
    1.1124   -5.6985    3.4928 O   0  0  0  0  0  0  0  0  0  0  0  0
    1.7662   -6.7317    1.6558 O   0  0  0  0  0  0  0  0  0  0  0  0
    0.8421  -11.9130    4.8341 O   0  0  0  0  0  0  0  0  0  0  0  0
    2.9384  -11.2706    3.3271 C   0  0  0  0  0  0  0  0  0  0  0  0
    2.6950  -11.9504    2.2924 N   0  0  0  0  0  0  0  0  0  0  0  0
    1.6133  -12.7383    2.0389 C   0  0  0  0  0  0  0  0  0  0  0  0
    1.6341  -14.0991    2.5394 C   0  0  0  0  0  0  0  0  0  0  0  0
    1.1157  -15.1036    2.0378 C   0  0  0  0  0  0  0  0  0  0  0  0
    0.2938  -14.8903    1.0221 C   0  0  0  0  0  0  0  0  0  0  0  0
    0.2611  -13.6971    0.3583 C   0  0  0  0  0  0  0  0  0  0  0  0
    0.9586  -12.6415    0.8476 C   0  0  0  0  0  0  0  0  0  0  0  0
    0.8214  -11.3552    0.2218 C   0  0  0  0  0  0  0  0  0  0  0  0
  1  2  1  0
  2  8  1  0
  2  9  2  0
  5 10  1  0
  4 11  1  0
 11 12  1  0
 12 13  1  0
 18 19  1  0
 13 14  2  0
 14 15  1  0
 15 16  2  0
 16 17  1  0
 17 18  2  0
 13 18  1  0
  1  3  2  0
  3  4  1  0
  4  5  2  0
  5  6  1  0
  6  7  2  0
  1  7  1  0
M  END

$$$$
No_3884-/export/home/yangzhenyu/potential_scad_32_flow//YTHDC2/2024-12-06-03-22-00/
     RDKit          3D

 19 20  0  0  0  0  0  0  0  0999 V2000
    1.1787   -8.0297    3.5154 C   0  0  0  0  0  0  0  0  0  0  0  0
    1.0491   -6.8434    2.9820 C   0  0  0  0  0  0  0  0  0  0  0  0
    0.9905   -9.0774    2.6527 C   0  0  0  0  0  0  0  0  0  0  0  0
    0.7897   -8.9519    1.3691 C   0  0  0  0  0  0  0  0  0  0  0  0
    0.7018   -7.7198    0.7892 C   0  0  0  0  0  0  0  0  0  0  0  0
    0.8918   -6.5957    1.6117 C   0  0  0  0  0  0  0  0  0  0  0  0
    1.0774  -10.6059    3.3145 C   0  0  0  0  0  0  0  0  0  0  0  0
    1.2215  -11.6205    2.4178 C   0  0  0  0  0  0  0  0  0  0  0  0
    1.2379  -12.9166    3.0977 C   0  0  0  0  0  0  0  0  0  0  0  0
    1.3537  -14.0715    2.4214 C   0  0  0  0  0  0  0  0  0  0  0  0
    2.0150  -13.9013    1.1464 C   0  0  0  0  0  0  0  0  0  0  0  0
    2.1077  -12.7288    0.5345 C   0  0  0  0  0  0  0  0  0  0  0  0
    1.7805  -11.5912    1.1742 C   0  0  0  0  0  0  0  0  0  0  0  0
    0.7941  -10.6064    4.5652 O   0  0  0  0  0  0  0  0  0  0  0  0
    0.8102   -5.3047    1.0810 O   0  0  0  0  0  0  0  0  0  0  0  0
    1.2733  -15.5263    3.2627 Cl  0  0  0  0  0  0  0  0  0  0  0  0
   -0.3000   -4.5429    1.2050 C   0  0  0  0  0  0  0  0  0  0  0  0
   -1.4608   -5.2537    1.1540 C   0  0  0  0  0  0  0  0  0  0  0  0
   -1.9039   -5.4247   -0.2407 C   0  0  0  0  0  0  0  0  0  0  0  0
  3  7  1  0
  7  8  1  0
  7 14  2  0
  6 15  1  0
 10 16  1  0
 15 17  1  0
 17 18  1  0
 18 19  1  0
  1  2  2  0
  2  6  1  0
  5  6  2  0
  4  5  1  0
  3  4  2  0
  1  3  1  0
  8  9  2  0
  9 10  1  0
 10 11  2  0
 11 12  1  0
 12 13  2  0
  8 13  1  0
M  END

$$$$
No_3885-/export/home/yangzhenyu/potential_scad_32_flow//YTHDC2/2024-12-06-03-22-00/
     RDKit          3D

 20 21  0  0  1  0  0  0  0  0999 V2000
    1.1787   -8.0297    3.5154 C   0  0  0  0  0  0  0  0  0  0  0  0
    1.1048   -9.2215    3.2892 C   0  0  0  0  0  0  0  0  0  0  0  0
    1.2339   -9.7611    2.0189 C   0  0  0  0  0  0  0  0  0  0  0  0
    1.3583   -9.0036    0.9764 C   0  0  0  0  0  0  0  0  0  0  0  0
    1.5996   -7.6362    1.1311 C   0  0  0  0  0  0  0  0  0  0  0  0
    1.4830   -7.0928    2.3626 C   0  0  0  0  0  0  0  0  0  0  0  0
    1.4898   -5.7274    2.6199 C   0  0  0  0  0  0  0  0  0  0  0  0
    1.1882  -11.3736    1.8424 C   0  0  2  0  0  0  0  0  0  0  0  0
    1.7911  -12.1283    2.5447 C   0  0  0  0  0  0  0  0  0  0  0  0
    1.6235  -13.4929    2.1108 C   0  0  2  0  0  0  0  0  0  0  0  0
    0.9130  -13.8662    1.0879 C   0  0  1  0  0  0  0  0  0  0  0  0
    0.2980  -12.8588    0.2798 C   0  0  0  0  0  0  0  0  0  0  0  0
    0.4407  -11.5560    0.6364 C   0  0  0  0  0  0  0  0  0  0  0  0
    1.2457   -4.8685    1.6168 O   0  0  0  0  0  0  0  0  0  0  0  0
    1.4841   -5.1623    3.8797 O   0  0  0  0  0  0  0  0  0  0  0  0
    2.2704  -14.4981    2.9540 Cl  0  0  0  0  0  0  0  0  0  0  0  0
   -0.1804  -10.6823   -0.1423 O   0  0  0  0  0  0  0  0  0  0  0  0
    0.8976  -10.0865    4.4240 O   0  0  0  0  0  0  0  0  0  0  0  0
    0.7478  -15.1061    0.6171 P   0  0  0  0  0  0  0  0  0  0  0  0
    0.5116  -15.2880   -0.8222 O   0  0  0  0  0  0  0  0  0  0  0  0
  6  7  1  0
  8  3  1  6
  8  9  1  0
 10 11  1  0
  8 13  1  0
 12 13  1  0
  7 14  2  0
  7 15  1  0
 10 16  1  1
 13 17  2  0
  2 18  1  0
 11 19  1  6
 19 20  2  0
  9 10  1  0
 11 12  1  0
  1  2  2  0
  2  3  1  0
  3  4  2  0
  4  5  1  0
  5  6  2  0
  1  6  1  0
M  END

$$$$
No_3886-/export/home/yangzhenyu/potential_scad_32_flow//YTHDC2/2024-12-06-03-22-00/
     RDKit          3D

 19 20  0  0  1  0  0  0  0  0999 V2000
    1.1787   -8.0297    3.5154 C   0  0  0  0  0  0  0  0  0  0  0  0
    1.0491   -6.8434    2.9820 C   0  0  0  0  0  0  0  0  0  0  0  0
    0.0950   -8.8404    3.2292 C   0  0  0  0  0  0  0  0  0  0  0  0
   -0.9173   -8.4596    2.5152 C   0  0  0  0  0  0  0  0  0  0  0  0
   -1.0331   -7.2162    2.0653 C   0  0  0  0  0  0  0  0  0  0  0  0
   -0.0105   -6.3168    2.3081 C   0  0  0  0  0  0  0  0  0  0  0  0
    0.1150   -4.9910    1.8495 C   0  0  0  0  0  0  0  0  0  0  0  0
   -0.5774   -4.1593    2.0596 N   0  0  0  0  0  0  0  0  0  0  0  0
    0.1754  -10.2880    3.6908 C   0  0  0  0  0  0  0  0  0  0  0  0
    0.2382  -11.3638    2.8481 N   0  0  0  0  0  0  0  0  0  0  0  0
    1.0488  -12.0552    2.7437 C   0  0  0  0  0  0  0  0  0  0  0  0
    1.2954  -13.1430    1.8943 C   0  0  1  0  0  0  0  0  0  0  0  0
    1.0939  -12.9090    0.6190 C   0  0  0  0  0  0  0  0  0  0  0  0
    0.1334  -12.2466    0.4992 C   0  0  0  0  0  0  0  0  0  0  0  0
   -0.2551  -11.1200    1.4459 C   0  0  0  0  0  0  0  0  0  0  0  0
    1.5315  -12.6445    4.1387 O   0  0  0  0  0  0  0  0  0  0  0  0
    0.8423   -4.7973    0.6811 O   0  0  0  0  0  0  0  0  0  0  0  0
    2.3195  -14.2016    2.1815 C   0  0  0  0  0  0  0  0  0  0  0  0
   -1.2707   -4.2512    2.7883 H   0  0  0  0  0  0  0  0  0  0  0  0
  6  7  1  0
  7  8  2  0
  3  9  1  0
  9 10  1  0
 10 11  1  0
 11 12  1  0
 12 13  1  0
 13 14  1  0
 10 15  1  0
 14 15  1  0
 11 16  2  0
  7 17  1  0
 12 18  1  6
  1  2  2  0
  2  6  1  0
  5  6  2  0
  4  5  1  0
  3  4  2  0
  1  3  1  0
  8 19  1  0
M  END

$$$$
No_3887-/export/home/yangzhenyu/potential_scad_32_flow//YTHDC2/2024-12-06-03-22-00/
     RDKit          3D

 19 20  0  0  0  0  0  0  0  0999 V2000
    1.1787   -8.0297    3.5154 C   0  0  0  0  0  0  0  0  0  0  0  0
    1.1048   -9.2215    3.2892 C   0  0  0  0  0  0  0  0  0  0  0  0
    1.2339   -9.7611    2.0189 C   0  0  0  0  0  0  0  0  0  0  0  0
    1.1954  -11.2312    1.8661 C   0  0  0  0  0  0  0  0  0  0  0  0
    1.5546  -12.1691    2.7931 C   0  0  0  0  0  0  0  0  0  0  0  0
    0.5849   -7.0929    2.5729 C   0  0  0  0  0  0  0  0  0  0  0  0
    0.5567   -7.6699    1.1955 C   0  0  0  0  0  0  0  0  0  0  0  0
    0.7903   -8.9699    0.9209 C   0  0  0  0  0  0  0  0  0  0  0  0
    1.5479  -13.4950    2.3569 C   0  0  0  0  0  0  0  0  0  0  0  0
    1.2456  -13.9001    1.1648 C   0  0  0  0  0  0  0  0  0  0  0  0
    1.0233  -13.0589    0.1983 C   0  0  0  0  0  0  0  0  0  0  0  0
    0.9548  -11.6626    0.4956 C   0  0  0  0  0  0  0  0  0  0  0  0
    0.6175   -5.4409    2.6606 C   0  0  0  0  0  0  0  0  0  0  0  0
    1.0550   -4.7725    1.7296 N   0  0  0  0  0  0  0  0  0  0  0  0
    1.6313   -3.5572    1.9031 C   0  0  0  0  0  0  0  0  0  0  0  0
    1.9597  -14.4058    3.4092 O   0  0  0  0  0  0  0  0  0  0  0  0
    1.4475   -2.5351    1.0797 C   0  0  0  0  0  0  0  0  0  0  0  0
    0.9551   -2.8668   -0.2634 C   0  0  0  0  0  0  0  0  0  0  0  0
    0.4802   -1.6429   -1.0020 C   0  0  0  0  0  0  0  0  0  0  0  0
  3  4  1  0
  6 13  1  0
 13 14  1  0
 14 15  1  0
  9 16  1  0
 15 17  1  0
 17 18  1  0
 18 19  2  0
  1  2  2  0
  2  3  1  0
  3  8  2  0
  7  8  1  0
  6  7  2  0
  1  6  1  0
  4  5  2  0
  5  9  1  0
  9 10  2  0
 10 11  1  0
 11 12  2  0
  4 12  1  0
M  END

$$$$
No_3888-/export/home/yangzhenyu/potential_scad_32_flow//YTHDC2/2024-12-06-03-22-00/
     RDKit          3D

 18 19  0  0  0  0  0  0  0  0999 V2000
    1.1787   -8.0297    3.5154 C   0  0  0  0  0  0  0  0  0  0  0  0
    1.0491   -6.8434    2.9820 C   0  0  0  0  0  0  0  0  0  0  0  0
    0.0950   -8.8404    3.2292 C   0  0  0  0  0  0  0  0  0  0  0  0
   -0.9173   -8.4596    2.5152 C   0  0  0  0  0  0  0  0  0  0  0  0
   -1.0331   -7.2162    2.0653 C   0  0  0  0  0  0  0  0  0  0  0  0
   -0.0105   -6.3168    2.3081 C   0  0  0  0  0  0  0  0  0  0  0  0
    0.1465  -10.2446    3.6981 C   0  0  0  0  0  0  0  0  0  0  0  0
   -1.0337  -10.8619    3.9439 C   0  0  0  0  0  0  0  0  0  0  0  0
   -2.1702  -10.4673    3.2991 C   0  0  0  0  0  0  0  0  0  0  0  0
   -2.1358   -9.2084    2.5791 C   0  0  0  0  0  0  0  0  0  0  0  0
   -0.0407   -4.9560    1.8452 C   0  0  0  0  0  0  0  0  0  0  0  0
    0.8459   -4.0706    2.2047 O   0  0  0  0  0  0  0  0  0  0  0  0
   -0.9807   -4.5122    1.0496 O   0  0  0  0  0  0  0  0  0  0  0  0
    1.5349  -10.7856    4.6074 C   0  0  0  0  0  0  0  0  0  0  0  0
    1.7018  -12.0812    3.9032 C   0  0  0  0  0  0  0  0  0  0  0  0
    1.2452  -12.3470    2.6766 C   0  0  0  0  0  0  0  0  0  0  0  0
    1.7518  -11.6912    1.5784 C   0  0  0  0  0  0  0  0  0  0  0  0
    1.3235  -11.8442    0.3894 C   0  0  0  0  0  0  0  0  0  0  0  0
  6 11  1  0
 11 12  2  0
 11 13  1  0
  7 14  1  0
 14 15  1  0
 15 16  1  0
 16 17  1  0
 17 18  2  0
  4 10  2  0
  9 10  1  0
  8  9  2  0
  7  8  1  0
  3  7  2  0
  1  2  2  0
  2  6  1  0
  5  6  2  0
  4  5  1  0
  3  4  1  0
  1  3  1  0
M  END

$$$$
No_3889-/export/home/yangzhenyu/potential_scad_32_flow//YTHDC2/2024-12-06-03-22-00/
     RDKit          3D

 20 22  0  0  0  0  0  0  0  0999 V2000
    1.1787   -8.0297    3.5154 C   0  0  0  0  0  0  0  0  0  0  0  0
    1.1048   -9.2215    3.2892 C   0  0  0  0  0  0  0  0  0  0  0  0
    1.3627  -10.1721    4.3044 C   0  0  0  0  0  0  0  0  0  0  0  0
    1.0682  -11.5187    4.0618 C   0  0  0  0  0  0  0  0  0  0  0  0
    0.6332  -11.9655    2.9682 C   0  0  0  0  0  0  0  0  0  0  0  0
    0.4776  -11.1308    1.9203 C   0  0  0  0  0  0  0  0  0  0  0  0
    0.7470   -9.8274    2.0368 C   0  0  0  0  0  0  0  0  0  0  0  0
    0.5536   -7.1314    2.6860 C   0  0  0  0  0  0  0  0  0  0  0  0
    0.2951   -7.6000    1.3275 C   0  0  0  0  0  0  0  0  0  0  0  0
    0.2693   -8.8631    1.0973 C   0  0  0  0  0  0  0  0  0  0  0  0
   -0.0069   -6.7080    0.3888 C   0  0  0  0  0  0  0  0  0  0  0  0
   -1.3264   -6.4522    0.2332 O   0  0  0  0  0  0  0  0  0  0  0  0
    0.4851  -13.3883    2.7225 C   0  0  0  0  0  0  0  0  0  0  0  0
   -0.6720  -13.8350    2.4277 C   0  0  0  0  0  0  0  0  0  0  0  0
    1.6272  -14.2778    2.5893 C   0  0  0  0  0  0  0  0  0  0  0  0
   -0.8510  -15.1897    2.0114 C   0  0  0  0  0  0  0  0  0  0  0  0
    1.6113  -15.5356    2.3568 C   0  0  0  0  0  0  0  0  0  0  0  0
    0.3779  -16.0266    2.0132 C   0  0  0  0  0  0  0  0  0  0  0  0
    0.6718   -5.9431   -0.2354 O   0  0  0  0  0  0  0  0  0  0  0  0
    0.2320  -17.3981    1.7642 C   0  0  0  0  0  0  0  0  0  0  0  0
  9 11  1  0
 11 12  2  0
  5 13  1  0
 11 19  1  0
 18 20  1  0
  2  3  1  0
  3  4  2  0
  4  5  1  0
  5  6  2  0
  6  7  1  0
 13 14  2  0
 14 16  1  0
 16 18  2  0
 17 18  1  0
 15 17  2  0
 13 15  1  0
  1  2  2  0
  2  7  1  0
  7 10  2  0
  9 10  1  0
  8  9  2  0
  1  8  1  0
M  END

$$$$
No_3890-/export/home/yangzhenyu/potential_scad_32_flow//YTHDC2/2024-12-06-03-22-00/
     RDKit          3D

 17 18  0  0  1  0  0  0  0  0999 V2000
    1.1787   -8.0297    3.5154 C   0  0  0  0  0  0  0  0  0  0  0  0
    1.1048   -9.2215    3.2892 C   0  0  0  0  0  0  0  0  0  0  0  0
    1.2339   -9.7611    2.0189 C   0  0  1  0  0  0  0  0  0  0  0  0
    1.1954  -11.2312    1.8661 C   0  0  0  0  0  0  0  0  0  0  0  0
    1.5546  -12.1691    2.7931 C   0  0  0  0  0  0  0  0  0  0  0  0
    0.5849   -7.0929    2.5729 C   0  0  2  0  0  0  0  0  0  0  0  0
    0.5567   -7.6699    1.1955 C   0  0  0  0  0  0  0  0  0  0  0  0
    0.7903   -8.9699    0.9209 C   0  0  0  0  0  0  0  0  0  0  0  0
    1.5521  -13.4960    2.3485 C   0  0  0  0  0  0  0  0  0  0  0  0
    1.2403  -13.8919    1.1557 C   0  0  0  0  0  0  0  0  0  0  0  0
    1.0311  -12.9707    0.1488 C   0  0  0  0  0  0  0  0  0  0  0  0
    0.9678  -11.6394    0.4949 C   0  0  0  0  0  0  0  0  0  0  0  0
    0.6235   -5.6335    2.6368 C   0  0  0  0  0  0  0  0  0  0  0  0
    0.3286   -6.8520    0.1792 O   0  0  0  0  0  0  0  0  0  0  0  0
   -0.5946   -5.0169    2.5569 C   0  0  0  0  0  0  0  0  0  0  0  0
   -0.6237   -3.5602    2.4675 C   0  0  0  0  0  0  0  0  0  0  0  0
    0.5925   -2.9077    2.6811 C   0  0  0  0  0  0  0  0  0  0  0  0
  1  2  1  0
  3  4  1  1
  6  7  1  0
  3  8  1  0
  7  8  1  0
  6 13  1  6
  7 14  2  0
 13 15  1  0
 15 16  2  3
 16 17  1  0
  1  6  1  0
  2  3  1  0
  4  5  2  0
  5  9  1  0
  9 10  2  0
 10 11  1  0
 11 12  2  0
  4 12  1  0
M  END

$$$$
No_3891-/export/home/yangzhenyu/potential_scad_32_flow//YTHDC2/2024-12-06-03-22-00/
     RDKit          3D

 20 20  0  0  0  0  0  0  0  0999 V2000
    1.1787   -8.0297    3.5154 C   0  0  0  0  0  0  0  0  0  0  0  0
    1.1048   -9.2215    3.2892 C   0  0  0  0  0  0  0  0  0  0  0  0
    1.2339   -9.7611    2.0189 C   0  0  0  0  0  0  0  0  0  0  0  0
    1.3583   -9.0036    0.9764 C   0  0  0  0  0  0  0  0  0  0  0  0
    1.5996   -7.6362    1.1311 C   0  0  0  0  0  0  0  0  0  0  0  0
    1.4830   -7.0928    2.3626 C   0  0  0  0  0  0  0  0  0  0  0  0
    1.1008  -11.2372    1.8542 C   0  0  0  0  0  0  0  0  0  0  0  0
    0.5178  -11.9759    2.3445 C   0  0  0  0  0  0  0  0  0  0  0  0
    0.4575  -13.3705    2.1281 C   0  0  0  0  0  0  0  0  0  0  0  0
    1.1632  -14.1013    2.0451 C   0  0  0  0  0  0  0  0  0  0  0  0
    2.4646  -13.5566    1.4445 C   0  0  0  0  0  0  0  0  0  0  0  0
    1.0647  -15.5680    1.9364 C   0  0  0  0  0  0  0  0  0  0  0  0
    0.1453  -16.1121    1.4982 O   0  0  0  0  0  0  0  0  0  0  0  0
    1.9993  -16.2603    2.7766 C   0  0  0  0  0  0  0  0  0  0  0  0
    1.5670   -5.4736    2.6761 C   0  0  0  0  0  0  0  0  0  0  0  0
    3.0020  -16.8540    2.2072 C   0  0  0  0  0  0  0  0  0  0  0  0
    1.5273   -9.4049   -0.3697 C   0  0  0  0  0  0  0  0  0  0  0  0
    0.4235   -9.8689   -0.9211 O   0  0  0  0  0  0  0  0  0  0  0  0
    2.4849   -9.0321   -1.1483 O   0  0  0  0  0  0  0  0  0  0  0  0
    0.5491   -4.8283    2.7678 O   0  0  0  0  0  0  0  0  0  0  0  0
  3  7  1  0
  7  8  2  3
  8  9  1  0
  9 10  2  3
 10 11  1  0
 10 12  1  0
 12 13  2  0
 12 14  1  0
  6 15  1  0
 14 16  1  0
  4 17  1  0
 17 18  1  0
 17 19  2  0
 15 20  1  0
  1  2  2  0
  2  3  1  0
  3  4  2  0
  4  5  1  0
  5  6  2  0
  1  6  1  0
M  END

$$$$
No_3892-/export/home/yangzhenyu/potential_scad_32_flow//YTHDC2/2024-12-06-03-22-00/
     RDKit          3D

 13 13  0  0  1  0  0  0  0  0999 V2000
    1.1787   -8.0297    3.5154 C   0  0  0  0  0  0  0  0  0  0  0  0
    1.1048   -9.2215    3.2892 C   0  0  1  0  0  0  0  0  0  0  0  0
    1.2339   -9.7611    2.0189 C   0  0  0  0  0  0  0  0  0  0  0  0
    1.3583   -9.0036    0.9764 C   0  0  2  0  0  0  0  0  0  0  0  0
    1.7077   -9.6100   -0.3011 C   0  0  0  0  0  0  0  0  0  0  0  0
    1.3637   -7.1087    2.3226 C   0  0  1  0  0  0  0  0  0  0  0  0
    1.4257   -7.6645    1.0231 C   0  0  0  0  0  0  0  0  0  0  0  0
    1.9364   -8.8976   -1.3212 O   0  0  0  0  0  0  0  0  0  0  0  0
    1.5161  -10.9175   -0.4592 O   0  0  0  0  0  0  0  0  0  0  0  0
    1.1228  -10.1701    4.3932 Br  0  0  0  0  0  0  0  0  0  0  0  0
    1.3176   -5.3593    2.5666 Cl  0  0  0  0  0  0  0  0  0  0  0  0
    1.2430  -11.1332    1.9030 Cl  0  0  0  0  0  0  0  0  0  0  0  0
    1.5685   -6.8260    0.1047 O   0  0  0  0  0  0  0  0  0  0  0  0
  1  2  1  0
  3  4  1  0
  4  5  1  1
  4  7  1  0
  6  7  1  0
  5  8  2  0
  5  9  1  0
  2 10  1  1
  6 11  1  6
  3 12  1  0
  7 13  2  0
  2  3  1  0
  1  6  1  0
M  END

$$$$
No_3893-/export/home/yangzhenyu/potential_scad_32_flow//YTHDC2/2024-12-06-03-22-00/
     RDKit          3D

 16 17  0  0  0  0  0  0  0  0999 V2000
    1.1787   -8.0297    3.5154 C   0  0  0  0  0  0  0  0  0  0  0  0
    1.0491   -6.8434    2.9820 C   0  0  0  0  0  0  0  0  0  0  0  0
    0.9905   -9.0774    2.6527 C   0  0  0  0  0  0  0  0  0  0  0  0
    0.7897   -8.9519    1.3691 C   0  0  0  0  0  0  0  0  0  0  0  0
    0.7018   -7.7198    0.7892 C   0  0  0  0  0  0  0  0  0  0  0  0
    0.8918   -6.5957    1.6117 C   0  0  0  0  0  0  0  0  0  0  0  0
    1.0998  -10.4710    3.2437 C   0  0  0  0  0  0  0  0  0  0  0  0
    1.3102  -11.5554    2.5214 C   0  0  0  0  0  0  0  0  0  0  0  0
    0.7297  -12.5080    2.5972 C   0  0  0  0  0  0  0  0  0  0  0  0
    1.0192  -13.8721    1.9327 C   0  0  0  0  0  0  0  0  0  0  0  0
    0.3437  -15.0061    2.1493 C   0  0  0  0  0  0  0  0  0  0  0  0
   -0.8228  -15.0011    2.7706 C   0  0  0  0  0  0  0  0  0  0  0  0
   -1.2927  -13.8700    3.3647 C   0  0  0  0  0  0  0  0  0  0  0  0
   -0.6541  -12.6643    3.2453 C   0  0  0  0  0  0  0  0  0  0  0  0
    0.8855   -5.2764    1.1760 C   0  0  0  0  0  0  0  0  0  0  0  0
    1.3643  -10.5248    4.6278 O   0  0  0  0  0  0  0  0  0  0  0  0
  3  7  1  0
  7  8  1  0
  6 15  1  0
  7 16  2  0
  8  9  1  0
  1  2  2  0
  2  6  1  0
  5  6  2  0
  4  5  1  0
  3  4  2  0
  1  3  1  0
  9 10  2  0
 10 11  1  0
 11 12  2  0
 12 13  1  0
 13 14  2  0
  9 14  1  0
M  END

$$$$
No_3894-/export/home/yangzhenyu/potential_scad_32_flow//YTHDC2/2024-12-06-03-22-00/
     RDKit          3D

 18 19  0  0  0  0  0  0  0  0999 V2000
    1.1787   -8.0297    3.5154 C   0  0  0  0  0  0  0  0  0  0  0  0
    1.1048   -9.2215    3.2892 C   0  0  0  0  0  0  0  0  0  0  0  0
    1.3627  -10.1721    4.3044 C   0  0  0  0  0  0  0  0  0  0  0  0
    1.0682  -11.5187    4.0618 C   0  0  0  0  0  0  0  0  0  0  0  0
    0.6332  -11.9655    2.9682 C   0  0  0  0  0  0  0  0  0  0  0  0
    0.4776  -11.1308    1.9203 C   0  0  0  0  0  0  0  0  0  0  0  0
    0.7470   -9.8274    2.0368 C   0  0  0  0  0  0  0  0  0  0  0  0
    0.5535   -7.1314    2.6861 O   0  0  0  0  0  0  0  0  0  0  0  0
    0.3433  -13.3587    2.7316 C   0  0  0  0  0  0  0  0  0  0  0  0
    1.3058  -14.3266    3.1725 C   0  0  0  0  0  0  0  0  0  0  0  0
    1.0629  -15.6866    2.9948 C   0  0  0  0  0  0  0  0  0  0  0  0
    0.0592  -16.1382    2.3317 C   0  0  0  0  0  0  0  0  0  0  0  0
   -0.7753  -15.2734    1.7692 C   0  0  0  0  0  0  0  0  0  0  0  0
   -0.5829  -13.8667    1.9410 C   0  0  0  0  0  0  0  0  0  0  0  0
    1.6603   -7.4899    4.5733 F   0  0  0  0  0  0  0  0  0  0  0  0
    0.6355   -8.9939    0.9658 C   0  0  0  0  0  0  0  0  0  0  0  0
    1.8743   -8.7903    0.1783 C   0  0  0  0  0  0  0  0  0  0  0  0
    2.2693   -9.1993   -0.8280 O   0  0  0  0  0  0  0  0  0  0  0  0
  1  2  1  0
  1  8  2  0
  5  9  1  0
  1 15  1  0
  7 16  1  0
 16 17  1  0
 17 18  2  0
  2  3  2  0
  3  4  1  0
  4  5  2  0
  5  6  1  0
  6  7  2  0
  2  7  1  0
  9 10  2  0
 10 11  1  0
 11 12  2  0
 12 13  1  0
 13 14  2  0
  9 14  1  0
M  END

$$$$
No_3895-/export/home/yangzhenyu/potential_scad_32_flow//YTHDC2/2024-12-06-03-22-00/
     RDKit          3D

 17 18  0  0  1  0  0  0  0  0999 V2000
    1.1787   -8.0297    3.5154 C   0  0  0  0  0  0  0  0  0  0  0  0
    1.1048   -9.2215    3.2892 C   0  0  0  0  0  0  0  0  0  0  0  0
    1.2339   -9.7611    2.0189 C   0  0  0  0  0  0  0  0  0  0  0  0
    1.3583   -9.0036    0.9764 C   0  0  0  0  0  0  0  0  0  0  0  0
    1.5996   -7.6362    1.1311 C   0  0  0  0  0  0  0  0  0  0  0  0
    1.4830   -7.0928    2.3626 C   0  0  0  0  0  0  0  0  0  0  0  0
    1.5395   -5.7300    2.6182 C   0  0  0  0  0  0  0  0  0  0  0  0
    1.1775  -11.2233    1.8407 C   0  0  1  0  0  0  0  0  0  0  0  0
    0.7252  -11.5870    0.5412 N   0  0  0  0  0  0  0  0  0  0  0  0
    1.6030  -12.0513    2.6420 C   0  0  0  0  0  0  0  0  0  0  0  0
    1.5906  -13.4420    2.3152 C   0  0  0  0  0  0  0  0  0  0  0  0
    1.0817  -13.8202    1.0777 N   0  0  0  0  0  0  0  0  0  0  0  0
    0.6677  -12.8948    0.2217 C   0  0  0  0  0  0  0  0  0  0  0  0
    2.0310  -14.4328    3.1636 C   0  0  0  0  0  0  0  0  0  0  0  0
   -0.0478  -13.2405   -0.7872 O   0  0  0  0  0  0  0  0  0  0  0  0
    1.6585   -5.1761    3.8849 O   0  0  0  0  0  0  0  0  0  0  0  0
    1.7061   -4.8451    1.6163 O   0  0  0  0  0  0  0  0  0  0  0  0
  6  7  1  0
  8  3  1  6
  8  9  1  0
  8 10  1  0
 11 12  1  0
  9 13  1  0
 12 13  1  0
 11 14  1  0
 13 15  2  0
  7 16  1  0
  7 17  2  0
 10 11  1  0
  1  2  2  0
  2  3  1  0
  3  4  2  0
  4  5  1  0
  5  6  2  0
  1  6  1  0
M  END

$$$$
No_3896-/export/home/yangzhenyu/potential_scad_32_flow//YTHDC2/2024-12-06-03-22-00/
     RDKit          3D

 19 20  0  0  1  0  0  0  0  0999 V2000
    1.1787   -8.0297    3.5154 C   0  0  0  0  0  0  0  0  0  0  0  0
    1.0491   -6.8434    2.9820 C   0  0  0  0  0  0  0  0  0  0  0  0
    0.0950   -8.8404    3.2292 C   0  0  0  0  0  0  0  0  0  0  0  0
   -0.9173   -8.4596    2.5152 C   0  0  0  0  0  0  0  0  0  0  0  0
   -1.0331   -7.2162    2.0653 C   0  0  0  0  0  0  0  0  0  0  0  0
   -0.0105   -6.3168    2.3081 C   0  0  0  0  0  0  0  0  0  0  0  0
    0.1150   -4.9910    1.8495 C   0  0  0  0  0  0  0  0  0  0  0  0
   -0.1376   -4.7952    0.5550 P   0  0  0  0  0  0  0  0  0  0  0  0
   -0.3416   -5.8032   -0.2817 O   0  0  0  0  0  0  0  0  0  0  0  0
   -1.5691   -3.9514    0.4928 O   0  0  0  0  0  0  0  0  0  0  0  0
    0.6447   -3.5576   -0.1362 O   0  0  0  0  0  0  0  0  0  0  0  0
    0.1518  -10.2075    3.7706 C   0  0  2  0  0  0  0  0  0  0  0  0
    1.2537  -10.8289    4.1332 C   0  0  0  0  0  0  0  0  0  0  0  0
    1.1268  -12.2592    4.0954 C   0  0  0  0  0  0  0  0  0  0  0  0
    0.0228  -12.8472    3.7245 C   0  0  1  0  0  0  0  0  0  0  0  0
   -0.8623  -11.4781    3.2265 C   0  0  0  0  0  0  0  0  0  0  0  0
   -0.4305  -13.8769    3.4021 C   0  0  0  0  0  0  0  0  0  0  0  0
   -1.6386  -14.1749    2.9109 C   0  0  0  0  0  0  0  0  0  0  0  0
   -2.1233  -15.6181    2.6827 C   0  0  0  0  0  0  0  0  0  0  0  0
  6  7  1  0
  7  8  1  0
  8  9  1  0
  8 10  1  0
  8 11  2  0
 12  3  1  6
 12 13  1  0
 13 14  2  0
 14 15  1  0
 12 16  1  0
 15 16  1  6
 15 17  1  0
 17 18  2  3
 18 19  1  0
  1  2  2  0
  2  6  1  0
  5  6  2  0
  4  5  1  0
  3  4  2  0
  1  3  1  0
M  END

$$$$
No_3897-/export/home/yangzhenyu/potential_scad_32_flow//YTHDC2/2024-12-06-03-22-00/
     RDKit          3D

 18 19  0  0  1  0  0  0  0  0999 V2000
    1.1787   -8.0297    3.5154 C   0  0  0  0  0  0  0  0  0  0  0  0
    1.1048   -9.2215    3.2892 C   0  0  0  0  0  0  0  0  0  0  0  0
    1.2339   -9.7611    2.0189 C   0  0  0  0  0  0  0  0  0  0  0  0
    1.3583   -9.0036    0.9764 C   0  0  0  0  0  0  0  0  0  0  0  0
    1.5996   -7.6362    1.1311 C   0  0  0  0  0  0  0  0  0  0  0  0
    1.4830   -7.0928    2.3626 C   0  0  0  0  0  0  0  0  0  0  0  0
    1.4898   -5.7274    2.6199 C   0  0  0  0  0  0  0  0  0  0  0  0
    1.1681  -11.2222    1.8390 C   0  0  0  0  0  0  0  0  0  0  0  0
    0.5014  -11.9760    2.2068 C   0  0  0  0  0  0  0  0  0  0  0  0
    0.4167  -13.3685    2.0527 C   0  0  1  0  0  0  0  0  0  0  0  0
    1.5984  -14.1574    2.4634 C   0  0  0  0  0  0  0  0  0  0  0  0
    1.8090  -15.4261    2.0927 C   0  0  0  0  0  0  0  0  0  0  0  0
    0.9603  -16.3545    2.3375 C   0  0  0  0  0  0  0  0  0  0  0  0
   -0.3321  -15.9616    1.7423 C   0  0  0  0  0  0  0  0  0  0  0  0
   -0.6726  -14.4835    2.1833 C   0  0  2  0  0  0  0  0  0  0  0  0
    0.6689   -4.9754    2.7329 O   0  0  0  0  0  0  0  0  0  0  0  0
   -1.8527  -14.0173    1.6488 C   0  0  0  0  0  0  0  0  0  0  0  0
   -2.9162  -13.8448    2.3221 C   0  0  0  0  0  0  0  0  0  0  0  0
  6  7  1  0
  3  8  1  0
  8  9  2  3
  9 10  1  0
 10 11  1  1
 11 12  1  0
 12 13  1  0
 13 14  1  0
 10 15  1  0
 14 15  1  0
  7 16  2  0
 15 17  1  6
 17 18  1  0
  1  2  2  0
  2  3  1  0
  3  4  2  0
  4  5  1  0
  5  6  2  0
  1  6  1  0
M  END

$$$$
No_3898-/export/home/yangzhenyu/potential_scad_32_flow//YTHDC2/2024-12-06-03-22-00/
     RDKit          3D

 17 18  0  0  0  0  0  0  0  0999 V2000
    1.1787   -8.0297    3.5154 C   0  0  0  0  0  0  0  0  0  0  0  0
    1.0491   -6.8434    2.9820 C   0  0  0  0  0  0  0  0  0  0  0  0
    0.9905   -9.0774    2.6527 C   0  0  0  0  0  0  0  0  0  0  0  0
    0.7897   -8.9519    1.3691 C   0  0  0  0  0  0  0  0  0  0  0  0
    0.7018   -7.7198    0.7892 C   0  0  0  0  0  0  0  0  0  0  0  0
    0.8918   -6.5957    1.6117 C   0  0  0  0  0  0  0  0  0  0  0  0
    1.0998  -10.4710    3.2437 C   0  0  0  0  0  0  0  0  0  0  0  0
    1.3102  -11.5554    2.5214 C   0  0  0  0  0  0  0  0  0  0  0  0
    1.4257  -12.8124    3.1919 C   0  0  0  0  0  0  0  0  0  0  0  0
    1.4301  -14.0627    2.4374 C   0  0  0  0  0  0  0  0  0  0  0  0
    0.8588   -5.2558    1.2463 C   0  0  0  0  0  0  0  0  0  0  0  0
    1.0412  -15.2240    3.0610 C   0  0  0  0  0  0  0  0  0  0  0  0
    0.8312  -16.2569    2.5318 C   0  0  0  0  0  0  0  0  0  0  0  0
    1.1801  -16.4575    1.1962 C   0  0  0  0  0  0  0  0  0  0  0  0
    1.6836  -15.5021    0.5607 C   0  0  0  0  0  0  0  0  0  0  0  0
    1.7600  -14.2038    1.0849 C   0  0  0  0  0  0  0  0  0  0  0  0
    2.3097  -13.1344    0.5638 O   0  0  0  0  0  0  0  0  0  0  0  0
  3  7  1  0
  7  8  2  3
  8  9  1  0
  9 10  1  0
  6 11  1  0
 10 12  1  0
 13 14  1  0
 10 16  1  0
 15 16  1  0
 16 17  2  0
 12 13  1  0
 14 15  1  0
  1  2  2  0
  2  6  1  0
  5  6  2  0
  4  5  1  0
  3  4  2  0
  1  3  1  0
M  END

$$$$
No_3899-/export/home/yangzhenyu/potential_scad_32_flow//YTHDC2/2024-12-06-03-22-00/
     RDKit          3D

 19 21  0  0  1  0  0  0  0  0999 V2000
    1.1787   -8.0297    3.5154 C   0  0  0  0  0  0  0  0  0  0  0  0
    1.0491   -6.8434    2.9820 C   0  0  2  0  0  0  0  0  0  0  0  0
    0.9905   -9.0774    2.6527 C   0  0  0  0  0  0  0  0  0  0  0  0
    1.1655  -10.4663    3.1286 C   0  0  0  0  0  0  0  0  0  0  0  0
    1.2197  -11.4898    2.5831 C   0  0  0  0  0  0  0  0  0  0  0  0
    1.0589  -11.4458    1.1293 C   0  0  0  0  0  0  0  0  0  0  0  0
    0.9638  -10.3069    0.4651 C   0  0  0  0  0  0  0  0  0  0  0  0
    0.9191   -9.0789    1.1942 C   0  0  0  0  0  0  0  0  0  0  0  0
    0.9103   -7.8220    0.6974 C   0  0  0  0  0  0  0  0  0  0  0  0
    1.0140   -6.6889    1.5108 C   0  0  0  0  0  0  0  0  0  0  0  0
    0.7513   -7.6341   -0.4649 O   0  0  0  0  0  0  0  0  0  0  0  0
    1.3227  -12.8060    3.1122 C   0  0  0  0  0  0  0  0  0  0  0  0
    0.2120  -13.7108    2.9590 C   0  0  0  0  0  0  0  0  0  0  0  0
   -0.9555  -13.3429    2.7000 C   0  0  0  0  0  0  0  0  0  0  0  0
    0.6280  -15.0964    3.0619 C   0  0  0  0  0  0  0  0  0  0  0  0
   -0.3706  -15.9686    3.0837 C   0  0  0  0  0  0  0  0  0  0  0  0
   -1.6670  -15.6104    2.8903 C   0  0  0  0  0  0  0  0  0  0  0  0
   -1.9223  -14.3092    2.7215 C   0  0  0  0  0  0  0  0  0  0  0  0
    1.3095   -5.6297    3.6761 C   0  0  0  0  0  0  0  0  0  0  0  0
  1  2  1  0
  8  9  1  0
  2 10  1  0
  9 10  1  0
  9 11  2  0
  5 12  1  0
 12 13  1  0
  2 19  1  6
  1  3  1  0
 13 14  2  0
 14 18  1  0
 17 18  2  0
 16 17  1  0
 15 16  2  0
 13 15  1  0
  3  4  2  0
  4  5  1  0
  5  6  2  0
  6  7  1  0
  7  8  2  0
  3  8  1  0
M  END

$$$$
No_3900-/export/home/yangzhenyu/potential_scad_32_flow//YTHDC2/2024-12-06-03-22-00/
     RDKit          3D

 19 20  0  0  0  0  0  0  0  0999 V2000
    1.1787   -8.0297    3.5154 C   0  0  0  0  0  0  0  0  0  0  0  0
    1.1048   -9.2215    3.2892 C   0  0  0  0  0  0  0  0  0  0  0  0
    1.3627  -10.1721    4.3044 C   0  0  0  0  0  0  0  0  0  0  0  0
    1.7354  -11.4730    3.9023 C   0  0  0  0  0  0  0  0  0  0  0  0
    1.8080  -11.8127    2.7216 C   0  0  0  0  0  0  0  0  0  0  0  0
    1.5854  -11.0021    1.7249 C   0  0  0  0  0  0  0  0  0  0  0  0
    1.3573   -9.7389    1.9287 C   0  0  0  0  0  0  0  0  0  0  0  0
    1.2865   -8.8078    0.9161 C   0  0  0  0  0  0  0  0  0  0  0  0
    1.6845   -9.1638   -0.2896 C   0  0  0  0  0  0  0  0  0  0  0  0
    1.0768   -8.8580   -1.3382 O   0  0  0  0  0  0  0  0  0  0  0  0
    2.9337   -9.5343   -0.5962 O   0  0  0  0  0  0  0  0  0  0  0  0
    2.0303  -13.2443    2.4007 O   0  0  0  0  0  0  0  0  0  0  0  0
    0.1060   -7.2155    3.3671 N   0  0  0  0  0  0  0  0  0  0  0  0
   -0.2951   -6.7112    2.4489 C   0  0  0  0  0  0  0  0  0  0  0  0
    0.2865   -5.5853    1.9247 C   0  0  0  0  0  0  0  0  0  0  0  0
   -0.2565   -4.8258    0.8420 C   0  0  0  0  0  0  0  0  0  0  0  0
   -1.4870   -5.2886    0.3659 C   0  0  0  0  0  0  0  0  0  0  0  0
   -2.0905   -6.3996    0.8233 C   0  0  0  0  0  0  0  0  0  0  0  0
   -1.5196   -7.1124    1.9335 C   0  0  0  0  0  0  0  0  0  0  0  0
  1  2  1  0
  7  8  1  0
  8  9  1  0
  9 10  2  0
  9 11  1  0
  5 12  1  0
  1 13  1  0
 13 14  1  0
  2  3  2  0
  3  4  1  0
  4  5  2  0
  5  6  1  0
  6  7  2  0
  2  7  1  0
 14 15  2  0
 15 16  1  0
 16 17  2  0
 17 18  1  0
 18 19  2  0
 14 19  1  0
M  END

$$$$
No_3901-/export/home/yangzhenyu/potential_scad_32_flow//YTHDC2/2024-12-06-03-22-00/
     RDKit          3D

 19 21  0  0  1  0  0  0  0  0999 V2000
    1.1787   -8.0297    3.5154 C   0  0  0  0  0  0  0  0  0  0  0  0
    1.0491   -6.8434    2.9820 C   0  0  0  0  0  0  0  0  0  0  0  0
    1.0690   -9.1150    2.7206 C   0  0  1  0  0  0  0  0  0  0  0  0
    0.9689   -6.6391    1.6260 C   0  0  1  0  0  0  0  0  0  0  0  0
    0.9670   -9.0334    1.3824 C   0  0  0  0  0  0  0  0  0  0  0  0
    0.8189   -7.7113    0.8022 C   0  0  0  0  0  0  0  0  0  0  0  0
    1.2122  -10.5176    3.2445 C   0  0  0  0  0  0  0  0  0  0  0  0
    0.3325  -11.3891    3.1392 C   0  0  0  0  0  0  0  0  0  0  0  0
    0.7419  -12.7847    3.3395 C   0  0  0  0  0  0  0  0  0  0  0  0
    2.1478  -13.0123    3.3880 C   0  0  0  0  0  0  0  0  0  0  0  0
    2.5042  -10.8597    3.8035 C   0  0  0  0  0  0  0  0  0  0  0  0
    2.9636  -12.0902    3.7504 N   0  0  0  0  0  0  0  0  0  0  0  0
    0.8978   -5.3757    1.0168 Br  0  0  0  0  0  0  0  0  0  0  0  0
    2.5895  -14.2919    3.2802 N   0  0  0  0  0  0  0  0  0  0  0  0
    0.7718   -7.7324   -0.4418 O   0  0  0  0  0  0  0  0  0  0  0  0
   -0.0148  -13.8142    2.8174 N   0  0  0  0  0  0  0  0  0  0  0  0
    1.8367  -15.2542    2.7975 C   0  0  0  0  0  0  0  0  0  0  0  0
    0.4843  -15.0237    2.6602 C   0  0  0  0  0  0  0  0  0  0  0  0
    2.2515  -16.5615    2.6348 C   0  0  0  0  0  0  0  0  0  0  0  0
  1  3  1  0
  2  4  1  0
  4  6  1  0
  5  6  1  0
  3  7  1  6
  4 13  1  1
  6 15  2  0
 17 19  1  0
  1  2  1  0
  3  5  1  0
  7  8  2  0
  8  9  1  0
 10 12  1  0
 11 12  2  0
  7 11  1  0
  9 10  2  0
 10 14  1  0
 14 17  2  0
 17 18  1  0
 16 18  2  0
  9 16  1  0
M  END

$$$$
No_3902-/export/home/yangzhenyu/potential_scad_32_flow//YTHDC2/2024-12-06-03-22-00/
     RDKit          3D

 18 18  0  0  0  0  0  0  0  0999 V2000
    1.1787   -8.0297    3.5154 C   0  0  0  0  0  0  0  0  0  0  0  0
    1.1048   -9.2215    3.2892 C   0  0  0  0  0  0  0  0  0  0  0  0
    1.4683  -10.2314    4.1915 C   0  0  0  0  0  0  0  0  0  0  0  0
    0.8445   -6.9865    2.5175 Cl  0  0  0  0  0  0  0  0  0  0  0  0
    1.9482  -11.4090    3.9972 C   0  0  0  0  0  0  0  0  0  0  0  0
    1.8027  -11.9362    2.7031 C   0  0  0  0  0  0  0  0  0  0  0  0
    1.4271  -11.1450    1.6961 C   0  0  0  0  0  0  0  0  0  0  0  0
    1.1996   -9.7954    1.9226 C   0  0  0  0  0  0  0  0  0  0  0  0
    2.0291  -13.3269    2.4826 C   0  0  0  0  0  0  0  0  0  0  0  0
    1.7087  -14.2765    3.3177 N   0  0  0  0  0  0  0  0  0  0  0  0
    2.4397  -13.7502    1.3272 O   0  0  0  0  0  0  0  0  0  0  0  0
    1.5688  -15.6059    3.1792 C   0  0  0  0  0  0  0  0  0  0  0  0
    0.7653  -16.0345    2.5234 C   0  0  0  0  0  0  0  0  0  0  0  0
    0.6967  -17.5559    2.3388 C   0  0  0  0  0  0  0  0  0  0  0  0
    1.9698  -18.2504    1.9808 C   0  0  0  0  0  0  0  0  0  0  0  0
    2.6125  -18.5537    2.8032 C   0  0  0  0  0  0  0  0  0  0  0  0
    4.0439  -18.5252    2.8022 C   0  0  0  0  0  0  0  0  0  0  0  0
    1.0702   -8.9796    0.8209 C   0  0  0  0  0  0  0  0  0  0  0  0
  1  4  1  0
  6  9  1  0
  9 10  1  0
  9 11  2  0
 10 12  1  0
 12 13  2  3
 13 14  1  0
 14 15  1  0
 15 16  1  0
 16 17  1  0
  8 18  1  0
  1  2  1  0
  2  3  2  0
  3  5  1  0
  5  6  2  0
  6  7  1  0
  7  8  2  0
  2  8  1  0
M  END

$$$$
No_3903-/export/home/yangzhenyu/potential_scad_32_flow//YTHDC2/2024-12-06-03-22-00/
     RDKit          3D

 18 19  0  0  1  0  0  0  0  0999 V2000
    1.1787   -8.0297    3.5154 C   0  0  0  0  0  0  0  0  0  0  0  0
    1.1048   -9.2215    3.2892 C   0  0  0  0  0  0  0  0  0  0  0  0
    1.2339   -9.7611    2.0189 C   0  0  0  0  0  0  0  0  0  0  0  0
    1.3583   -9.0036    0.9764 C   0  0  0  0  0  0  0  0  0  0  0  0
    1.5996   -7.6362    1.1311 C   0  0  0  0  0  0  0  0  0  0  0  0
    1.4830   -7.0928    2.3626 C   0  0  0  0  0  0  0  0  0  0  0  0
    1.1008  -11.2372    1.8542 C   0  0  2  0  0  0  0  0  0  0  0  0
    1.9749  -12.0938    2.2342 C   0  0  0  0  0  0  0  0  0  0  0  0
    1.7533  -13.4231    1.8956 C   0  0  1  0  0  0  0  0  0  0  0  0
    0.8624  -13.8318    1.1071 C   0  0  0  0  0  0  0  0  0  0  0  0
   -0.0624  -12.9093    0.5581 C   0  0  0  0  0  0  0  0  0  0  0  0
    0.1157  -11.5285    0.9404 C   0  0  0  0  0  0  0  0  0  0  0  0
    1.5561   -5.6354    2.6426 Cl  0  0  0  0  0  0  0  0  0  0  0  0
   -0.8099  -10.6546    0.4318 O   0  0  0  0  0  0  0  0  0  0  0  0
    2.7479  -14.3804    2.4442 Cl  0  0  0  0  0  0  0  0  0  0  0  0
    1.5859   -9.4137   -0.3606 O   0  0  0  0  0  0  0  0  0  0  0  0
    0.8759  -10.1525    4.3954 O   0  0  0  0  0  0  0  0  0  0  0  0
   -1.2388  -13.3509   -0.4850 O   0  0  0  0  0  0  0  0  0  0  0  0
  7  3  1  6
  7  8  1  0
  9 10  1  0
  7 12  1  0
 11 12  1  0
  6 13  1  0
 12 14  2  0
  9 15  1  6
  4 16  1  0
  2 17  1  0
 11 18  1  0
  8  9  1  0
 10 11  1  0
  1  2  2  0
  2  3  1  0
  3  4  2  0
  4  5  1  0
  5  6  2  0
  1  6  1  0
M  END

$$$$
No_3904-/export/home/yangzhenyu/potential_scad_32_flow//YTHDC2/2024-12-06-03-22-00/
     RDKit          3D

 18 18  0  0  1  0  0  0  0  0999 V2000
    1.1787   -8.0297    3.5154 C   0  0  0  0  0  0  0  0  0  0  0  0
    1.0491   -6.8434    2.9820 C   0  0  0  0  0  0  0  0  0  0  0  0
    1.9985   -8.9840    2.8958 C   0  0  2  0  0  0  0  0  0  0  0  0
    1.7297   -9.2108    1.6335 C   0  0  0  0  0  0  0  0  0  0  0  0
    1.7343   -8.0566    0.8408 C   0  0  2  0  0  0  0  0  0  0  0  0
    1.0269   -6.8892    1.4456 C   0  0  0  0  0  0  0  0  0  0  0  0
    1.7596   -8.0979   -0.4723 C   0  0  0  0  0  0  0  0  0  0  0  0
    0.8317   -7.8698   -1.2086 O   0  0  0  0  0  0  0  0  0  0  0  0
    2.9935   -8.1987   -1.1162 O   0  0  0  0  0  0  0  0  0  0  0  0
    1.9723  -10.3698    3.5745 C   0  0  0  0  0  0  0  0  0  0  0  0
    1.1843  -11.3216    3.3689 N   0  0  0  0  0  0  0  0  0  0  0  0
   -0.1485  -11.1201    3.6300 C   0  0  0  0  0  0  0  0  0  0  0  0
   -1.0690  -11.9851    3.1046 O   0  0  0  0  0  0  0  0  0  0  0  0
   -0.5147   -9.9886    4.4677 C   0  0  0  0  0  0  0  0  0  0  0  0
   -1.8467   -9.5820    4.3202 C   0  0  0  0  0  0  0  0  0  0  0  0
   -2.7534  -10.0221    4.0831 C   0  0  0  0  0  0  0  0  0  0  0  0
   -3.2504  -11.0538    4.3866 C   0  0  0  0  0  0  0  0  0  0  0  0
   -3.6487  -11.6757    5.2444 C   0  0  0  0  0  0  0  0  0  0  0  0
  1  2  1  0
  1  3  1  0
  3  4  1  0
  4  5  1  0
  2  6  1  0
  5  6  1  0
  5  7  1  6
  7  8  2  0
  7  9  1  0
  3 10  1  1
 10 11  1  0
 11 12  1  0
 12 13  2  0
 12 14  1  0
 14 15  1  0
 15 16  2  3
 16 17  1  0
 17 18  2  0
M  END

$$$$
No_3905-/export/home/yangzhenyu/potential_scad_32_flow//YTHDC2/2024-12-06-03-22-00/
     RDKit          3D

 12 12  0  0  1  0  0  0  0  0999 V2000
    1.1787   -8.0297    3.5154 C   0  0  0  0  0  0  0  0  0  0  0  0
    1.0491   -6.8434    2.9820 C   0  0  0  0  0  0  0  0  0  0  0  0
    0.9905   -9.0774    2.6527 C   0  0  0  0  0  0  0  0  0  0  0  0
    0.7897   -8.9519    1.3691 C   0  0  0  0  0  0  0  0  0  0  0  0
    0.7018   -7.7198    0.7892 C   0  0  0  0  0  0  0  0  0  0  0  0
    1.4312   -5.5794    3.7443 Cl  0  0  0  0  0  0  0  0  0  0  0  0
    0.9313   -6.7257    1.5340 C   0  0  0  0  0  0  0  0  0  0  0  0
    1.0064  -10.4910    3.2333 C   0  0  2  0  0  0  0  0  0  0  0  0
    1.1824  -11.6167    2.3998 C   0  0  0  0  0  0  0  0  0  0  0  0
    0.8978  -12.6448    2.6023 C   0  0  0  0  0  0  0  0  0  0  0  0
    0.3952  -13.0810    3.9877 C   0  0  0  0  0  0  0  0  0  0  0  0
    0.7791  -10.8828    4.5389 C   0  0  0  0  0  0  0  0  0  0  0  0
  2  6  1  0
  3  8  1  0
  8  9  1  0
  9 10  2  3
 10 11  1  0
  8 12  1  6
  1  2  2  0
  2  7  1  0
  5  7  2  0
  4  5  1  0
  3  4  2  0
  1  3  1  0
M  END

$$$$
No_3906-/export/home/yangzhenyu/potential_scad_32_flow//YTHDC2/2024-12-06-03-22-00/
     RDKit          3D

 19 20  0  0  0  0  0  0  0  0999 V2000
    1.1787   -8.0297    3.5154 O   0  0  0  0  0  0  0  0  0  0  0  0
    0.9969   -8.9689    3.0048 C   0  0  0  0  0  0  0  0  0  0  0  0
    1.3055  -10.1056    3.6616 C   0  0  0  0  0  0  0  0  0  0  0  0
    1.1249  -11.3503    3.0941 C   0  0  0  0  0  0  0  0  0  0  0  0
    0.6932  -11.4484    1.8586 C   0  0  0  0  0  0  0  0  0  0  0  0
    0.5498  -10.3736    1.0579 C   0  0  0  0  0  0  0  0  0  0  0  0
    0.7643   -9.1185    1.6383 C   0  0  0  0  0  0  0  0  0  0  0  0
    0.5937   -7.8467    1.0482 C   0  0  0  0  0  0  0  0  0  0  0  0
   -0.4358   -7.6746    0.4159 C   0  0  0  0  0  0  0  0  0  0  0  0
    1.2876  -12.8350    3.9391 C   0  0  0  0  0  0  0  0  0  0  0  0
   -1.3109   -8.7812    0.2278 C   0  0  0  0  0  0  0  0  0  0  0  0
   -2.0828   -8.6814   -0.9860 C   0  0  0  0  0  0  0  0  0  0  0  0
   -3.0167   -9.7361   -1.1601 C   0  0  0  0  0  0  0  0  0  0  0  0
   -3.2688  -10.5922   -0.1143 C   0  0  0  0  0  0  0  0  0  0  0  0
   -2.6070  -10.6071    1.0210 C   0  0  0  0  0  0  0  0  0  0  0  0
   -1.6628   -9.6095    1.3003 C   0  0  0  0  0  0  0  0  0  0  0  0
    1.7133  -13.7211    3.2397 N   0  0  0  0  0  0  0  0  0  0  0  0
    1.0094  -14.9849    3.1329 C   0  0  0  0  0  0  0  0  0  0  0  0
   -0.0908  -15.0859    3.5258 F   0  0  0  0  0  0  0  0  0  0  0  0
  1  2  1  0
  7  8  1  0
  8  9  2  3
  4 10  1  0
  9 11  1  0
 10 17  1  0
 17 18  1  0
 18 19  1  0
 11 12  2  0
 12 13  1  0
 13 14  2  0
 14 15  1  0
 15 16  2  0
 11 16  1  0
  2  3  2  0
  3  4  1  0
  4  5  2  0
  5  6  1  0
  6  7  2  0
  2  7  1  0
M  END

$$$$
No_3907-/export/home/yangzhenyu/potential_scad_32_flow//YTHDC2/2024-12-06-03-22-00/
     RDKit          3D

 18 19  0  0  1  0  0  0  0  0999 V2000
    1.1787   -8.0297    3.5154 N   0  0  0  0  0  0  0  0  0  0  0  0
    1.0818   -9.0751    3.2053 C   0  0  0  0  0  0  0  0  0  0  0  0
    0.7576   -9.3725    1.9159 C   0  0  0  0  0  0  0  0  0  0  0  0
    0.8823   -8.4917    1.0547 C   0  0  0  0  0  0  0  0  0  0  0  0
    1.4631   -7.3107    1.2451 C   0  0  0  0  0  0  0  0  0  0  0  0
    1.6470   -6.9326    2.5669 C   0  0  0  0  0  0  0  0  0  0  0  0
    0.8237  -10.1305    4.2407 C   0  0  0  0  0  0  0  0  0  0  0  0
    0.5683  -11.4514    3.6849 C   0  0  0  0  0  0  0  0  0  0  0  0
    0.4031  -11.7395    2.5410 C   0  0  1  0  0  0  0  0  0  0  0  0
    0.5649  -10.7352    1.5387 C   0  0  0  0  0  0  0  0  0  0  0  0
    0.2507  -13.0841    2.0741 C   0  0  0  0  0  0  0  0  0  0  0  0
    1.1968  -13.9767    2.3387 C   0  0  2  0  0  0  0  0  0  0  0  0
    2.2010  -14.2218    1.5013 C   0  0  0  0  0  0  0  0  0  0  0  0
    3.0272  -15.2570    1.5723 C   0  0  0  0  0  0  0  0  0  0  0  0
    0.9337  -14.9965    3.2833 F   0  0  0  0  0  0  0  0  0  0  0  0
    0.4478  -11.0306    0.1995 O   0  0  0  0  0  0  0  0  0  0  0  0
    1.7870   -5.6177    3.0274 C   0  0  0  0  0  0  0  0  0  0  0  0
    1.5316   -4.5713    2.2364 O   0  0  0  0  0  0  0  0  0  0  0  0
  2  7  1  0
  8  9  1  0
  3 10  1  0
  9 10  1  0
  9 11  1  6
 11 12  1  0
 12 13  1  0
 13 14  2  0
 12 15  1  6
 10 16  2  0
  6 17  1  0
 17 18  2  0
  7  8  1  0
  1  2  2  0
  2  3  1  0
  3  4  2  0
  4  5  1  0
  5  6  2  0
  1  6  1  0
M  END

$$$$
No_3908-/export/home/yangzhenyu/potential_scad_32_flow//YTHDC2/2024-12-06-03-22-00/
     RDKit          3D

 18 20  0  0  0  0  0  0  0  0999 V2000
    1.1787   -8.0297    3.5154 C   0  0  0  0  0  0  0  0  0  0  0  0
    1.1048   -9.2215    3.2892 C   0  0  0  0  0  0  0  0  0  0  0  0
    1.3627  -10.1721    4.3044 C   0  0  0  0  0  0  0  0  0  0  0  0
    1.7354  -11.4730    3.9023 C   0  0  0  0  0  0  0  0  0  0  0  0
    1.8080  -11.8127    2.7216 C   0  0  0  0  0  0  0  0  0  0  0  0
    1.5854  -11.0021    1.7249 C   0  0  0  0  0  0  0  0  0  0  0  0
    1.3573   -9.7389    1.9287 C   0  0  0  0  0  0  0  0  0  0  0  0
    1.1102   -8.8712    0.9017 C   0  0  0  0  0  0  0  0  0  0  0  0
    0.5299   -7.6926    1.0325 C   0  0  0  0  0  0  0  0  0  0  0  0
    0.7526   -7.0802    2.3301 C   0  0  0  0  0  0  0  0  0  0  0  0
    2.0528  -13.2563    2.4302 C   0  0  0  0  0  0  0  0  0  0  0  0
    1.1153  -14.0523    1.8967 C   0  0  0  0  0  0  0  0  0  0  0  0
    0.6296  -14.8085    2.6366 C   0  0  0  0  0  0  0  0  0  0  0  0
   -0.6211  -15.1450    2.6475 C   0  0  0  0  0  0  0  0  0  0  0  0
   -1.3779  -14.9521    1.6510 C   0  0  0  0  0  0  0  0  0  0  0  0
   -0.8244  -14.1140    0.6267 C   0  0  0  0  0  0  0  0  0  0  0  0
    0.4280  -13.6004    0.7675 C   0  0  0  0  0  0  0  0  0  0  0  0
    0.6114   -5.7080    2.5490 C   0  0  0  0  0  0  0  0  0  0  0  0
  5 11  1  0
 11 12  1  0
 10 18  1  0
  1  2  2  0
  7  8  2  0
  8  9  1  0
  9 10  2  0
  1 10  1  0
  2  3  1  0
  3  4  2  0
  4  5  1  0
  5  6  2  0
  6  7  1  0
  2  7  1  0
 12 13  2  0
 13 14  1  0
 14 15  2  0
 15 16  1  0
 16 17  2  0
 12 17  1  0
M  END

$$$$
No_3909-/export/home/yangzhenyu/potential_scad_32_flow//YTHDC2/2024-12-06-03-22-00/
     RDKit          3D

 16 16  0  0  1  0  0  0  0  0999 V2000
    1.1787   -8.0297    3.5154 C   0  0  0  0  0  0  0  0  0  0  0  0
    1.1048   -9.2215    3.2892 C   0  0  0  0  0  0  0  0  0  0  0  0
    1.2339   -9.7611    2.0189 C   0  0  0  0  0  0  0  0  0  0  0  0
    1.3583   -9.0036    0.9764 C   0  0  0  0  0  0  0  0  0  0  0  0
    1.5996   -7.6362    1.1311 C   0  0  0  0  0  0  0  0  0  0  0  0
    1.4830   -7.0928    2.3626 C   0  0  0  0  0  0  0  0  0  0  0  0
    1.4898   -5.7274    2.6199 C   0  0  0  0  0  0  0  0  0  0  0  0
    1.1681  -11.2222    1.8390 C   0  0  2  0  0  0  0  0  0  0  0  0
    0.7145  -11.5870    0.5424 C   0  0  0  0  0  0  0  0  0  0  0  0
   -0.1922  -10.9837   -0.0791 C   0  0  0  0  0  0  0  0  0  0  0  0
    1.2328  -12.1195    2.8070 C   0  0  0  0  0  0  0  0  0  0  0  0
    2.3191  -12.2546    3.6140 C   0  0  0  0  0  0  0  0  0  0  0  0
    1.6749   -5.1833    3.8514 O   0  0  0  0  0  0  0  0  0  0  0  0
    1.3204   -4.8327    1.6666 O   0  0  0  0  0  0  0  0  0  0  0  0
    0.0988  -12.8911    3.0438 O   0  0  0  0  0  0  0  0  0  0  0  0
   -1.2098  -10.3310    0.6957 C   0  0  0  0  0  0  0  0  0  0  0  0
  6  7  1  0
  3  8  1  0
  8  9  1  0
  9 10  2  3
  8 11  1  1
 11 12  1  0
  7 13  1  0
  7 14  2  0
 11 15  2  0
 10 16  1  0
  1  2  2  0
  2  3  1  0
  3  4  2  0
  4  5  1  0
  5  6  2  0
  1  6  1  0
M  END

$$$$
No_3910-/export/home/yangzhenyu/potential_scad_32_flow//YTHDC2/2024-12-06-03-22-00/
     RDKit          3D

 20 21  0  0  1  0  0  0  0  0999 V2000
    1.1787   -8.0297    3.5154 C   0  0  0  0  0  0  0  0  0  0  0  0
    1.0491   -6.8434    2.9820 C   0  0  0  0  0  0  0  0  0  0  0  0
    0.9905   -9.0774    2.6527 C   0  0  0  0  0  0  0  0  0  0  0  0
    0.9687   -8.6883    1.3634 C   0  0  0  0  0  0  0  0  0  0  0  0
    1.0948   -6.3768    1.7686 C   0  0  0  0  0  0  0  0  0  0  0  0
    0.9504   -7.3975    0.8471 C   0  0  0  0  0  0  0  0  0  0  0  0
    1.0365  -10.4250    2.9992 C   0  0  0  0  0  0  0  0  0  0  0  0
    2.1481  -10.9990    3.3342 N   0  0  0  0  0  0  0  0  0  0  0  0
    2.1460  -12.2790    3.7981 C   0  0  0  0  0  0  0  0  0  0  0  0
    0.9074  -12.7505    3.4522 N   0  0  0  0  0  0  0  0  0  0  0  0
    0.2106  -11.4849    3.1012 C   0  0  2  0  0  0  0  0  0  0  0  0
   -1.0609  -11.4224    2.8046 C   0  0  0  0  0  0  0  0  0  0  0  0
    1.0648   -5.0427    1.2750 Cl  0  0  0  0  0  0  0  0  0  0  0  0
   -1.9178  -10.5879    3.5995 O   0  0  0  0  0  0  0  0  0  0  0  0
   -1.4946  -11.5802    1.5751 O   0  0  0  0  0  0  0  0  0  0  0  0
    0.4453  -13.9978    3.6957 C   0  0  0  0  0  0  0  0  0  0  0  0
    0.7583  -14.8499    2.4876 C   0  0  0  0  0  0  0  0  0  0  0  0
    0.2488  -16.0914    2.6237 C   0  0  0  0  0  0  0  0  0  0  0  0
   -0.9410  -16.3211    2.8638 C   0  0  0  0  0  0  0  0  0  0  0  0
   -1.4562  -17.2616    2.9537 C   0  0  0  0  0  0  0  0  0  0  0  0
  3  7  1  0
  7  8  1  0
  8  9  2  0
  9 10  1  0
  7 11  1  0
 10 11  1  0
 11 12  1  6
  5 13  1  0
 12 14  1  0
 12 15  2  0
 10 16  1  0
 16 17  1  0
 17 18  1  0
 18 19  1  0
 19 20  2  0
  1  2  2  0
  2  5  1  0
  5  6  2  0
  4  6  1  0
  3  4  2  0
  1  3  1  0
M  END

$$$$
No_3911-/export/home/yangzhenyu/potential_scad_32_flow//YTHDC2/2024-12-06-03-22-00/
     RDKit          3D

 19 20  0  0  0  0  0  0  0  0999 V2000
    1.1787   -8.0297    3.5154 C   0  0  0  0  0  0  0  0  0  0  0  0
    1.1048   -9.2215    3.2892 C   0  0  0  0  0  0  0  0  0  0  0  0
    1.3627  -10.1721    4.3044 C   0  0  0  0  0  0  0  0  0  0  0  0
    1.7354  -11.4730    3.9023 C   0  0  0  0  0  0  0  0  0  0  0  0
    1.8080  -11.8127    2.7216 C   0  0  0  0  0  0  0  0  0  0  0  0
    1.5854  -11.0021    1.7249 C   0  0  0  0  0  0  0  0  0  0  0  0
    1.3573   -9.7389    1.9287 C   0  0  0  0  0  0  0  0  0  0  0  0
    1.2865   -8.8078    0.9161 C   0  0  0  0  0  0  0  0  0  0  0  0
    1.6845   -9.1638   -0.2896 C   0  0  0  0  0  0  0  0  0  0  0  0
    2.0771  -13.2284    2.3629 O   0  0  0  0  0  0  0  0  0  0  0  0
    1.6800   -8.1274   -1.3872 O   0  0  0  0  0  0  0  0  0  0  0  0
    0.7594   -7.0725    3.0252 N   0  0  0  0  0  0  0  0  0  0  0  0
    0.4212   -7.0249    1.7216 C   0  0  0  0  0  0  0  0  0  0  0  0
    0.6740   -7.5693    0.8099 N   0  0  0  0  0  0  0  0  0  0  0  0
    2.4068  -10.2185   -0.6429 O   0  0  0  0  0  0  0  0  0  0  0  0
   -0.0926   -5.5590    1.3872 N   0  0  0  0  0  0  0  0  0  0  0  0
    1.8024  -13.7532    1.1203 C   0  0  0  0  0  0  0  0  0  0  0  0
    0.4526  -13.9199    0.9035 C   0  0  0  0  0  0  0  0  0  0  0  0
    0.0207  -13.4267   -0.3163 C   0  0  0  0  0  0  0  0  0  0  0  0
  1  2  1  0
  7  8  1  0
  8  9  2  3
  5 10  1  0
  9 11  1  0
  1 12  2  0
 12 13  1  0
  8 14  1  0
 13 14  2  0
  9 15  1  0
 13 16  1  0
 10 17  1  0
 17 18  1  0
 18 19  1  0
  2  3  2  0
  3  4  1  0
  4  5  2  0
  5  6  1  0
  6  7  2  0
  2  7  1  0
M  END

$$$$
No_3912-/export/home/yangzhenyu/potential_scad_32_flow//YTHDC2/2024-12-06-03-22-00/
     RDKit          3D

 18 18  0  0  1  0  0  0  0  0999 V2000
    1.1787   -8.0297    3.5154 C   0  0  0  0  0  0  0  0  0  0  0  0
    1.1048   -9.2215    3.2892 C   0  0  0  0  0  0  0  0  0  0  0  0
    1.2339   -9.7611    2.0189 C   0  0  0  0  0  0  0  0  0  0  0  0
    1.3583   -9.0036    0.9764 C   0  0  0  0  0  0  0  0  0  0  0  0
    1.5996   -7.6362    1.1311 C   0  0  0  0  0  0  0  0  0  0  0  0
    1.4830   -7.0928    2.3626 C   0  0  0  0  0  0  0  0  0  0  0  0
    1.3121   -5.7497    2.5440 C   0  0  0  0  0  0  0  0  0  0  0  0
    1.3751  -11.4686    1.9103 C   0  0  1  0  0  0  0  0  0  0  0  0
    1.4399  -11.7891    0.6477 C   0  0  0  0  0  0  0  0  0  0  0  0
    0.8132  -11.4890   -0.1421 C   0  0  0  0  0  0  0  0  0  0  0  0
    1.6229  -12.0481    3.1218 C   0  0  0  0  0  0  0  0  0  0  0  0
    0.5305  -12.8232    3.3811 C   0  0  0  0  0  0  0  0  0  0  0  0
   -0.6306  -12.3513    3.3958 O   0  0  0  0  0  0  0  0  0  0  0  0
    0.8452  -14.0356    4.0531 O   0  0  0  0  0  0  0  0  0  0  0  0
    1.7814   -5.1459    3.6613 C   0  0  0  0  0  0  0  0  0  0  0  0
    1.4549   -3.7029    3.6246 O   0  0  0  0  0  0  0  0  0  0  0  0
    1.1339   -4.8476    1.5019 O   0  0  0  0  0  0  0  0  0  0  0  0
    2.3761  -12.9699    0.5922 C   0  0  0  0  0  0  0  0  0  0  0  0
  6  7  1  0
  3  8  1  0
  8  9  1  0
  9 10  2  0
  8 11  1  1
 11 12  1  0
 12 13  2  0
 12 14  1  0
  7 15  1  0
 15 16  1  0
  7 17  2  0
  9 18  1  0
  1  2  2  0
  2  3  1  0
  3  4  2  0
  4  5  1  0
  5  6  2  0
  1  6  1  0
M  END

$$$$
No_3913-/export/home/yangzhenyu/potential_scad_32_flow//YTHDC2/2024-12-06-03-22-00/
     RDKit          3D

 15 15  0  0  1  0  0  0  0  0999 V2000
    1.1787   -8.0297    3.5154 C   0  0  0  0  0  0  0  0  0  0  0  0
    1.0491   -6.8434    2.9820 C   0  0  0  0  0  0  0  0  0  0  0  0
    0.9905   -9.0774    2.6527 C   0  0  0  0  0  0  0  0  0  0  0  0
    0.7897   -8.9519    1.3691 C   0  0  0  0  0  0  0  0  0  0  0  0
    0.7018   -7.7198    0.7892 C   0  0  0  0  0  0  0  0  0  0  0  0
    0.8918   -6.5957    1.6117 C   0  0  0  0  0  0  0  0  0  0  0  0
    1.0998  -10.4710    3.2437 C   0  0  1  0  0  0  0  0  0  0  0  0
    2.1917  -10.8879    3.7399 C   0  0  0  0  0  0  0  0  0  0  0  0
    0.8983   -5.2566    1.2088 C   0  0  0  0  0  0  0  0  0  0  0  0
   -0.0163  -11.2298    3.3739 C   0  0  0  0  0  0  0  0  0  0  0  0
   -0.0826  -12.5020    3.1762 C   0  0  0  0  0  0  0  0  0  0  0  0
   -1.0176  -13.1140    2.4765 Cl  0  0  0  0  0  0  0  0  0  0  0  0
   -0.1925   -4.7325    0.7488 C   0  0  0  0  0  0  0  0  0  0  0  0
   -0.2937   -3.3764    0.3955 O   0  0  0  0  0  0  0  0  0  0  0  0
   -1.5001   -5.1859    0.9786 O   0  0  0  0  0  0  0  0  0  0  0  0
  3  7  1  0
  7  8  1  1
  6  9  1  0
  7 10  1  0
 10 11  1  0
 11 12  1  0
  9 13  2  3
 13 14  1  0
 13 15  1  0
  1  2  2  0
  2  6  1  0
  5  6  2  0
  4  5  1  0
  3  4  2  0
  1  3  1  0
M  END

$$$$
No_3914-/export/home/yangzhenyu/potential_scad_32_flow//YTHDC2/2024-12-06-03-22-00/
     RDKit          3D

 19 20  0  0  0  0  0  0  0  0999 V2000
    1.1787   -8.0297    3.5154 C   0  0  0  0  0  0  0  0  0  0  0  0
    1.1048   -9.2215    3.2892 C   0  0  0  0  0  0  0  0  0  0  0  0
    1.2339   -9.7611    2.0189 C   0  0  0  0  0  0  0  0  0  0  0  0
    1.3583   -9.0036    0.9764 C   0  0  0  0  0  0  0  0  0  0  0  0
    1.5996   -7.6362    1.1311 C   0  0  0  0  0  0  0  0  0  0  0  0
    1.4830   -7.0928    2.3626 C   0  0  0  0  0  0  0  0  0  0  0  0
    1.1008  -11.2372    1.8542 C   0  0  0  0  0  0  0  0  0  0  0  0
    0.5178  -11.9759    2.3445 C   0  0  0  0  0  0  0  0  0  0  0  0
    0.4575  -13.3705    2.1281 C   0  0  0  0  0  0  0  0  0  0  0  0
    1.1632  -14.1013    2.0451 C   0  0  0  0  0  0  0  0  0  0  0  0
    1.0401  -15.5542    1.9839 C   0  0  0  0  0  0  0  0  0  0  0  0
   -0.1527  -16.0372    1.9519 C   0  0  0  0  0  0  0  0  0  0  0  0
   -1.1929  -15.2536    2.0893 C   0  0  0  0  0  0  0  0  0  0  0  0
   -2.5224  -15.8051    2.2754 C   0  0  0  0  0  0  0  0  0  0  0  0
   -0.9361  -13.9153    2.3769 N   0  0  0  0  0  0  0  0  0  0  0  0
   -3.5307  -14.9216    2.1660 C   0  0  0  0  0  0  0  0  0  0  0  0
   -4.7812  -15.3364    2.4185 C   0  0  0  0  0  0  0  0  0  0  0  0
   -4.9692  -16.6418    2.7964 C   0  0  0  0  0  0  0  0  0  0  0  0
   -4.0023  -17.5161    2.9506 C   0  0  0  0  0  0  0  0  0  0  0  0
  3  7  1  0
  7  8  2  3
  8  9  1  0
 13 14  1  0
 14 16  2  3
 16 17  1  0
 17 18  2  3
 18 19  1  0
  1  2  2  0
  2  3  1  0
  3  4  2  0
  4  5  1  0
  5  6  2  0
  1  6  1  0
  9 10  2  0
 10 11  1  0
 11 12  2  0
 12 13  1  0
 13 15  2  0
  9 15  1  0
M  END

$$$$
No_3915-/export/home/yangzhenyu/potential_scad_32_flow//YTHDC2/2024-12-06-03-22-00/
     RDKit          3D

 19 20  0  0  1  0  0  0  0  0999 V2000
    1.1787   -8.0297    3.5154 C   0  0  0  0  0  0  0  0  0  0  0  0
    1.1048   -9.2215    3.2892 C   0  0  0  0  0  0  0  0  0  0  0  0
    1.2339   -9.7611    2.0189 C   0  0  0  0  0  0  0  0  0  0  0  0
    1.3583   -9.0036    0.9764 C   0  0  0  0  0  0  0  0  0  0  0  0
    1.5996   -7.6362    1.1311 C   0  0  0  0  0  0  0  0  0  0  0  0
    1.4830   -7.0928    2.3626 C   0  0  0  0  0  0  0  0  0  0  0  0
    1.4898   -5.7274    2.6199 C   0  0  0  0  0  0  0  0  0  0  0  0
    1.1681  -11.2222    1.8390 C   0  0  2  0  0  0  0  0  0  0  0  0
    1.9047  -12.1147    2.3357 C   0  0  0  0  0  0  0  0  0  0  0  0
    1.6844  -13.4555    2.0602 C   0  0  2  0  0  0  0  0  0  0  0  0
    0.6977  -13.8514    1.3046 C   0  0  0  0  0  0  0  0  0  0  0  0
   -0.1168  -12.9151    0.6554 C   0  0  0  0  0  0  0  0  0  0  0  0
    0.1481  -11.5441    0.9254 C   0  0  0  0  0  0  0  0  0  0  0  0
    1.2485   -4.8600    1.6197 O   0  0  0  0  0  0  0  0  0  0  0  0
    1.7677   -5.1383    3.7959 O   0  0  0  0  0  0  0  0  0  0  0  0
    2.6257  -14.5791    2.8635 F   0  0  0  0  0  0  0  0  0  0  0  0
   -0.7010  -10.6936    0.3396 O   0  0  0  0  0  0  0  0  0  0  0  0
    1.6082   -9.4064   -0.3605 O   0  0  0  0  0  0  0  0  0  0  0  0
    0.8707  -10.1581    4.3857 O   0  0  0  0  0  0  0  0  0  0  0  0
  6  7  1  0
  8  3  1  6
  8  9  1  0
 10 11  1  0
  8 13  1  0
 12 13  1  0
  7 14  2  0
  7 15  1  0
 10 16  1  1
 13 17  2  0
  4 18  1  0
  2 19  1  0
  9 10  1  0
 11 12  1  0
  1  2  2  0
  2  3  1  0
  3  4  2  0
  4  5  1  0
  5  6  2  0
  1  6  1  0
M  END

$$$$
No_3916-/export/home/yangzhenyu/potential_scad_32_flow//YTHDC2/2024-12-06-03-22-00/
     RDKit          3D

 19 20  0  0  1  0  0  0  0  0999 V2000
    1.1787   -8.0297    3.5154 C   0  0  0  0  0  0  0  0  0  0  0  0
    1.1048   -9.2215    3.2892 C   0  0  0  0  0  0  0  0  0  0  0  0
    1.2339   -9.7611    2.0189 C   0  0  0  0  0  0  0  0  0  0  0  0
    1.3583   -9.0036    0.9764 C   0  0  0  0  0  0  0  0  0  0  0  0
    1.5996   -7.6362    1.1311 C   0  0  0  0  0  0  0  0  0  0  0  0
    1.4830   -7.0928    2.3626 C   0  0  0  0  0  0  0  0  0  0  0  0
    1.4898   -5.7274    2.6199 C   0  0  0  0  0  0  0  0  0  0  0  0
    1.1681  -11.2222    1.8390 C   0  0  2  0  0  0  0  0  0  0  0  0
    0.7145  -11.5870    0.5424 C   0  0  0  0  0  0  0  0  0  0  0  0
   -0.1922  -10.9837   -0.0791 C   0  0  0  0  0  0  0  0  0  0  0  0
    1.2328  -12.1195    2.8070 C   0  0  0  0  0  0  0  0  0  0  0  0
    1.7087  -13.4050    2.5976 C   0  0  0  0  0  0  0  0  0  0  0  0
    0.8738  -14.4658    2.9487 C   0  0  0  0  0  0  0  0  0  0  0  0
    1.5363  -15.8322    2.8988 C   0  0  0  0  0  0  0  0  0  0  0  0
    2.6452  -15.9673    2.1197 C   0  0  0  0  0  0  0  0  0  0  0  0
    3.3146  -14.9113    1.6575 N   0  0  0  0  0  0  0  0  0  0  0  0
    2.8592  -13.7410    1.7494 C   0  0  0  0  0  0  0  0  0  0  0  0
    1.2763   -4.8738    1.5877 S   0  0  0  0  0  0  0  0  0  0  0  0
    0.2642   -3.5744    2.3425 C   0  0  0  0  0  0  0  0  0  0  0  0
  6  7  1  0
  3  8  1  0
  8  9  1  0
  9 10  2  0
  8 11  1  1
 11 12  1  0
  7 18  1  0
 18 19  1  0
 12 13  2  0
 13 14  1  0
 14 15  2  0
 15 16  1  0
 16 17  2  0
 12 17  1  0
  1  2  2  0
  2  3  1  0
  3  4  2  0
  4  5  1  0
  5  6  2  0
  1  6  1  0
M  END

$$$$
No_3917-/export/home/yangzhenyu/potential_scad_32_flow//YTHDC2/2024-12-06-03-22-00/
     RDKit          3D

 17 18  0  0  0  0  0  0  0  0999 V2000
    1.1787   -8.0297    3.5154 C   0  0  0  0  0  0  0  0  0  0  0  0
    1.1048   -9.2215    3.2892 C   0  0  0  0  0  0  0  0  0  0  0  0
    1.2339   -9.7611    2.0189 C   0  0  0  0  0  0  0  0  0  0  0  0
    1.3583   -9.0036    0.9764 C   0  0  0  0  0  0  0  0  0  0  0  0
    1.5996   -7.6362    1.1311 C   0  0  0  0  0  0  0  0  0  0  0  0
    1.4830   -7.0928    2.3626 C   0  0  0  0  0  0  0  0  0  0  0  0
    1.1008  -11.2372    1.8542 C   0  0  0  0  0  0  0  0  0  0  0  0
    0.5178  -11.9759    2.3445 C   0  0  0  0  0  0  0  0  0  0  0  0
    0.4575  -13.3705    2.1281 C   0  0  0  0  0  0  0  0  0  0  0  0
    1.3992  -14.2795    2.9784 C   0  0  0  0  0  0  0  0  0  0  0  0
    1.6183  -15.4281    2.6005 C   0  0  0  0  0  0  0  0  0  0  0  0
    0.9581  -16.0107    1.5509 C   0  0  0  0  0  0  0  0  0  0  0  0
    0.1650  -15.3644    0.8003 C   0  0  0  0  0  0  0  0  0  0  0  0
   -0.0958  -14.0389    1.1020 C   0  0  0  0  0  0  0  0  0  0  0  0
    1.5668   -9.4152   -0.3632 Cl  0  0  0  0  0  0  0  0  0  0  0  0
    1.5758   -5.3857    2.6699 C   0  0  0  0  0  0  0  0  0  0  0  0
   -0.8031  -13.2917    0.1935 C   0  0  0  0  0  0  0  0  0  0  0  0
  3  7  1  0
  7  8  2  3
  8  9  1  0
  4 15  1  0
  6 16  1  0
 14 17  1  0
  1  2  2  0
  2  3  1  0
  3  4  2  0
  4  5  1  0
  5  6  2  0
  1  6  1  0
  9 10  2  0
 10 11  1  0
 11 12  2  0
 12 13  1  0
 13 14  2  0
  9 14  1  0
M  END

$$$$
No_3918-/export/home/yangzhenyu/potential_scad_32_flow//YTHDC2/2024-12-06-03-22-00/
     RDKit          3D

 12 12  0  0  0  0  0  0  0  0999 V2000
    1.1787   -8.0297    3.5154 N   0  0  0  0  0  0  0  0  0  0  0  0
    0.8669   -7.0905    2.8589 C   0  0  0  0  0  0  0  0  0  0  0  0
    1.0447   -7.3244    1.4123 C   0  0  0  0  0  0  0  0  0  0  0  0
    1.3746   -8.4389    1.0864 C   0  0  0  0  0  0  0  0  0  0  0  0
    1.6686   -9.1952    2.5608 C   0  0  0  0  0  0  0  0  0  0  0  0
    2.0321  -10.4919    2.7987 C   0  0  0  0  0  0  0  0  0  0  0  0
    2.0841  -10.9682    3.9936 C   0  0  0  0  0  0  0  0  0  0  0  0
    1.6734   -9.1115   -0.0210 C   0  0  0  0  0  0  0  0  0  0  0  0
    1.9591   -8.5403   -1.0674 O   0  0  0  0  0  0  0  0  0  0  0  0
    1.2329  -10.3597   -0.2477 O   0  0  0  0  0  0  0  0  0  0  0  0
    1.3997  -11.8257    4.3508 O   0  0  0  0  0  0  0  0  0  0  0  0
    3.1738  -10.6671    4.8558 N   0  0  0  0  0  0  0  0  0  0  0  0
  1  2  1  0
  2  3  2  0
  3  4  1  0
  1  5  1  0
  4  5  2  0
  5  6  1  0
  6  7  1  0
  4  8  1  0
  8  9  2  0
  8 10  1  0
  7 11  2  0
  7 12  1  0
M  END

$$$$
No_3919-/export/home/yangzhenyu/potential_scad_32_flow//YTHDC2/2024-12-06-03-22-00/
     RDKit          3D

 14 14  0  0  0  0  0  0  0  0999 V2000
    1.1787   -8.0297    3.5154 C   0  0  0  0  0  0  0  0  0  0  0  0
    1.1048   -9.2215    3.2892 C   0  0  0  0  0  0  0  0  0  0  0  0
    1.3627  -10.1721    4.3044 C   0  0  0  0  0  0  0  0  0  0  0  0
    1.7354  -11.4730    3.9023 C   0  0  0  0  0  0  0  0  0  0  0  0
    1.8080  -11.8127    2.7216 C   0  0  0  0  0  0  0  0  0  0  0  0
    1.5854  -11.0021    1.7249 C   0  0  0  0  0  0  0  0  0  0  0  0
    1.3573   -9.7389    1.9287 C   0  0  0  0  0  0  0  0  0  0  0  0
    1.1102   -8.8712    0.9017 C   0  0  0  0  0  0  0  0  0  0  0  0
    0.5299   -7.6926    1.0325 O   0  0  0  0  0  0  0  0  0  0  0  0
    1.3970   -9.2634   -0.4035 N   0  0  0  0  0  0  0  0  0  0  0  0
    2.1535  -13.3837    2.2958 Cl  0  0  0  0  0  0  0  0  0  0  0  0
    0.1562   -7.1704    3.6348 O   0  0  0  0  0  0  0  0  0  0  0  0
    2.3226   -7.1138    3.6230 O   0  0  0  0  0  0  0  0  0  0  0  0
    1.2165   -8.5162   -1.5436 O   0  0  0  0  0  0  0  0  0  0  0  0
  1  2  1  0
  7  8  1  0
  8  9  2  0
  8 10  1  0
  5 11  1  0
  1 12  1  0
  1 13  2  0
 10 14  2  0
  2  3  2  0
  3  4  1  0
  4  5  2  0
  5  6  1  0
  6  7  2  0
  2  7  1  0
M  END

$$$$
No_3920-/export/home/yangzhenyu/potential_scad_32_flow//YTHDC2/2024-12-06-03-22-00/
     RDKit          3D

 19 20  0  0  0  0  0  0  0  0999 V2000
    1.1787   -8.0297    3.5154 C   0  0  0  0  0  0  0  0  0  0  0  0
    1.0491   -6.8434    2.9820 C   0  0  0  0  0  0  0  0  0  0  0  0
    1.9985   -8.9840    2.8958 C   0  0  0  0  0  0  0  0  0  0  0  0
    1.9135  -10.3404    3.6266 C   0  0  0  0  0  0  0  0  0  0  0  0
    1.3291  -11.3908    3.0222 C   0  0  0  0  0  0  0  0  0  0  0  0
    1.2749  -12.5326    3.7562 C   0  0  0  0  0  0  0  0  0  0  0  0
    0.4248   -6.6481    1.7861 C   0  0  0  0  0  0  0  0  0  0  0  0
    0.4186   -7.4786    1.0077 C   0  0  0  0  0  0  0  0  0  0  0  0
    0.7923  -13.6634    3.1270 N   0  0  0  0  0  0  0  0  0  0  0  0
    0.9843  -11.2022    1.9202 C   0  0  0  0  0  0  0  0  0  0  0  0
    0.5436  -12.4618    1.1563 C   0  0  0  0  0  0  0  0  0  0  0  0
    0.4420  -13.6325    1.9411 C   0  0  0  0  0  0  0  0  0  0  0  0
   -0.4421   -7.4288   -0.0857 C   0  0  0  0  0  0  0  0  0  0  0  0
   -1.2888   -6.4605   -0.1911 C   0  0  0  0  0  0  0  0  0  0  0  0
   -1.3112   -5.4608    0.7369 C   0  0  0  0  0  0  0  0  0  0  0  0
   -0.4603   -5.5467    1.8421 C   0  0  0  0  0  0  0  0  0  0  0  0
   -0.3969  -14.5706    1.7123 C   0  0  0  0  0  0  0  0  0  0  0  0
   -0.2205  -15.9019    2.1218 C   0  0  0  0  0  0  0  0  0  0  0  0
   -1.0616  -16.8877    1.6802 C   0  0  0  0  0  0  0  0  0  0  0  0
  1  2  1  0
  1  3  1  0
  3  4  1  0
  4  5  1  0
  2  7  1  0
 12 17  1  0
 17 18  2  3
 18 19  1  0
  7  8  2  0
  8 13  1  0
 13 14  2  0
 14 15  1  0
 15 16  2  0
  7 16  1  0
  5  6  2  0
  6  9  1  0
  9 12  2  0
 11 12  1  0
 10 11  2  0
  5 10  1  0
M  END

$$$$
No_3921-/export/home/yangzhenyu/potential_scad_32_flow//YTHDC2/2024-12-06-03-22-00/
     RDKit          3D

 20 21  0  0  0  0  0  0  0  0999 V2000
    1.1787   -8.0297    3.5154 C   0  0  0  0  0  0  0  0  0  0  0  0
    1.1048   -9.2215    3.2892 C   0  0  0  0  0  0  0  0  0  0  0  0
    1.3627  -10.1721    4.3044 C   0  0  0  0  0  0  0  0  0  0  0  0
    1.0682  -11.5187    4.0618 C   0  0  0  0  0  0  0  0  0  0  0  0
    0.6332  -11.9655    2.9682 C   0  0  0  0  0  0  0  0  0  0  0  0
    0.4776  -11.1308    1.9203 C   0  0  0  0  0  0  0  0  0  0  0  0
    0.7470   -9.8274    2.0368 C   0  0  0  0  0  0  0  0  0  0  0  0
    1.0387   -7.0301    2.5175 N   0  0  0  0  0  0  0  0  0  0  0  0
    0.9298   -7.5514    1.2672 C   0  0  0  0  0  0  0  0  0  0  0  0
    0.7824   -8.7713    0.9713 C   0  0  0  0  0  0  0  0  0  0  0  0
    0.6486   -9.2285   -0.2792 C   0  0  0  0  0  0  0  0  0  0  0  0
   -0.7454   -9.4326   -0.6987 O   0  0  0  0  0  0  0  0  0  0  0  0
    1.4969   -9.4310   -1.1001 O   0  0  0  0  0  0  0  0  0  0  0  0
    0.5207  -13.3891    2.6907 C   0  0  0  0  0  0  0  0  0  0  0  0
    0.9460  -14.0239    1.6263 O   0  0  0  0  0  0  0  0  0  0  0  0
    0.0886  -14.2170    3.6353 O   0  0  0  0  0  0  0  0  0  0  0  0
    0.9147   -6.6147    0.3359 O   0  0  0  0  0  0  0  0  0  0  0  0
    0.8156  -15.3059    1.3597 C   0  0  0  0  0  0  0  0  0  0  0  0
   -0.1611  -15.7718    0.7137 C   0  0  0  0  0  0  0  0  0  0  0  0
    1.0718  -16.1101    2.7143 C   0  0  0  0  0  0  0  0  0  0  0  0
  1  2  1  0
  8  9  1  0
  7 10  1  0
  9 10  1  0
 10 11  1  0
 11 12  2  0
 11 13  1  0
  5 14  1  0
 14 15  1  0
 14 16  2  0
  9 17  2  0
 15 18  1  0
 18 19  1  0
 18 20  1  0
  1  8  1  0
  2  3  2  0
  3  4  1  0
  4  5  2  0
  5  6  1  0
  6  7  2  0
  2  7  1  0
M  END

$$$$
No_3922-/export/home/yangzhenyu/potential_scad_32_flow//YTHDC2/2024-12-06-03-22-00/
     RDKit          3D

 19 20  0  0  0  0  0  0  0  0999 V2000
    1.1787   -8.0297    3.5154 C   0  0  0  0  0  0  0  0  0  0  0  0
    1.1048   -9.2215    3.2892 C   0  0  0  0  0  0  0  0  0  0  0  0
    1.3627  -10.1721    4.3044 C   0  0  0  0  0  0  0  0  0  0  0  0
    1.7354  -11.4730    3.9023 C   0  0  0  0  0  0  0  0  0  0  0  0
    1.8080  -11.8127    2.7216 C   0  0  0  0  0  0  0  0  0  0  0  0
    1.5854  -11.0021    1.7249 C   0  0  0  0  0  0  0  0  0  0  0  0
    1.3573   -9.7389    1.9287 C   0  0  0  0  0  0  0  0  0  0  0  0
    1.2865   -8.8078    0.9161 C   0  0  0  0  0  0  0  0  0  0  0  0
    1.6845   -9.1638   -0.2896 N   0  0  0  0  0  0  0  0  0  0  0  0
    0.9954   -7.4968    1.1120 N   0  0  0  0  0  0  0  0  0  0  0  0
    0.9641   -7.0415    2.3842 C   0  0  0  0  0  0  0  0  0  0  0  0
    0.8305   -5.5986    2.5856 C   0  0  0  0  0  0  0  0  0  0  0  0
    2.0587  -13.2189    2.3667 O   0  0  0  0  0  0  0  0  0  0  0  0
    1.8050   -4.9333    3.2938 C   0  0  0  0  0  0  0  0  0  0  0  0
    1.5053   -3.5268    3.2615 O   0  0  0  0  0  0  0  0  0  0  0  0
    1.1694  -14.1354    1.9419 C   0  0  0  0  0  0  0  0  0  0  0  0
    1.6587  -15.2864    1.9451 C   0  0  0  0  0  0  0  0  0  0  0  0
    0.8928  -16.3586    1.6051 O   0  0  0  0  0  0  0  0  0  0  0  0
    2.7985  -15.7134    2.4904 O   0  0  0  0  0  0  0  0  0  0  0  0
 11 12  1  0
  5 13  1  0
 12 14  1  0
 14 15  1  0
 13 16  1  0
 16 17  1  0
 17 18  2  0
 17 19  1  0
  8  9  1  0
  2  3  1  0
  3  4  2  0
  4  5  1  0
  5  6  2  0
  6  7  1  0
  1  2  2  0
  2  7  1  0
  7  8  2  0
  8 10  1  0
 10 11  2  0
  1 11  1  0
M  END

$$$$
No_3923-/export/home/yangzhenyu/potential_scad_32_flow//YTHDC2/2024-12-06-03-22-00/
     RDKit          3D

 19 20  0  0  0  0  0  0  0  0999 V2000
    1.1787   -8.0297    3.5154 C   0  0  0  0  0  0  0  0  0  0  0  0
    1.1048   -9.2215    3.2892 C   0  0  0  0  0  0  0  0  0  0  0  0
    1.2339   -9.7611    2.0189 C   0  0  0  0  0  0  0  0  0  0  0  0
    1.3583   -9.0036    0.9764 C   0  0  0  0  0  0  0  0  0  0  0  0
    1.7077   -9.6100   -0.3010 C   0  0  0  0  0  0  0  0  0  0  0  0
    1.3637   -7.1087    2.3226 C   0  0  0  0  0  0  0  0  0  0  0  0
    1.4257   -7.6645    1.0231 C   0  0  0  0  0  0  0  0  0  0  0  0
    1.9364   -8.8976   -1.3212 O   0  0  0  0  0  0  0  0  0  0  0  0
    1.2982  -10.7764   -0.4341 O   0  0  0  0  0  0  0  0  0  0  0  0
    1.1232  -10.1782    4.3891 P   0  0  0  0  0  0  0  0  0  0  0  0
    1.0535  -11.7386    3.8834 O   0  0  0  0  0  0  0  0  0  0  0  0
   -0.1976  -10.3164    5.2411 O   0  0  0  0  0  0  0  0  0  0  0  0
    2.2676  -10.1572    5.4337 O   0  0  0  0  0  0  0  0  0  0  0  0
    1.3456   -5.6075    2.5549 C   0  0  0  0  0  0  0  0  0  0  0  0
    1.0510   -4.8157    1.5720 C   0  0  0  0  0  0  0  0  0  0  0  0
    1.5119   -3.4960    1.5820 C   0  0  0  0  0  0  0  0  0  0  0  0
    2.3623   -3.0109    2.5505 C   0  0  0  0  0  0  0  0  0  0  0  0
    2.6136   -3.8347    3.6795 C   0  0  0  0  0  0  0  0  0  0  0  0
    2.1346   -5.1378    3.6653 C   0  0  0  0  0  0  0  0  0  0  0  0
  4  5  1  0
  5  8  1  0
  5  9  2  0
  2 10  1  0
 10 11  2  0
 10 12  1  0
 10 13  1  0
  6 14  1  0
 14 15  2  0
 15 16  1  0
 16 17  2  0
 17 18  1  0
 18 19  2  0
 14 19  1  0
  1  2  2  0
  2  3  1  0
  3  4  2  0
  4  7  1  0
  6  7  2  0
  1  6  1  0
M  END

$$$$
No_3924-/export/home/yangzhenyu/potential_scad_32_flow//YTHDC2/2024-12-06-03-22-00/
     RDKit          3D

 17 17  0  0  0  0  0  0  0  0999 V2000
    1.1787   -8.0297    3.5154 C   0  0  0  0  0  0  0  0  0  0  0  0
    1.1048   -9.2215    3.2892 C   0  0  0  0  0  0  0  0  0  0  0  0
    1.2339   -9.7611    2.0189 C   0  0  0  0  0  0  0  0  0  0  0  0
    1.3583   -9.0036    0.9764 C   0  0  0  0  0  0  0  0  0  0  0  0
    1.5996   -7.6362    1.1311 C   0  0  0  0  0  0  0  0  0  0  0  0
    1.4830   -7.0928    2.3626 C   0  0  0  0  0  0  0  0  0  0  0  0
    1.2249  -11.3952    1.9460 C   0  0  0  0  0  0  0  0  0  0  0  0
    1.1695  -11.8684    0.7480 O   0  0  0  0  0  0  0  0  0  0  0  0
    1.4670  -12.0429    3.0392 N   0  0  0  0  0  0  0  0  0  0  0  0
    1.4999  -13.4469    3.0645 C   0  0  0  0  0  0  0  0  0  0  0  0
    1.5178   -5.6753    2.6589 Cl  0  0  0  0  0  0  0  0  0  0  0  0
    1.9597  -14.0430    1.8061 C   0  0  0  0  0  0  0  0  0  0  0  0
    3.1689  -14.2348    1.7183 O   0  0  0  0  0  0  0  0  0  0  0  0
    1.0917  -14.4948    1.0740 O   0  0  0  0  0  0  0  0  0  0  0  0
    1.6244   -9.5006   -0.3368 C   0  0  0  0  0  0  0  0  0  0  0  0
    2.6976   -9.7388   -0.7921 O   0  0  0  0  0  0  0  0  0  0  0  0
    0.5881   -9.0858   -1.2415 N   0  0  0  0  0  0  0  0  0  0  0  0
  3  7  1  0
  7  8  2  0
  7  9  1  0
  9 10  1  0
  6 11  1  0
 10 12  1  0
 12 13  2  0
 12 14  1  0
  4 15  1  0
 15 16  2  0
 15 17  1  0
  1  2  2  0
  2  3  1  0
  3  4  2  0
  4  5  1  0
  5  6  2  0
  1  6  1  0
M  END

$$$$
No_3925-/export/home/yangzhenyu/potential_scad_32_flow//YTHDC2/2024-12-06-03-22-00/
     RDKit          3D

 17 19  0  0  0  0  0  0  0  0999 V2000
    1.1787   -8.0297    3.5154 N   0  0  0  0  0  0  0  0  0  0  0  0
    1.0818   -9.0751    3.2053 C   0  0  0  0  0  0  0  0  0  0  0  0
    0.7576   -9.3725    1.9159 C   0  0  0  0  0  0  0  0  0  0  0  0
    0.7445  -10.8746    1.6491 C   0  0  0  0  0  0  0  0  0  0  0  0
    0.9910  -11.7526    2.6067 C   0  0  0  0  0  0  0  0  0  0  0  0
    1.4405  -11.4331    3.8064 C   0  0  0  0  0  0  0  0  0  0  0  0
    1.4304  -10.0463    4.1669 C   0  0  0  0  0  0  0  0  0  0  0  0
    1.1357   -6.7948    2.7839 C   0  0  0  0  0  0  0  0  0  0  0  0
    1.2410   -7.1363    1.3557 N   0  0  0  0  0  0  0  0  0  0  0  0
    1.0668   -8.3879    0.9503 C   0  0  0  0  0  0  0  0  0  0  0  0
    0.9122   -8.6277   -0.3796 O   0  0  0  0  0  0  0  0  0  0  0  0
    0.9121  -13.4094    2.2320 N   0  0  0  0  0  0  0  0  0  0  0  0
    1.8746  -14.1023    2.4263 C   0  0  0  0  0  0  0  0  0  0  0  0
    0.0636  -13.5934    1.1223 C   0  0  0  0  0  0  0  0  0  0  0  0
    1.6707  -15.5083    2.2427 C   0  0  0  0  0  0  0  0  0  0  0  0
    0.8895  -15.8721    1.1724 C   0  0  0  0  0  0  0  0  0  0  0  0
   -0.1838  -14.9950    0.8843 C   0  0  0  0  0  0  0  0  0  0  0  0
  1  2  1  0
  8  9  1  0
  3 10  1  0
  9 10  1  0
 10 11  2  0
  5 12  1  0
 12 13  1  0
 12 14  1  0
 13 15  1  0
 15 16  1  0
 14 17  1  0
 16 17  1  0
  1  8  1  0
  2  7  2  0
  6  7  1  0
  5  6  2  0
  4  5  1  0
  3  4  2  0
  2  3  1  0
M  END

$$$$
No_3926-/export/home/yangzhenyu/potential_scad_32_flow//YTHDC2/2024-12-06-03-22-00/
     RDKit          3D

 21 22  0  0  1  0  0  0  0  0999 V2000
    1.1787   -8.0297    3.5154 C   0  0  0  0  0  0  0  0  0  0  0  0
    1.1048   -9.2215    3.2892 C   0  0  0  0  0  0  0  0  0  0  0  0
    1.2339   -9.7611    2.0189 C   0  0  0  0  0  0  0  0  0  0  0  0
    1.3583   -9.0036    0.9764 C   0  0  0  0  0  0  0  0  0  0  0  0
    1.5394   -7.6373    1.2201 C   0  0  0  0  0  0  0  0  0  0  0  0
    1.4604   -7.0971    2.3874 C   0  0  0  0  0  0  0  0  0  0  0  0
    1.1370  -11.2343    1.8498 C   0  0  0  0  0  0  0  0  0  0  0  0
    0.4922  -11.9807    2.3357 C   0  0  0  0  0  0  0  0  0  0  0  0
    0.4418  -13.3714    2.1247 C   0  0  0  0  0  0  0  0  0  0  0  0
   -0.5890  -14.1203    2.1812 C   0  0  0  0  0  0  0  0  0  0  0  0
   -0.4514  -15.6134    2.2544 C   0  0  0  0  0  0  0  0  0  0  0  0
    0.6269  -16.1332    2.6073 C   0  0  0  0  0  0  0  0  0  0  0  0
    1.8681  -15.3786    2.6981 C   0  0  0  0  0  0  0  0  0  0  0  0
    1.8052  -14.0093    2.5819 C   0  0  0  0  0  0  0  0  0  0  0  0
    1.4957   -5.6637    2.6544 C   0  0  0  0  0  0  0  0  0  0  0  0
    1.7425   -5.1563    3.7849 N   0  0  0  0  0  0  0  0  0  0  0  0
    1.5188   -4.8850    1.5209 O   0  0  0  0  0  0  0  0  0  0  0  0
    0.7972  -17.5580    2.7187 C   0  0  1  0  0  0  0  0  0  0  0  0
    0.3847  -18.2088    3.7198 O   0  0  0  0  0  0  0  0  0  0  0  0
    0.6665  -18.3067    1.5412 C   0  0  0  0  0  0  0  0  0  0  0  0
    0.6146  -17.8671    0.6004 N   0  0  0  0  0  0  0  0  0  0  0  0
  3  7  1  0
  7  8  2  3
  8  9  1  0
  6 15  1  0
 15 16  1  0
 15 17  2  0
 12 18  1  0
 18 19  1  1
 18 20  1  0
 20 21  1  0
  1  2  2  0
  2  3  1  0
  3  4  2  0
  4  5  1  0
  5  6  2  0
  1  6  1  0
  9 10  2  0
 10 11  1  0
 11 12  2  0
 12 13  1  0
 13 14  2  0
  9 14  1  0
M  END

$$$$
No_3927-/export/home/yangzhenyu/potential_scad_32_flow//YTHDC2/2024-12-06-03-22-00/
     RDKit          3D

 18 18  0  0  1  0  0  0  0  0999 V2000
    1.1787   -8.0297    3.5154 N   0  0  0  0  0  0  0  0  0  0  0  0
    0.8669   -7.0905    2.8589 C   0  0  0  0  0  0  0  0  0  0  0  0
    1.0447   -7.3244    1.4123 C   0  0  0  0  0  0  0  0  0  0  0  0
    1.3746   -8.4389    1.0864 C   0  0  2  0  0  0  0  0  0  0  0  0
    1.6686   -9.1952    2.5608 C   0  0  0  0  0  0  0  0  0  0  0  0
    1.6471   -9.1228   -0.0034 C   0  0  0  0  0  0  0  0  0  0  0  0
    1.9678  -10.2893   -0.0536 O   0  0  0  0  0  0  0  0  0  0  0  0
    1.3642   -8.5662   -1.1139 O   0  0  0  0  0  0  0  0  0  0  0  0
    1.9617  -10.5112    2.9007 C   0  0  0  0  0  0  0  0  0  0  0  0
    1.2290  -11.4835    2.5134 C   0  0  0  0  0  0  0  0  0  0  0  0
    0.9223  -12.3207    3.4562 C   0  0  0  0  0  0  0  0  0  0  0  0
    1.5101  -12.5157    4.5192 C   0  0  0  0  0  0  0  0  0  0  0  0
    0.5712  -13.7802    2.8205 C   0  0  0  0  0  0  0  0  0  0  0  0
    1.6682  -14.5849    2.9309 C   0  0  0  0  0  0  0  0  0  0  0  0
    2.4820  -14.5933    1.7501 C   0  0  0  0  0  0  0  0  0  0  0  0
    2.3394  -13.6163    0.8818 C   0  0  0  0  0  0  0  0  0  0  0  0
    3.4305  -15.4702    1.5470 O   0  0  0  0  0  0  0  0  0  0  0  0
   -0.6268  -11.9158    3.7200 C   0  0  0  0  0  0  0  0  0  0  0  0
  1  2  1  0
  2  3  2  0
  3  4  1  0
  1  5  2  0
  4  5  1  0
  4  6  1  6
  6  7  2  0
  6  8  1  0
  5  9  1  0
  9 10  1  0
 10 11  1  0
 11 12  1  0
 11 13  1  0
 13 14  1  0
 14 15  1  0
 15 16  1  0
 15 17  2  0
 11 18  1  0
M  END

$$$$
No_3928-/export/home/yangzhenyu/potential_scad_32_flow//YTHDC2/2024-12-06-03-22-00/
     RDKit          3D

 18 19  0  0  0  0  0  0  0  0999 V2000
    1.1787   -8.0297    3.5154 C   0  0  0  0  0  0  0  0  0  0  0  0
    1.0491   -6.8434    2.9820 C   0  0  0  0  0  0  0  0  0  0  0  0
    0.9905   -9.0774    2.6527 C   0  0  0  0  0  0  0  0  0  0  0  0
    1.1655  -10.4663    3.1286 C   0  0  0  0  0  0  0  0  0  0  0  0
    1.2197  -11.4898    2.5831 C   0  0  0  0  0  0  0  0  0  0  0  0
    1.0589  -11.4458    1.1293 C   0  0  0  0  0  0  0  0  0  0  0  0
    0.9638  -10.3069    0.4651 C   0  0  0  0  0  0  0  0  0  0  0  0
    0.9191   -9.0789    1.1942 C   0  0  0  0  0  0  0  0  0  0  0  0
    0.9198   -7.8339    0.6158 C   0  0  0  0  0  0  0  0  0  0  0  0
    1.0184   -6.6904    1.4953 C   0  0  0  0  0  0  0  0  0  0  0  0
    1.3445  -12.8198    3.0746 C   0  0  0  0  0  0  0  0  0  0  0  0
    1.4199  -13.9116    2.1454 C   0  0  0  0  0  0  0  0  0  0  0  0
    0.5327  -14.6204    1.8366 C   0  0  0  0  0  0  0  0  0  0  0  0
    0.5818  -15.5122    0.8491 C   0  0  0  0  0  0  0  0  0  0  0  0
    1.2826  -15.2702   -0.1649 N   0  0  0  0  0  0  0  0  0  0  0  0
    0.2127  -16.8269    0.9600 C   0  0  0  0  0  0  0  0  0  0  0  0
   -0.2442  -17.2886    2.2036 C   0  0  0  0  0  0  0  0  0  0  0  0
    1.7009  -14.3586   -0.2839 H   0  0  0  0  0  0  0  0  0  0  0  0
  5 11  1  0
 11 12  1  0
 12 13  1  0
 13 14  1  0
 14 15  2  0
 14 16  1  0
 16 17  2  0
  1  2  2  0
  2 10  1  0
  9 10  2  0
  8  9  1  0
  1  3  1  0
  3  4  2  0
  4  5  1  0
  5  6  2  0
  6  7  1  0
  7  8  2  0
  3  8  1  0
 15 18  1  0
M  END

$$$$
No_3929-/export/home/yangzhenyu/potential_scad_32_flow//YTHDC2/2024-12-06-03-22-00/
     RDKit          3D

 17 18  0  0  0  0  0  0  0  0999 V2000
    1.1787   -8.0297    3.5154 C   0  0  0  0  0  0  0  0  0  0  0  0
    1.1048   -9.2215    3.2892 C   0  0  0  0  0  0  0  0  0  0  0  0
    1.2339   -9.7611    2.0189 C   0  0  0  0  0  0  0  0  0  0  0  0
    1.3583   -9.0036    0.9764 C   0  0  0  0  0  0  0  0  0  0  0  0
    1.5996   -7.6362    1.1311 C   0  0  0  0  0  0  0  0  0  0  0  0
    1.4830   -7.0928    2.3626 C   0  0  0  0  0  0  0  0  0  0  0  0
    1.1008  -11.2372    1.8542 C   0  0  0  0  0  0  0  0  0  0  0  0
    0.5178  -11.9759    2.3445 C   0  0  0  0  0  0  0  0  0  0  0  0
    0.4575  -13.3705    2.1281 C   0  0  0  0  0  0  0  0  0  0  0  0
    1.3992  -14.2795    2.9784 C   0  0  0  0  0  0  0  0  0  0  0  0
    1.3981  -15.5837    2.7718 C   0  0  0  0  0  0  0  0  0  0  0  0
    0.6478  -16.1498    1.8129 C   0  0  0  0  0  0  0  0  0  0  0  0
   -0.1507  -15.4364    1.0074 C   0  0  0  0  0  0  0  0  0  0  0  0
   -0.2761  -14.0581    1.2370 C   0  0  0  0  0  0  0  0  0  0  0  0
    1.5638   -5.6558    2.6514 Cl  0  0  0  0  0  0  0  0  0  0  0  0
    1.4846   -9.4447   -0.3899 Cl  0  0  0  0  0  0  0  0  0  0  0  0
   -1.0699  -13.3281    0.4001 C   0  0  0  0  0  0  0  0  0  0  0  0
  3  7  1  0
  7  8  2  3
  8  9  1  0
  6 15  1  0
  4 16  1  0
 14 17  1  0
  1  2  2  0
  2  3  1  0
  3  4  2  0
  4  5  1  0
  5  6  2  0
  1  6  1  0
  9 10  2  0
 10 11  1  0
 11 12  2  0
 12 13  1  0
 13 14  2  0
  9 14  1  0
M  END

$$$$
No_3930-/export/home/yangzhenyu/potential_scad_32_flow//YTHDC2/2024-12-06-03-22-00/
     RDKit          3D

 19 20  0  0  1  0  0  0  0  0999 V2000
    1.1787   -8.0297    3.5154 O   0  0  0  0  0  0  0  0  0  0  0  0
    0.9969   -8.9689    3.0048 C   0  0  0  0  0  0  0  0  0  0  0  0
    1.3055  -10.1056    3.6616 C   0  0  0  0  0  0  0  0  0  0  0  0
    1.1249  -11.3503    3.0941 C   0  0  0  0  0  0  0  0  0  0  0  0
    0.6932  -11.4484    1.8586 C   0  0  0  0  0  0  0  0  0  0  0  0
    0.5498  -10.3736    1.0579 C   0  0  0  0  0  0  0  0  0  0  0  0
    0.3509  -10.4923   -0.3150 C   0  0  0  0  0  0  0  0  0  0  0  0
    0.7896   -9.1534    1.6149 C   0  0  0  0  0  0  0  0  0  0  0  0
   -0.7753   -9.7201   -0.6938 O   0  0  0  0  0  0  0  0  0  0  0  0
    0.8755   -7.9385    0.9158 C   0  0  0  0  0  0  0  0  0  0  0  0
    2.0223   -7.8339    0.0429 O   0  0  0  0  0  0  0  0  0  0  0  0
    0.1088   -6.9552    1.0430 O   0  0  0  0  0  0  0  0  0  0  0  0
    1.1871  -12.6248    3.7995 C   0  0  0  0  0  0  0  0  0  0  0  0
    1.4556  -13.7417    2.9775 C   0  0  1  0  0  0  0  0  0  0  0  0
    2.5257  -14.1294    2.5191 C   0  0  0  0  0  0  0  0  0  0  0  0
    2.5638  -15.4437    1.8878 C   0  0  0  0  0  0  0  0  0  0  0  0
    1.5367  -16.1920    1.9393 N   0  0  0  0  0  0  0  0  0  0  0  0
    0.7044  -15.0824    2.6717 C   0  0  0  0  0  0  0  0  0  0  0  0
    1.0302  -17.3572    1.7722 C   0  0  0  0  0  0  0  0  0  0  0  0
  1  2  1  0
  6  7  1  0
  7  9  1  0
  8 10  1  0
 10 11  2  0
 10 12  1  0
  4 13  1  0
 14 13  1  1
 14 15  1  0
 15 16  2  0
 16 17  1  0
 14 18  1  0
 17 18  1  0
 17 19  1  0
  2  3  2  0
  3  4  1  0
  4  5  2  0
  5  6  1  0
  6  8  2  0
  2  8  1  0
M  END

$$$$
No_3931-/export/home/yangzhenyu/potential_scad_32_flow//YTHDC2/2024-12-06-03-22-00/
     RDKit          3D

 20 21  0  0  0  0  0  0  0  0999 V2000
    1.1787   -8.0297    3.5154 C   0  0  0  0  0  0  0  0  0  0  0  0
    1.1048   -9.2215    3.2892 C   0  0  0  0  0  0  0  0  0  0  0  0
    1.3627  -10.1721    4.3044 C   0  0  0  0  0  0  0  0  0  0  0  0
    1.0682  -11.5187    4.0618 C   0  0  0  0  0  0  0  0  0  0  0  0
    0.6332  -11.9655    2.9682 C   0  0  0  0  0  0  0  0  0  0  0  0
    0.4776  -11.1308    1.9203 C   0  0  0  0  0  0  0  0  0  0  0  0
    0.7470   -9.8274    2.0368 C   0  0  0  0  0  0  0  0  0  0  0  0
    0.5535   -7.1314    2.6861 O   0  0  0  0  0  0  0  0  0  0  0  0
    0.3433  -13.3587    2.7316 C   0  0  0  0  0  0  0  0  0  0  0  0
    0.8275  -14.0506    1.7117 N   0  0  0  0  0  0  0  0  0  0  0  0
    0.2566  -14.8123    1.0938 C   0  0  0  0  0  0  0  0  0  0  0  0
   -0.9929  -14.5309    0.5479 C   0  0  0  0  0  0  0  0  0  0  0  0
   -1.9627  -15.2471    0.4250 C   0  0  0  0  0  0  0  0  0  0  0  0
   -1.8138  -16.6347    0.4743 C   0  0  0  0  0  0  0  0  0  0  0  0
   -0.6343  -17.0890    1.0572 C   0  0  0  0  0  0  0  0  0  0  0  0
    0.3968  -16.2323    1.3357 C   0  0  0  0  0  0  0  0  0  0  0  0
    1.6121  -16.6618    1.8861 C   0  0  0  0  0  0  0  0  0  0  0  0
    1.8750  -17.9680    2.3359 Cl  0  0  0  0  0  0  0  0  0  0  0  0
    2.8368  -15.8822    1.7152 O   0  0  0  0  0  0  0  0  0  0  0  0
    0.7403   -8.9359    0.9700 C   0  0  0  0  0  0  0  0  0  0  0  0
  1  2  1  0
  1  8  2  0
  5  9  1  0
  9 10  1  0
 10 11  1  0
 16 17  1  0
 17 18  1  0
 17 19  2  0
  7 20  1  0
 11 12  2  0
 12 13  1  0
 13 14  2  0
 14 15  1  0
 15 16  2  0
 11 16  1  0
  2  3  2  0
  3  4  1  0
  4  5  2  0
  5  6  1  0
  6  7  2  0
  2  7  1  0
M  END

$$$$
No_3932-/export/home/yangzhenyu/potential_scad_32_flow//YTHDC2/2024-12-06-03-22-00/
     RDKit          3D

 18 18  0  0  1  0  0  0  0  0999 V2000
    1.1787   -8.0297    3.5154 C   0  0  0  0  0  0  0  0  0  0  0  0
    1.0491   -6.8434    2.9820 C   0  0  0  0  0  0  0  0  0  0  0  0
    0.9905   -9.0774    2.6527 C   0  0  0  0  0  0  0  0  0  0  0  0
    0.7897   -8.9519    1.3691 C   0  0  0  0  0  0  0  0  0  0  0  0
    0.7018   -7.7198    0.7892 C   0  0  0  0  0  0  0  0  0  0  0  0
    0.8918   -6.5957    1.6117 C   0  0  0  0  0  0  0  0  0  0  0  0
    1.0774  -10.6059    3.3145 C   0  0  2  0  0  0  0  0  0  0  0  0
    2.1444  -11.0408    3.6446 C   0  0  0  0  0  0  0  0  0  0  0  0
    0.3723  -11.5410    2.4414 C   0  0  0  0  0  0  0  0  0  0  0  0
    1.0464  -12.4667    1.9545 C   0  0  0  0  0  0  0  0  0  0  0  0
    0.3326  -13.5351    1.2080 Cl  0  0  0  0  0  0  0  0  0  0  0  0
    2.4652  -11.7271    4.3158 C   0  0  0  0  0  0  0  0  0  0  0  0
    0.7722   -5.2617    1.1055 O   0  0  0  0  0  0  0  0  0  0  0  0
    0.3756   -4.1980    1.8301 C   0  0  0  0  0  0  0  0  0  0  0  0
   -1.0452  -11.4014    2.4151 C   0  0  0  0  0  0  0  0  0  0  0  0
   -1.7080  -11.1164    3.7674 O   0  0  0  0  0  0  0  0  0  0  0  0
   -2.0772   -9.8475    4.0522 C   0  0  0  0  0  0  0  0  0  0  0  0
   -3.0920   -9.6979    4.6468 C   0  0  0  0  0  0  0  0  0  0  0  0
  3  7  1  0
  7  8  1  6
  7  9  1  0
  9 10  2  3
 10 11  1  0
  8 12  2  0
  6 13  1  0
 13 14  1  0
  9 15  1  0
 15 16  1  0
 16 17  1  0
 17 18  1  0
  1  2  2  0
  2  6  1  0
  5  6  2  0
  4  5  1  0
  3  4  2  0
  1  3  1  0
M  END

$$$$
No_3933-/export/home/yangzhenyu/potential_scad_32_flow//YTHDC2/2024-12-06-03-22-00/
     RDKit          3D

 19 19  0  0  0  0  0  0  0  0999 V2000
    1.1787   -8.0297    3.5154 N   0  0  0  0  0  0  0  0  0  0  0  0
    1.0818   -9.0751    3.2053 C   0  0  0  0  0  0  0  0  0  0  0  0
    0.7576   -9.3725    1.9159 C   0  0  0  0  0  0  0  0  0  0  0  0
    0.8823   -8.4917    1.0547 N   0  0  0  0  0  0  0  0  0  0  0  0
    1.5737   -7.4032    1.2964 C   0  0  0  0  0  0  0  0  0  0  0  0
    1.6798   -6.9493    2.5476 C   0  0  0  0  0  0  0  0  0  0  0  0
    0.7739  -10.1788    4.1967 C   0  0  0  0  0  0  0  0  0  0  0  0
    1.6768  -11.2274    4.1128 C   0  0  0  0  0  0  0  0  0  0  0  0
    1.1104  -12.4076    3.6576 C   0  0  0  0  0  0  0  0  0  0  0  0
   -0.1846  -12.5077    3.3965 C   0  0  0  0  0  0  0  0  0  0  0  0
    1.8936  -13.4650    3.4373 C   0  0  0  0  0  0  0  0  0  0  0  0
    1.5658  -14.2602    2.2300 C   0  0  0  0  0  0  0  0  0  0  0  0
    2.2993  -15.4355    1.9311 C   0  0  0  0  0  0  0  0  0  0  0  0
    1.9266  -16.5409    2.5443 C   0  0  0  0  0  0  0  0  0  0  0  0
    2.7209  -17.7933    2.5289 O   0  0  0  0  0  0  0  0  0  0  0  0
    0.6919  -16.7606    2.9175 O   0  0  0  0  0  0  0  0  0  0  0  0
    1.8276   -5.6121    2.9540 C   0  0  0  0  0  0  0  0  0  0  0  0
    1.4847   -4.5634    2.1773 N   0  0  0  0  0  0  0  0  0  0  0  0
    1.7843   -3.3709    2.3931 O   0  0  0  0  0  0  0  0  0  0  0  0
  2  7  1  0
  7  8  1  0
  8  9  1  0
  9 10  1  0
  9 11  1  0
 11 12  1  0
 12 13  1  0
 13 14  1  0
 14 15  1  0
 14 16  2  0
  6 17  1  0
 17 18  1  0
 18 19  2  0
  1  2  2  0
  2  3  1  0
  3  4  2  0
  4  5  1  0
  5  6  2  0
  1  6  1  0
M  END

$$$$
No_3934-/export/home/yangzhenyu/potential_scad_32_flow//YTHDC2/2024-12-06-03-22-00/
     RDKit          3D

 18 19  0  0  0  0  0  0  0  0999 V2000
    1.1787   -8.0297    3.5154 C   0  0  0  0  0  0  0  0  0  0  0  0
    1.0491   -6.8434    2.9820 C   0  0  0  0  0  0  0  0  0  0  0  0
    0.0950   -8.8404    3.2292 C   0  0  0  0  0  0  0  0  0  0  0  0
   -0.9173   -8.4596    2.5152 C   0  0  0  0  0  0  0  0  0  0  0  0
   -1.0331   -7.2162    2.0653 C   0  0  0  0  0  0  0  0  0  0  0  0
   -0.0105   -6.3168    2.3081 C   0  0  0  0  0  0  0  0  0  0  0  0
    0.1150   -4.9910    1.8495 C   0  0  0  0  0  0  0  0  0  0  0  0
   -0.5774   -4.1593    2.0596 N   0  0  0  0  0  0  0  0  0  0  0  0
    0.1680  -10.2877    3.7012 C   0  0  0  0  0  0  0  0  0  0  0  0
    1.2049  -10.9428    4.1094 C   0  0  0  0  0  0  0  0  0  0  0  0
    1.0857  -12.3200    4.3684 C   0  0  0  0  0  0  0  0  0  0  0  0
    1.1071  -13.0908    3.1593 C   0  0  0  0  0  0  0  0  0  0  0  0
    0.5494  -13.0191    2.2753 C   0  0  0  0  0  0  0  0  0  0  0  0
    0.3227  -13.6417    1.5068 C   0  0  0  0  0  0  0  0  0  0  0  0
   -0.3953  -13.3236    0.2439 C   0  0  0  0  0  0  0  0  0  0  0  0
   -0.6399  -12.0058    0.1408 C   0  0  0  0  0  0  0  0  0  0  0  0
   -0.3502  -11.0465    0.9657 C   0  0  0  0  0  0  0  0  0  0  0  0
    0.2855  -11.4098    2.1344 C   0  0  0  0  0  0  0  0  0  0  0  0
  6  7  1  0
  7  8  1  0
  3  9  1  0
  9 10  2  3
 10 11  1  0
 11 12  2  3
 12 13  1  0
 13 14  2  0
 14 15  1  0
 15 16  2  0
 16 17  1  0
 17 18  2  0
 13 18  1  0
  1  2  2  0
  2  6  1  0
  5  6  2  0
  4  5  1  0
  3  4  2  0
  1  3  1  0
M  END

$$$$
No_3935-/export/home/yangzhenyu/potential_scad_32_flow//YTHDC2/2024-12-06-03-22-00/
     RDKit          3D

 19 20  0  0  1  0  0  0  0  0999 V2000
    1.1787   -8.0297    3.5154 C   0  0  0  0  0  0  0  0  0  0  0  0
    1.1048   -9.2215    3.2892 C   0  0  0  0  0  0  0  0  0  0  0  0
    1.2339   -9.7611    2.0189 C   0  0  0  0  0  0  0  0  0  0  0  0
    1.3583   -9.0036    0.9764 C   0  0  0  0  0  0  0  0  0  0  0  0
    1.5996   -7.6362    1.1311 C   0  0  0  0  0  0  0  0  0  0  0  0
    1.4830   -7.0928    2.3626 C   0  0  0  0  0  0  0  0  0  0  0  0
    1.5395   -5.7300    2.6182 C   0  0  0  0  0  0  0  0  0  0  0  0
    1.1775  -11.2233    1.8407 C   0  0  0  0  0  0  0  0  0  0  0  0
    0.5085  -11.9762    2.1989 C   0  0  0  0  0  0  0  0  0  0  0  0
    0.4247  -13.3704    2.0465 C   0  0  1  0  0  0  0  0  0  0  0  0
    1.6054  -14.1557    2.4664 C   0  0  0  0  0  0  0  0  0  0  0  0
    1.8317  -15.3638    2.3262 N   0  0  0  0  0  0  0  0  0  0  0  0
    0.9406  -16.2477    2.2596 C   0  0  1  0  0  0  0  0  0  0  0  0
   -0.3047  -15.8028    1.8981 C   0  0  0  0  0  0  0  0  0  0  0  0
   -0.5334  -14.4556    1.8636 C   0  0  0  0  0  0  0  0  0  0  0  0
   -1.8433  -14.0788    1.7195 O   0  0  0  0  0  0  0  0  0  0  0  0
    1.2969   -4.7978    1.6889 O   0  0  0  0  0  0  0  0  0  0  0  0
    1.5103   -5.1722    3.9121 O   0  0  0  0  0  0  0  0  0  0  0  0
    1.2984  -17.6891    2.2636 Br  0  0  0  0  0  0  0  0  0  0  0  0
  6  7  1  0
  3  8  1  0
  8  9  2  3
  9 10  1  0
 10 11  1  1
 11 12  1  0
 13 14  1  0
 10 15  1  0
 14 15  1  0
 15 16  2  0
  7 17  2  0
  7 18  1  0
 13 19  1  6
 12 13  1  0
  1  2  2  0
  2  3  1  0
  3  4  2  0
  4  5  1  0
  5  6  2  0
  1  6  1  0
M  END

$$$$
No_3936-/export/home/yangzhenyu/potential_scad_32_flow//YTHDC2/2024-12-06-03-22-00/
     RDKit          3D

 18 19  0  0  1  0  0  0  0  0999 V2000
    1.1787   -8.0297    3.5154 C   0  0  0  0  0  0  0  0  0  0  0  0
    1.1048   -9.2215    3.2892 C   0  0  0  0  0  0  0  0  0  0  0  0
    1.2339   -9.7611    2.0189 C   0  0  0  0  0  0  0  0  0  0  0  0
    1.3583   -9.0036    0.9764 C   0  0  0  0  0  0  0  0  0  0  0  0
    1.5996   -7.6362    1.1311 C   0  0  0  0  0  0  0  0  0  0  0  0
    1.4830   -7.0928    2.3626 C   0  0  0  0  0  0  0  0  0  0  0  0
    1.1171  -11.3311    1.8661 C   0  0  1  0  0  0  0  0  0  0  0  0
    1.9975  -12.1095    2.2478 C   0  0  0  0  0  0  0  0  0  0  0  0
    1.5366  -13.3685    2.6024 C   0  0  0  0  0  0  0  0  0  0  0  0
    0.4103  -13.4689    3.3960 C   0  0  0  0  0  0  0  0  0  0  0  0
   -0.5551  -12.7716    2.8196 C   0  0  1  0  0  0  0  0  0  0  0  0
   -0.2109  -11.3858    2.2948 C   0  0  0  0  0  0  0  0  0  0  0  0
    1.5410   -5.6726    2.6331 Cl  0  0  0  0  0  0  0  0  0  0  0  0
   -1.6188  -13.4574    2.3905 N   0  0  0  0  0  0  0  0  0  0  0  0
   -1.5951  -14.7472    2.1921 C   0  0  0  0  0  0  0  0  0  0  0  0
   -0.7349  -15.3988    1.9564 C   0  0  0  0  0  0  0  0  0  0  0  0
   -0.7533  -16.9071    2.0523 C   0  0  0  0  0  0  0  0  0  0  0  0
   -1.9292  -17.4410    2.1414 C   0  0  0  0  0  0  0  0  0  0  0  0
  7  3  1  1
  7  8  1  0
  8  9  1  0
  9 10  1  0
 10 11  1  0
  7 12  1  0
 11 12  1  0
  6 13  1  0
 11 14  1  6
 14 15  1  0
 15 16  2  3
 16 17  1  0
 17 18  2  0
  1  2  2  0
  2  3  1  0
  3  4  2  0
  4  5  1  0
  5  6  2  0
  1  6  1  0
M  END

$$$$
No_3937-/export/home/yangzhenyu/potential_scad_32_flow//YTHDC2/2024-12-06-03-22-00/
     RDKit          3D

 19 20  0  0  1  0  0  0  0  0999 V2000
    1.1787   -8.0297    3.5154 C   0  0  0  0  0  0  0  0  0  0  0  0
    1.0491   -6.8434    2.9820 C   0  0  0  0  0  0  0  0  0  0  0  0
    0.0950   -8.8404    3.2292 C   0  0  0  0  0  0  0  0  0  0  0  0
    0.0602  -10.1764    3.8231 C   0  0  0  0  0  0  0  0  0  0  0  0
    0.2248   -6.3830    2.0648 C   0  0  2  0  0  0  0  0  0  0  0  0
   -0.6745   -7.2322    1.6857 C   0  0  0  0  0  0  0  0  0  0  0  0
   -0.7374   -8.4992    2.1291 C   0  0  0  0  0  0  0  0  0  0  0  0
   -1.2516  -10.6630    3.9829 C   0  0  0  0  0  0  0  0  0  0  0  0
   -2.1886  -10.3242    3.0488 C   0  0  0  0  0  0  0  0  0  0  0  0
   -3.4652  -10.8914    3.1817 C   0  0  0  0  0  0  0  0  0  0  0  0
   -1.8882   -9.4688    2.1583 C   0  0  0  0  0  0  0  0  0  0  0  0
   -1.6448   -6.8520    0.7235 O   0  0  0  0  0  0  0  0  0  0  0  0
   -3.5552  -12.2365    3.1026 C   0  0  1  0  0  0  0  0  0  0  0  0
   -2.7480  -13.1237    2.6526 C   0  0  0  0  0  0  0  0  0  0  0  0
   -4.2069  -12.8055    4.4420 C   0  0  0  0  0  0  0  0  0  0  0  0
    0.1886   -5.1906    1.3751 C   0  0  0  0  0  0  0  0  0  0  0  0
   -0.1795   -4.6632    0.5318 C   0  0  0  0  0  0  0  0  0  0  0  0
    1.1082   -4.1092    2.2612 C   0  0  0  0  0  0  0  0  0  0  0  0
   -2.8743  -14.4861    2.7252 C   0  0  0  0  0  0  0  0  0  0  0  0
  1  2  1  0
  5  6  1  0
  6  7  1  0
  9 10  1  0
  6 12  2  0
 10 13  1  0
 13 14  1  0
 13 15  1  1
  5 16  1  6
 16 17  1  0
 16 18  1  0
 14 19  2  0
  2  5  1  0
  1  3  1  0
  3  4  2  0
  4  8  1  0
  8  9  2  0
  9 11  1  0
  7 11  2  0
  3  7  1  0
M  END

$$$$
No_3938-/export/home/yangzhenyu/potential_scad_32_flow//YTHDC2/2024-12-06-03-22-00/
     RDKit          3D

 17 18  0  0  1  0  0  0  0  0999 V2000
    1.1787   -8.0297    3.5154 C   0  0  0  0  0  0  0  0  0  0  0  0
    1.0491   -6.8434    2.9820 C   0  0  1  0  0  0  0  0  0  0  0  0
    1.9985   -8.9840    2.8958 C   0  0  0  0  0  0  0  0  0  0  0  0
    1.9135  -10.3404    3.6266 C   0  0  0  0  0  0  0  0  0  0  0  0
    0.7479  -10.9191    3.7202 C   0  0  0  0  0  0  0  0  0  0  0  0
    1.8085   -5.7988    3.2380 S   0  0  0  0  0  0  0  0  0  0  0  0
    0.6942  -12.3152    3.5409 C   0  0  0  0  0  0  0  0  0  0  0  0
   -0.2150  -12.7936    2.6514 C   0  0  0  0  0  0  0  0  0  0  0  0
   -1.1990  -12.0130    2.2527 C   0  0  0  0  0  0  0  0  0  0  0  0
   -1.2502  -10.7126    2.5967 C   0  0  0  0  0  0  0  0  0  0  0  0
   -0.3198  -10.1455    3.3643 C   0  0  0  0  0  0  0  0  0  0  0  0
    1.1595   -4.6295    2.2346 C   0  0  0  0  0  0  0  0  0  0  0  0
    0.3383   -5.3704    1.3593 C   0  0  0  0  0  0  0  0  0  0  0  0
    0.2704   -6.6580    1.7218 C   0  0  2  0  0  0  0  0  0  0  0  0
   -0.5174   -7.4848    1.0749 C   0  0  0  0  0  0  0  0  0  0  0  0
   -0.1347  -14.1303    2.2870 C   0  0  0  0  0  0  0  0  0  0  0  0
    0.9979  -14.9163    2.7288 Cl  0  0  0  0  0  0  0  0  0  0  0  0
  2  1  1  6
  1  3  1  0
  3  4  1  0
  4  5  1  0
  2  6  1  0
  6 12  1  0
 12 13  2  0
  2 14  1  0
 13 14  1  0
 14 15  1  1
  8 16  1  0
 16 17  1  0
  5  7  2  0
  7  8  1  0
  8  9  2  0
  9 10  1  0
 10 11  2  0
  5 11  1  0
M  END

$$$$
No_3939-/export/home/yangzhenyu/potential_scad_32_flow//YTHDC2/2024-12-06-03-22-00/
     RDKit          3D

 20 22  0  0  0  0  0  0  0  0999 V2000
    1.1787   -8.0297    3.5154 C   0  0  0  0  0  0  0  0  0  0  0  0
    1.1048   -9.2215    3.2892 C   0  0  0  0  0  0  0  0  0  0  0  0
    1.2339   -9.7611    2.0189 C   0  0  0  0  0  0  0  0  0  0  0  0
    1.3583   -9.0036    0.9764 C   0  0  0  0  0  0  0  0  0  0  0  0
    1.5996   -7.6362    1.1311 C   0  0  0  0  0  0  0  0  0  0  0  0
    1.4830   -7.0928    2.3626 C   0  0  0  0  0  0  0  0  0  0  0  0
    1.5395   -5.7300    2.6182 C   0  0  0  0  0  0  0  0  0  0  0  0
    1.1775  -11.2233    1.8407 C   0  0  0  0  0  0  0  0  0  0  0  0
    1.9057  -12.1147    2.3397 C   0  0  0  0  0  0  0  0  0  0  0  0
    1.2923  -13.3224    2.7485 C   0  0  0  0  0  0  0  0  0  0  0  0
    0.1394  -13.7108    2.4017 C   0  0  0  0  0  0  0  0  0  0  0  0
   -0.6797  -12.8082    1.7671 C   0  0  0  0  0  0  0  0  0  0  0  0
   -0.1270  -11.5412    1.3335 C   0  0  0  0  0  0  0  0  0  0  0  0
   -0.3547  -14.9843    2.6284 C   0  0  0  0  0  0  0  0  0  0  0  0
    0.4515  -15.9349    3.2537 C   0  0  0  0  0  0  0  0  0  0  0  0
    0.1209  -17.2489    3.5389 N   0  0  0  0  0  0  0  0  0  0  0  0
   -1.1548  -17.3498    3.1761 C   0  0  0  0  0  0  0  0  0  0  0  0
   -1.9596  -16.6841    2.6590 N   0  0  0  0  0  0  0  0  0  0  0  0
   -1.5579  -15.4499    2.2905 C   0  0  0  0  0  0  0  0  0  0  0  0
    1.6580   -5.1810    3.8762 O   0  0  0  0  0  0  0  0  0  0  0  0
  6  7  1  0
  3  8  1  0
 11 14  1  0
  7 20  1  0
  1  2  2  0
  2  3  1  0
  3  4  2  0
  4  5  1  0
  5  6  2  0
  1  6  1  0
  8  9  2  0
  9 10  1  0
 10 11  2  0
 11 12  1  0
 12 13  2  0
  8 13  1  0
 14 15  2  0
 15 16  1  0
 16 17  2  0
 17 18  1  0
 18 19  2  0
 14 19  1  0
M  END

$$$$
No_3940-/export/home/yangzhenyu/potential_scad_32_flow//YTHDC2/2024-12-06-03-22-00/
     RDKit          3D

 18 19  0  0  1  0  0  0  0  0999 V2000
    1.1787   -8.0297    3.5154 C   0  0  0  0  0  0  0  0  0  0  0  0
    1.0491   -6.8434    2.9820 C   0  0  0  0  0  0  0  0  0  0  0  0
    0.0950   -8.8404    3.2292 C   0  0  0  0  0  0  0  0  0  0  0  0
   -0.9173   -8.4596    2.5152 C   0  0  0  0  0  0  0  0  0  0  0  0
   -1.0331   -7.2162    2.0653 C   0  0  0  0  0  0  0  0  0  0  0  0
   -0.0105   -6.3168    2.3081 C   0  0  0  0  0  0  0  0  0  0  0  0
    0.1465  -10.2446    3.6981 C   0  0  0  0  0  0  0  0  0  0  0  0
    1.2433  -10.8239    4.0166 C   0  0  0  0  0  0  0  0  0  0  0  0
    1.0790  -12.2885    4.3779 N   0  0  0  0  0  0  0  0  0  0  0  0
    0.6753  -12.8866    3.3340 C   0  0  0  0  0  0  0  0  0  0  0  0
   -0.3699  -12.3733    2.6799 C   0  0  0  0  0  0  0  0  0  0  0  0
   -0.5890  -11.0358    2.7433 C   0  0  0  0  0  0  0  0  0  0  0  0
    0.8295  -14.3365    3.4594 C   0  0  0  0  0  0  0  0  0  0  0  0
    1.8587  -14.7633    2.4528 C   0  0  1  0  0  0  0  0  0  0  0  0
   -0.1477   -5.0139    1.8641 Cl  0  0  0  0  0  0  0  0  0  0  0  0
    2.4005  -13.9111    1.5870 C   0  0  0  0  0  0  0  0  0  0  0  0
    2.3991  -16.0736    2.5937 C   0  0  0  0  0  0  0  0  0  0  0  0
    1.9762  -17.0897    2.2406 O   0  0  0  0  0  0  0  0  0  0  0  0
  3  7  1  0
 10 13  1  0
 13 14  1  0
  6 15  1  0
 14 16  1  1
 14 17  1  0
 17 18  2  0
  1  2  2  0
  2  6  1  0
  5  6  2  0
  4  5  1  0
  3  4  2  0
  1  3  1  0
  7  8  2  0
  8  9  1  0
  9 10  2  0
 10 11  1  0
 11 12  2  0
  7 12  1  0
M  END

$$$$
No_3941-/export/home/yangzhenyu/potential_scad_32_flow//YTHDC2/2024-12-06-03-22-00/
     RDKit          3D

 18 20  0  0  0  0  0  0  0  0999 V2000
    1.1787   -8.0297    3.5154 C   0  0  0  0  0  0  0  0  0  0  0  0
    1.1048   -9.2215    3.2892 N   0  0  0  0  0  0  0  0  0  0  0  0
    1.0346   -9.7785    2.1176 C   0  0  0  0  0  0  0  0  0  0  0  0
    1.2597   -9.0826    1.0431 C   0  0  0  0  0  0  0  0  0  0  0  0
    1.5530   -7.7656    1.0977 C   0  0  0  0  0  0  0  0  0  0  0  0
    1.5300   -7.1323    2.3379 C   0  0  0  0  0  0  0  0  0  0  0  0
    0.8242  -11.2361    2.0332 C   0  0  0  0  0  0  0  0  0  0  0  0
    1.8435  -12.0374    2.2086 C   0  0  0  0  0  0  0  0  0  0  0  0
    1.5808  -13.3821    2.4067 C   0  0  0  0  0  0  0  0  0  0  0  0
    0.3933  -13.8855    2.0947 C   0  0  0  0  0  0  0  0  0  0  0  0
   -0.7210  -13.0986    1.9488 C   0  0  0  0  0  0  0  0  0  0  0  0
   -0.4983  -11.7087    1.9679 C   0  0  0  0  0  0  0  0  0  0  0  0
    0.1454  -15.2967    2.2560 C   0  0  0  0  0  0  0  0  0  0  0  0
    0.7476  -16.0464    3.2544 C   0  0  0  0  0  0  0  0  0  0  0  0
    0.8780  -17.2545    3.3295 C   0  0  0  0  0  0  0  0  0  0  0  0
    0.2937  -18.0982    2.3896 C   0  0  0  0  0  0  0  0  0  0  0  0
   -0.3319  -17.5455    1.3793 C   0  0  0  0  0  0  0  0  0  0  0  0
   -0.4198  -16.1628    1.3055 C   0  0  0  0  0  0  0  0  0  0  0  0
  3  7  1  0
 10 13  1  0
  1  2  2  0
  2  3  1  0
  3  4  2  0
  4  5  1  0
  5  6  2  0
  1  6  1  0
 13 14  2  0
 14 15  1  0
 15 16  2  0
 16 17  1  0
 17 18  2  0
 13 18  1  0
  7  8  2  0
  8  9  1  0
  9 10  2  0
 10 11  1  0
 11 12  2  0
  7 12  1  0
M  END

$$$$
No_3942-/export/home/yangzhenyu/potential_scad_32_flow//YTHDC2/2024-12-06-03-22-00/
     RDKit          3D

 19 19  0  0  1  0  0  0  0  0999 V2000
    1.1787   -8.0297    3.5154 C   0  0  0  0  0  0  0  0  0  0  0  0
    1.0491   -6.8434    2.9820 C   0  0  1  0  0  0  0  0  0  0  0  0
    1.9985   -8.9840    2.8958 C   0  0  0  0  0  0  0  0  0  0  0  0
    1.9135  -10.3404    3.6266 C   0  0  0  0  0  0  0  0  0  0  0  0
    1.3291  -11.3908    3.0222 C   0  0  2  0  0  0  0  0  0  0  0  0
    1.2749  -12.5326    3.7562 C   0  0  0  0  0  0  0  0  0  0  0  0
    1.8025   -5.7637    3.3237 C   0  0  0  0  0  0  0  0  0  0  0  0
    0.6991  -13.6717    3.1451 C   0  0  0  0  0  0  0  0  0  0  0  0
    0.4281  -13.6449    1.8407 C   0  0  0  0  0  0  0  0  0  0  0  0
    0.6918  -12.5891    1.0577 C   0  0  0  0  0  0  0  0  0  0  0  0
    1.1654  -11.4578    1.6134 C   0  0  0  0  0  0  0  0  0  0  0  0
    1.2245  -10.3775    0.7506 O   0  0  0  0  0  0  0  0  0  0  0  0
    1.4838   -4.5508    2.6749 C   0  0  0  0  0  0  0  0  0  0  0  0
    1.0599   -3.5001    3.1850 C   0  0  0  0  0  0  0  0  0  0  0  0
    0.2357   -6.6676    1.8773 C   0  0  0  0  0  0  0  0  0  0  0  0
   -1.1189   -6.9914    1.9380 O   0  0  0  0  0  0  0  0  0  0  0  0
    0.6591   -6.8485    0.6224 O   0  0  0  0  0  0  0  0  0  0  0  0
    1.6936   -2.7108    4.0480 C   0  0  0  0  0  0  0  0  0  0  0  0
    0.8914   -1.6900    4.6610 C   0  0  0  0  0  0  0  0  0  0  0  0
  2  1  1  6
  1  3  1  0
  3  4  1  0
  5  4  1  6
  5  6  1  0
  2  7  1  0
  8  9  1  0
  5 11  1  0
 10 11  1  0
 11 12  2  0
  7 13  1  0
 13 14  1  0
  2 15  1  0
 15 16  2  0
 15 17  1  0
 14 18  2  3
 18 19  1  0
  6  8  1  0
  9 10  1  0
M  END

$$$$
No_3943-/export/home/yangzhenyu/potential_scad_32_flow//YTHDC2/2024-12-06-03-22-00/
     RDKit          3D

 18 19  0  0  1  0  0  0  0  0999 V2000
    1.1787   -8.0297    3.5154 C   0  0  0  0  0  0  0  0  0  0  0  0
    1.0491   -6.8434    2.9820 C   0  0  0  0  0  0  0  0  0  0  0  0
    0.9905   -9.0774    2.6527 C   0  0  1  0  0  0  0  0  0  0  0  0
    0.7897   -8.9519    1.3691 C   0  0  0  0  0  0  0  0  0  0  0  0
    0.7018   -7.7198    0.7892 C   0  0  0  0  0  0  0  0  0  0  0  0
    0.8918   -6.5957    1.6117 C   0  0  0  0  0  0  0  0  0  0  0  0
    1.0998  -10.4710    3.2437 Cl  0  0  0  0  0  0  0  0  0  0  0  0
    0.8848   -5.2618    1.2216 O   0  0  0  0  0  0  0  0  0  0  0  0
    0.6493  -10.0285    0.4254 C   0  0  0  0  0  0  0  0  0  0  0  0
   -0.3527  -10.0759   -0.2821 C   0  0  0  0  0  0  0  0  0  0  0  0
   -1.4933  -10.3047   -0.1896 C   0  0  0  0  0  0  0  0  0  0  0  0
   -2.0339  -10.9912    0.8260 C   0  0  0  0  0  0  0  0  0  0  0  0
   -3.3609  -11.0650    1.1259 C   0  0  0  0  0  0  0  0  0  0  0  0
   -4.2079  -10.6089    0.1916 N   0  0  0  0  0  0  0  0  0  0  0  0
   -2.5268   -9.7023   -1.0731 C   0  0  0  0  0  0  0  0  0  0  0  0
   -3.8159   -9.9271   -0.8385 C   0  0  0  0  0  0  0  0  0  0  0  0
   -4.7454   -9.2474   -1.5691 C   0  0  0  0  0  0  0  0  0  0  0  0
   -2.0235   -8.9719   -2.1536 C   0  0  0  0  0  0  0  0  0  0  0  0
  1  2  1  0
  3  4  1  0
  2  6  1  0
  5  6  1  0
  3  7  1  6
  6  8  2  0
  4  9  1  0
  9 10  2  3
 10 11  1  0
 16 17  1  0
 15 18  1  0
  1  3  1  0
  4  5  1  0
 11 12  2  0
 12 13  1  0
 13 14  2  0
 14 16  1  0
 15 16  2  0
 11 15  1  0
M  END

$$$$
No_3944-/export/home/yangzhenyu/potential_scad_32_flow//YTHDC2/2024-12-06-03-22-00/
     RDKit          3D

 19 20  0  0  0  0  0  0  0  0999 V2000
    1.1787   -8.0297    3.5154 C   0  0  0  0  0  0  0  0  0  0  0  0
    1.1048   -9.2215    3.2892 C   0  0  0  0  0  0  0  0  0  0  0  0
    1.2339   -9.7611    2.0189 C   0  0  0  0  0  0  0  0  0  0  0  0
    1.3583   -9.0036    0.9764 C   0  0  0  0  0  0  0  0  0  0  0  0
    1.5996   -7.6362    1.1311 C   0  0  0  0  0  0  0  0  0  0  0  0
    1.4830   -7.0928    2.3626 C   0  0  0  0  0  0  0  0  0  0  0  0
    1.4898   -5.7274    2.6199 C   0  0  0  0  0  0  0  0  0  0  0  0
    1.1681  -11.2222    1.8390 C   0  0  0  0  0  0  0  0  0  0  0  0
    1.9047  -12.1147    2.3357 C   0  0  0  0  0  0  0  0  0  0  0  0
    1.6844  -13.4555    2.0602 C   0  0  0  0  0  0  0  0  0  0  0  0
    0.6977  -13.8514    1.3046 C   0  0  0  0  0  0  0  0  0  0  0  0
   -0.1168  -12.9151    0.6554 C   0  0  0  0  0  0  0  0  0  0  0  0
    0.1481  -11.5441    0.9254 C   0  0  0  0  0  0  0  0  0  0  0  0
    1.6975   -5.1712    3.8653 C   0  0  0  0  0  0  0  0  0  0  0  0
    1.3212   -4.8560    1.5459 O   0  0  0  0  0  0  0  0  0  0  0  0
   -0.7447  -10.6820    0.3563 C   0  0  0  0  0  0  0  0  0  0  0  0
   -1.8758  -10.3116    1.0270 N   0  0  0  0  0  0  0  0  0  0  0  0
   -2.8755  -10.0845    0.4915 C   0  0  0  0  0  0  0  0  0  0  0  0
   -2.8918   -9.8751   -0.8555 C   0  0  0  0  0  0  0  0  0  0  0  0
  6  7  1  0
  3  8  1  0
  7 14  1  0
  7 15  2  0
 13 16  1  0
 16 17  1  0
 17 18  2  3
 18 19  1  0
  1  2  2  0
  2  3  1  0
  3  4  2  0
  4  5  1  0
  5  6  2  0
  1  6  1  0
  8  9  2  0
  9 10  1  0
 10 11  2  0
 11 12  1  0
 12 13  2  0
  8 13  1  0
M  END

$$$$
No_3945-/export/home/yangzhenyu/potential_scad_32_flow//YTHDC2/2024-12-06-03-22-00/
     RDKit          3D

 19 20  0  0  0  0  0  0  0  0999 V2000
    1.1787   -8.0297    3.5154 O   0  0  0  0  0  0  0  0  0  0  0  0
    0.9969   -8.9689    3.0048 C   0  0  0  0  0  0  0  0  0  0  0  0
    1.3055  -10.1056    3.6616 C   0  0  0  0  0  0  0  0  0  0  0  0
    1.1249  -11.3503    3.0941 C   0  0  0  0  0  0  0  0  0  0  0  0
    0.6932  -11.4484    1.8586 C   0  0  0  0  0  0  0  0  0  0  0  0
    0.5498  -10.3736    1.0579 C   0  0  0  0  0  0  0  0  0  0  0  0
    0.7643   -9.1185    1.6383 C   0  0  0  0  0  0  0  0  0  0  0  0
    0.5937   -7.8467    1.0482 C   0  0  0  0  0  0  0  0  0  0  0  0
   -0.4358   -7.6746    0.4159 O   0  0  0  0  0  0  0  0  0  0  0  0
    1.5404   -6.9777    0.8453 O   0  0  0  0  0  0  0  0  0  0  0  0
    1.2138  -12.8247    3.9871 C   0  0  0  0  0  0  0  0  0  0  0  0
    1.0365  -13.9247    3.2625 C   0  0  0  0  0  0  0  0  0  0  0  0
    1.4336  -14.1343    1.9638 C   0  0  0  0  0  0  0  0  0  0  0  0
    2.6883  -13.7298    1.5206 C   0  0  0  0  0  0  0  0  0  0  0  0
    0.2981  -13.7582    1.0546 C   0  0  0  0  0  0  0  0  0  0  0  0
    0.5587  -13.5608   -0.0885 C   0  0  0  0  0  0  0  0  0  0  0  0
    1.5447  -13.9545   -0.7147 C   0  0  0  0  0  0  0  0  0  0  0  0
    2.7974  -13.8468    0.0285 C   0  0  0  0  0  0  0  0  0  0  0  0
   -0.7235  -13.6397   -0.9632 S   0  0  0  0  0  0  0  0  0  0  0  0
  1  2  1  0
  7  8  1  0
  8  9  2  0
  8 10  1  0
  4 11  1  0
 11 12  2  3
 12 13  1  0
 16 19  1  0
  2  3  2  0
  3  4  1  0
  4  5  2  0
  5  6  1  0
  6  7  2  0
  2  7  1  0
 13 14  2  0
 14 18  1  0
 17 18  2  0
 16 17  1  0
 15 16  2  0
 13 15  1  0
M  END

$$$$
No_3946-/export/home/yangzhenyu/potential_scad_32_flow//YTHDC2/2024-12-06-03-22-00/
     RDKit          3D

 19 20  0  0  1  0  0  0  0  0999 V2000
    1.1787   -8.0297    3.5154 N   0  0  0  0  0  0  0  0  0  0  0  0
    1.0818   -9.0751    3.2053 C   0  0  0  0  0  0  0  0  0  0  0  0
    1.5216  -10.1164    3.9747 C   0  0  0  0  0  0  0  0  0  0  0  0
    1.4420  -11.4363    3.6461 C   0  0  0  0  0  0  0  0  0  0  0  0
    0.5969  -11.7648    2.6785 C   0  0  0  0  0  0  0  0  0  0  0  0
    0.0096  -10.8332    1.9506 C   0  0  0  0  0  0  0  0  0  0  0  0
    0.3359   -9.5186    2.1388 C   0  0  0  0  0  0  0  0  0  0  0  0
    0.8819   -6.9011    2.6487 C   0  0  2  0  0  0  0  0  0  0  0  0
    0.4076   -7.2265    1.4607 N   0  0  0  0  0  0  0  0  0  0  0  0
    0.0633   -8.4448    1.1740 C   0  0  0  0  0  0  0  0  0  0  0  0
   -0.7726   -8.6869    0.1565 O   0  0  0  0  0  0  0  0  0  0  0  0
    1.3214   -5.5511    3.0128 N   0  0  0  0  0  0  0  0  0  0  0  0
    0.3506  -13.1877    2.3956 Cl  0  0  0  0  0  0  0  0  0  0  0  0
    1.0187   -4.5385    2.2249 C   0  0  1  0  0  0  0  0  0  0  0  0
    1.2267   -3.2458    2.7459 C   0  0  0  0  0  0  0  0  0  0  0  0
    0.7833   -4.4937    0.9226 C   0  0  0  0  0  0  0  0  0  0  0  0
    0.3336   -3.2078    0.4599 C   0  0  0  0  0  0  0  0  0  0  0  0
    0.5961   -2.0444    1.0918 C   0  0  0  0  0  0  0  0  0  0  0  0
    0.3307   -0.8065    0.2737 C   0  0  0  0  0  0  0  0  0  0  0  0
  1  2  1  0
  8  9  1  0
  7 10  1  0
  9 10  1  0
 10 11  2  0
  8 12  1  6
  5 13  1  0
 12 14  1  0
 14 15  1  6
 14 16  1  0
 16 17  2  3
 17 18  1  0
 18 19  1  0
  1  8  1  0
  2  3  2  0
  3  4  1  0
  4  5  2  0
  5  6  1  0
  6  7  2  0
  2  7  1  0
M  END

$$$$
No_3947-/export/home/yangzhenyu/potential_scad_32_flow//YTHDC2/2024-12-06-03-22-00/
     RDKit          3D

 20 22  0  0  0  0  0  0  0  0999 V2000
    1.1787   -8.0297    3.5154 C   0  0  0  0  0  0  0  0  0  0  0  0
    1.0491   -6.8434    2.9820 C   0  0  0  0  0  0  0  0  0  0  0  0
    0.0950   -8.8404    3.2292 C   0  0  0  0  0  0  0  0  0  0  0  0
   -0.9173   -8.4596    2.5152 C   0  0  0  0  0  0  0  0  0  0  0  0
   -1.0331   -7.2162    2.0653 C   0  0  0  0  0  0  0  0  0  0  0  0
   -0.0105   -6.3168    2.3081 C   0  0  0  0  0  0  0  0  0  0  0  0
    0.1935  -10.3737    3.7416 C   0  0  0  0  0  0  0  0  0  0  0  0
   -0.9968  -11.0614    3.6410 C   0  0  0  0  0  0  0  0  0  0  0  0
   -2.0651  -10.5736    2.9123 C   0  0  0  0  0  0  0  0  0  0  0  0
   -2.0392   -9.2902    2.3541 C   0  0  0  0  0  0  0  0  0  0  0  0
   -0.0571   -4.9397    1.9061 C   0  0  0  0  0  0  0  0  0  0  0  0
   -0.6258   -4.0947    2.3464 C   0  0  0  0  0  0  0  0  0  0  0  0
   -0.6364   -2.7165    1.8965 C   0  0  0  0  0  0  0  0  0  0  0  0
    0.7071   -2.2746    1.5798 C   0  0  0  0  0  0  0  0  0  0  0  0
    1.5323   -3.1897    1.0086 C   0  0  0  0  0  0  0  0  0  0  0  0
    1.3516   -4.5978    1.2729 C   0  0  0  0  0  0  0  0  0  0  0  0
    1.4743  -10.7807    4.6976 C   0  0  0  0  0  0  0  0  0  0  0  0
    1.8707  -11.9742    3.9892 O   0  0  0  0  0  0  0  0  0  0  0  0
    1.9248  -10.2558    5.5105 O   0  0  0  0  0  0  0  0  0  0  0  0
   -3.1696  -11.4156    2.7373 O   0  0  0  0  0  0  0  0  0  0  0  0
  6 11  1  0
  7 17  1  0
 17 18  2  0
 17 19  1  0
  9 20  1  0
 11 12  2  0
 12 13  1  0
 13 14  2  0
 14 15  1  0
 15 16  2  0
 11 16  1  0
  4 10  2  0
  9 10  1  0
  8  9  2  0
  7  8  1  0
  3  7  2  0
  1  2  2  0
  2  6  1  0
  5  6  2  0
  4  5  1  0
  3  4  1  0
  1  3  1  0
M  END

$$$$
No_3948-/export/home/yangzhenyu/potential_scad_32_flow//YTHDC2/2024-12-06-03-22-00/
     RDKit          3D

 19 19  0  0  0  0  0  0  0  0999 V2000
    1.1787   -8.0297    3.5154 N   0  0  0  0  0  0  0  0  0  0  0  0
    0.8669   -7.0905    2.8589 C   0  0  0  0  0  0  0  0  0  0  0  0
    1.0447   -7.3244    1.4123 C   0  0  0  0  0  0  0  0  0  0  0  0
    1.3746   -8.4389    1.0864 C   0  0  0  0  0  0  0  0  0  0  0  0
    1.8493   -9.4093    1.8124 C   0  0  0  0  0  0  0  0  0  0  0  0
    1.7421   -9.2119    3.1541 C   0  0  0  0  0  0  0  0  0  0  0  0
    2.0083  -10.3048    4.0591 C   0  0  0  0  0  0  0  0  0  0  0  0
    3.0873  -10.6217    4.4304 Cl  0  0  0  0  0  0  0  0  0  0  0  0
    0.8225  -11.0793    4.4123 O   0  0  0  0  0  0  0  0  0  0  0  0
    1.6322   -8.6589   -0.4304 C   0  0  0  0  0  0  0  0  0  0  0  0
    2.7515   -8.9439   -0.9569 O   0  0  0  0  0  0  0  0  0  0  0  0
    0.6334   -8.7734   -1.2466 O   0  0  0  0  0  0  0  0  0  0  0  0
    0.4970   -5.8417    3.3131 C   0  0  0  0  0  0  0  0  0  0  0  0
   -0.6429   -5.1475    3.1297 O   0  0  0  0  0  0  0  0  0  0  0  0
    1.6368   -4.8439    3.5892 O   0  0  0  0  0  0  0  0  0  0  0  0
    2.3423  -10.6643    1.3471 C   0  0  0  0  0  0  0  0  0  0  0  0
    1.5681  -11.5225    0.6936 N   0  0  0  0  0  0  0  0  0  0  0  0
    1.5497  -12.9523    0.7719 C   0  0  0  0  0  0  0  0  0  0  0  0
    0.8126  -13.5590    1.7227 C   0  0  0  0  0  0  0  0  0  0  0  0
  6  7  1  0
  7  8  1  0
  7  9  2  0
  4 10  1  0
 10 11  2  0
 10 12  1  0
  2 13  1  0
 13 14  2  0
 13 15  1  0
  5 16  1  0
 16 17  1  0
 17 18  1  0
 18 19  1  0
  1  2  2  0
  2  3  1  0
  3  4  2  0
  4  5  1  0
  5  6  2  0
  1  6  1  0
M  END

$$$$
No_3949-/export/home/yangzhenyu/potential_scad_32_flow//YTHDC2/2024-12-06-03-22-00/
     RDKit          3D

 19 20  0  0  0  0  0  0  0  0999 V2000
    1.1787   -8.0297    3.5154 C   0  0  0  0  0  0  0  0  0  0  0  0
    1.1048   -9.2215    3.2892 C   0  0  0  0  0  0  0  0  0  0  0  0
    1.2339   -9.7611    2.0189 C   0  0  0  0  0  0  0  0  0  0  0  0
    1.4306   -8.9466    1.1170 C   0  0  0  0  0  0  0  0  0  0  0  0
    1.6532   -7.5949    1.1786 C   0  0  0  0  0  0  0  0  0  0  0  0
    1.4973   -7.0739    2.4258 C   0  0  0  0  0  0  0  0  0  0  0  0
    1.4438   -5.6890    2.7316 C   0  0  0  0  0  0  0  0  0  0  0  0
    1.2604  -11.3384    1.8135 C   0  0  0  0  0  0  0  0  0  0  0  0
    0.3127  -11.9796    1.9905 C   0  0  0  0  0  0  0  0  0  0  0  0
    0.4416  -13.3352    2.3438 C   0  0  0  0  0  0  0  0  0  0  0  0
   -0.5462  -14.2651    2.2630 C   0  0  0  0  0  0  0  0  0  0  0  0
   -1.7936  -13.8828    2.1342 C   0  0  0  0  0  0  0  0  0  0  0  0
   -2.0957  -12.5754    1.9252 C   0  0  0  0  0  0  0  0  0  0  0  0
   -1.1157  -11.6427    1.8135 C   0  0  0  0  0  0  0  0  0  0  0  0
    0.5419   -4.9436    2.8227 C   0  0  0  0  0  0  0  0  0  0  0  0
   -0.7084   -5.3734    2.4638 C   0  0  0  0  0  0  0  0  0  0  0  0
   -1.8869   -4.6129    2.6474 C   0  0  0  0  0  0  0  0  0  0  0  0
   -3.1484   -5.1604    2.5672 C   0  0  0  0  0  0  0  0  0  0  0  0
   -3.2760   -6.4641    2.2676 C   0  0  0  0  0  0  0  0  0  0  0  0
  6  7  1  0
  3  8  1  0
  8  9  1  0
  7 15  1  0
 15 16  2  3
 16 17  1  0
 17 18  2  3
 18 19  1  0
  1  2  2  0
  2  3  1  0
  3  4  2  0
  4  5  1  0
  5  6  2  0
  1  6  1  0
  9 10  2  0
 10 11  1  0
 11 12  2  0
 12 13  1  0
 13 14  2  0
  9 14  1  0
M  END

$$$$
No_3950-/export/home/yangzhenyu/potential_scad_32_flow//YTHDC2/2024-12-06-03-22-00/
     RDKit          3D

 18 19  0  0  0  0  0  0  0  0999 V2000
    1.1787   -8.0297    3.5154 C   0  0  0  0  0  0  0  0  0  0  0  0
    1.0491   -6.8434    2.9820 C   0  0  0  0  0  0  0  0  0  0  0  0
    0.0950   -8.8404    3.2292 C   0  0  0  0  0  0  0  0  0  0  0  0
   -0.9173   -8.4596    2.5152 C   0  0  0  0  0  0  0  0  0  0  0  0
   -1.0331   -7.2162    2.0653 C   0  0  0  0  0  0  0  0  0  0  0  0
   -0.0105   -6.3168    2.3081 C   0  0  0  0  0  0  0  0  0  0  0  0
    0.0485   -4.9783    1.8782 C   0  0  0  0  0  0  0  0  0  0  0  0
    0.9625   -4.1072    2.3252 C   0  0  0  0  0  0  0  0  0  0  0  0
    0.1334  -10.2884    3.6719 C   0  0  0  0  0  0  0  0  0  0  0  0
    0.2155  -11.3675    2.8316 C   0  0  0  0  0  0  0  0  0  0  0  0
    0.9727  -12.5040    3.2074 C   0  0  0  0  0  0  0  0  0  0  0  0
    1.0285  -13.5855    2.4436 C   0  0  0  0  0  0  0  0  0  0  0  0
    0.3991  -13.7435    1.4061 C   0  0  0  0  0  0  0  0  0  0  0  0
   -0.2700  -12.6747    0.8347 C   0  0  0  0  0  0  0  0  0  0  0  0
   -0.3213  -11.4887    1.5640 C   0  0  0  0  0  0  0  0  0  0  0  0
    1.8378  -14.7669    2.9540 Cl  0  0  0  0  0  0  0  0  0  0  0  0
   -0.6534   -4.4986    0.7695 C   0  0  0  0  0  0  0  0  0  0  0  0
   -0.6684   -3.2002    0.4295 C   0  0  0  0  0  0  0  0  0  0  0  0
  6  7  1  0
  7  8  2  0
  3  9  1  0
  9 10  1  0
 12 16  1  0
  7 17  1  0
 17 18  2  0
  1  2  2  0
  2  6  1  0
  5  6  2  0
  4  5  1  0
  3  4  2  0
  1  3  1  0
 10 11  2  0
 11 12  1  0
 12 13  2  0
 13 14  1  0
 14 15  2  0
 10 15  1  0
M  END

$$$$
No_3951-/export/home/yangzhenyu/potential_scad_32_flow//YTHDC2/2024-12-06-03-22-00/
     RDKit          3D

 18 20  0  0  0  0  0  0  0  0999 V2000
    1.1787   -8.0297    3.5154 C   0  0  0  0  0  0  0  0  0  0  0  0
    1.0491   -6.8434    2.9820 C   0  0  0  0  0  0  0  0  0  0  0  0
    0.9905   -9.0774    2.6527 C   0  0  0  0  0  0  0  0  0  0  0  0
    0.9687   -8.6883    1.3634 C   0  0  0  0  0  0  0  0  0  0  0  0
    1.0948   -6.3768    1.7686 C   0  0  0  0  0  0  0  0  0  0  0  0
    0.9504   -7.3975    0.8471 C   0  0  0  0  0  0  0  0  0  0  0  0
    1.0365  -10.4249    2.9992 C   0  0  0  0  0  0  0  0  0  0  0  0
    1.2082  -11.3465    2.2077 C   0  0  0  0  0  0  0  0  0  0  0  0
    1.3559  -11.1209    0.8130 C   0  0  0  0  0  0  0  0  0  0  0  0
    1.2931   -9.8726    0.4063 C   0  0  0  0  0  0  0  0  0  0  0  0
    1.3601  -12.7839    2.6391 C   0  0  0  0  0  0  0  0  0  0  0  0
    0.9265  -13.7815    1.7308 C   0  0  0  0  0  0  0  0  0  0  0  0
   -0.3067  -13.9959    1.5785 C   0  0  0  0  0  0  0  0  0  0  0  0
   -1.0992  -14.1904    2.5283 C   0  0  0  0  0  0  0  0  0  0  0  0
   -2.0879  -15.0322    2.2284 C   0  0  0  0  0  0  0  0  0  0  0  0
   -2.5240  -15.4827    1.1024 C   0  0  0  0  0  0  0  0  0  0  0  0
   -1.6790  -15.2227    0.0184 C   0  0  0  0  0  0  0  0  0  0  0  0
   -0.4961  -14.4944    0.2550 C   0  0  0  0  0  0  0  0  0  0  0  0
  8 11  1  0
 11 12  1  0
 12 13  1  0
  4 10  2  0
  9 10  1  0
  8  9  2  0
  7  8  1  0
  3  7  2  0
 13 14  2  0
 14 15  1  0
 15 16  2  0
 16 17  1  0
 17 18  2  0
 13 18  1  0
  1  2  2  0
  2  5  1  0
  5  6  2  0
  4  6  1  0
  3  4  1  0
  1  3  1  0
M  END

$$$$
No_3952-/export/home/yangzhenyu/potential_scad_32_flow//YTHDC2/2024-12-06-03-22-00/
     RDKit          3D

 19 20  0  0  1  0  0  0  0  0999 V2000
    1.1787   -8.0297    3.5154 C   0  0  0  0  0  0  0  0  0  0  0  0
    1.1048   -9.2215    3.2892 C   0  0  0  0  0  0  0  0  0  0  0  0
    1.2339   -9.7611    2.0189 C   0  0  0  0  0  0  0  0  0  0  0  0
    1.3583   -9.0036    0.9764 C   0  0  0  0  0  0  0  0  0  0  0  0
    1.5996   -7.6362    1.1311 C   0  0  0  0  0  0  0  0  0  0  0  0
    1.4830   -7.0928    2.3626 C   0  0  0  0  0  0  0  0  0  0  0  0
    1.4898   -5.7274    2.6199 C   0  0  0  0  0  0  0  0  0  0  0  0
    1.1681  -11.2222    1.8390 C   0  0  2  0  0  0  0  0  0  0  0  0
    1.9047  -12.1147    2.3357 C   0  0  0  0  0  0  0  0  0  0  0  0
    1.6844  -13.4555    2.0602 C   0  0  2  0  0  0  0  0  0  0  0  0
    0.6977  -13.8514    1.3046 C   0  0  0  0  0  0  0  0  0  0  0  0
   -0.1168  -12.9151    0.6554 C   0  0  0  0  0  0  0  0  0  0  0  0
    0.1481  -11.5441    0.9254 C   0  0  0  0  0  0  0  0  0  0  0  0
    1.2485   -4.8600    1.6197 O   0  0  0  0  0  0  0  0  0  0  0  0
    1.4832   -5.1579    3.8813 O   0  0  0  0  0  0  0  0  0  0  0  0
    2.5135  -14.4241    2.7624 Cl  0  0  0  0  0  0  0  0  0  0  0  0
   -0.6980  -10.6655    0.3289 O   0  0  0  0  0  0  0  0  0  0  0  0
    1.6133   -9.3948   -0.3649 C   0  0  0  0  0  0  0  0  0  0  0  0
    2.4740  -10.2669   -0.7069 O   0  0  0  0  0  0  0  0  0  0  0  0
  6  7  1  0
  8  3  1  6
  8  9  1  0
 10 11  1  0
  8 13  1  0
 12 13  1  0
  7 14  2  0
  7 15  1  0
 10 16  1  1
 13 17  2  0
  4 18  1  0
 18 19  2  0
  9 10  1  0
 11 12  1  0
  1  2  2  0
  2  3  1  0
  3  4  2  0
  4  5  1  0
  5  6  2  0
  1  6  1  0
M  END

$$$$
No_3953-/export/home/yangzhenyu/potential_scad_32_flow//YTHDC2/2024-12-06-03-22-00/
     RDKit          3D

 18 18  0  0  0  0  0  0  0  0999 V2000
    1.1787   -8.0297    3.5154 C   0  0  0  0  0  0  0  0  0  0  0  0
    1.1048   -9.2215    3.2892 C   0  0  0  0  0  0  0  0  0  0  0  0
    1.3627  -10.1721    4.3044 C   0  0  0  0  0  0  0  0  0  0  0  0
    1.7354  -11.4730    3.9023 C   0  0  0  0  0  0  0  0  0  0  0  0
    1.8080  -11.8127    2.7216 C   0  0  0  0  0  0  0  0  0  0  0  0
    1.5854  -11.0021    1.7249 C   0  0  0  0  0  0  0  0  0  0  0  0
    1.3573   -9.7389    1.9287 C   0  0  0  0  0  0  0  0  0  0  0  0
    1.2865   -8.8078    0.9161 C   0  0  0  0  0  0  0  0  0  0  0  0
    1.6845   -9.1638   -0.2896 C   0  0  0  0  0  0  0  0  0  0  0  0
    2.0771  -13.2284    2.3629 C   0  0  0  0  0  0  0  0  0  0  0  0
    2.4409  -13.5750    1.0743 O   0  0  0  0  0  0  0  0  0  0  0  0
    2.0821  -14.1980    3.2340 O   0  0  0  0  0  0  0  0  0  0  0  0
    1.6355   -8.1272   -1.3715 C   0  0  0  0  0  0  0  0  0  0  0  0
    0.1558   -7.2227    3.2043 N   0  0  0  0  0  0  0  0  0  0  0  0
   -1.0792   -7.8196    3.2511 C   0  0  0  0  0  0  0  0  0  0  0  0
   -1.4216   -8.6157    4.1729 O   0  0  0  0  0  0  0  0  0  0  0  0
   -2.2673   -6.8792    2.9714 C   0  0  0  0  0  0  0  0  0  0  0  0
   -1.9798   -5.8354    2.2685 C   0  0  0  0  0  0  0  0  0  0  0  0
  1  2  1  0
  7  8  1  0
  8  9  2  3
  5 10  1  0
 10 11  2  0
 10 12  1  0
  9 13  1  0
  1 14  1  0
 14 15  1  0
 15 16  2  0
 15 17  1  0
 17 18  2  0
  2  3  2  0
  3  4  1  0
  4  5  2  0
  5  6  1  0
  6  7  2  0
  2  7  1  0
M  END

$$$$
No_3954-/export/home/yangzhenyu/potential_scad_32_flow//YTHDC2/2024-12-06-03-22-00/
     RDKit          3D

 19 21  0  0  0  0  0  0  0  0999 V2000
    1.1787   -8.0297    3.5154 C   0  0  0  0  0  0  0  0  0  0  0  0
    1.1048   -9.2215    3.2892 C   0  0  0  0  0  0  0  0  0  0  0  0
    1.3627  -10.1721    4.3044 C   0  0  0  0  0  0  0  0  0  0  0  0
    1.0682  -11.5187    4.0618 C   0  0  0  0  0  0  0  0  0  0  0  0
    0.6332  -11.9655    2.9682 C   0  0  0  0  0  0  0  0  0  0  0  0
    0.4776  -11.1308    1.9203 C   0  0  0  0  0  0  0  0  0  0  0  0
    0.7470   -9.8274    2.0368 C   0  0  0  0  0  0  0  0  0  0  0  0
    0.5536   -7.1314    2.6860 C   0  0  0  0  0  0  0  0  0  0  0  0
    0.2951   -7.6000    1.3275 C   0  0  0  0  0  0  0  0  0  0  0  0
    0.2693   -8.8631    1.0973 C   0  0  0  0  0  0  0  0  0  0  0  0
    0.4648  -13.6251    2.7005 C   0  0  0  0  0  0  0  0  0  0  0  0
    1.4678  -14.4103    3.1602 C   0  0  0  0  0  0  0  0  0  0  0  0
    1.1703  -15.7576    2.9804 C   0  0  0  0  0  0  0  0  0  0  0  0
    0.1415  -16.2149    2.4418 C   0  0  0  0  0  0  0  0  0  0  0  0
   -0.7410  -15.3681    1.8628 C   0  0  0  0  0  0  0  0  0  0  0  0
   -0.5381  -14.0196    2.0493 C   0  0  0  0  0  0  0  0  0  0  0  0
   -0.1364   -9.3011   -0.3155 C   0  0  0  0  0  0  0  0  0  0  0  0
   -0.9377   -8.6814   -0.8972 O   0  0  0  0  0  0  0  0  0  0  0  0
    0.7883   -9.8523   -1.0284 O   0  0  0  0  0  0  0  0  0  0  0  0
  5 11  1  0
 10 17  1  0
 17 18  2  0
 17 19  1  0
 11 12  2  0
 12 13  1  0
 13 14  2  0
 14 15  1  0
 15 16  2  0
 11 16  1  0
  2  3  1  0
  3  4  2  0
  4  5  1  0
  5  6  2  0
  6  7  1  0
  1  2  2  0
  2  7  1  0
  7 10  2  0
  9 10  1  0
  8  9  2  0
  1  8  1  0
M  END

$$$$
No_3955-/export/home/yangzhenyu/potential_scad_32_flow//YTHDC2/2024-12-06-03-22-00/
     RDKit          3D

 19 20  0  0  0  0  0  0  0  0999 V2000
    1.1787   -8.0297    3.5154 C   0  0  0  0  0  0  0  0  0  0  0  0
    1.0491   -6.8434    2.9820 C   0  0  0  0  0  0  0  0  0  0  0  0
    0.0950   -8.8404    3.2292 C   0  0  0  0  0  0  0  0  0  0  0  0
   -0.9173   -8.4596    2.5152 C   0  0  0  0  0  0  0  0  0  0  0  0
   -1.0331   -7.2162    2.0653 C   0  0  0  0  0  0  0  0  0  0  0  0
   -0.0105   -6.3168    2.3081 C   0  0  0  0  0  0  0  0  0  0  0  0
    0.0485   -4.9783    1.8782 C   0  0  0  0  0  0  0  0  0  0  0  0
    0.9625   -4.1072    2.3252 N   0  0  0  0  0  0  0  0  0  0  0  0
   -0.3375   -4.6016    0.6171 N   0  0  0  0  0  0  0  0  0  0  0  0
    0.1753  -10.2820    3.6718 C   0  0  0  0  0  0  0  0  0  0  0  0
    0.2932  -11.3604    2.8263 C   0  0  0  0  0  0  0  0  0  0  0  0
   -0.1212  -11.4791    1.8369 C   0  0  0  0  0  0  0  0  0  0  0  0
    0.1421  -12.6801    1.0882 C   0  0  0  0  0  0  0  0  0  0  0  0
    0.9296  -13.7151    1.6532 C   0  0  0  0  0  0  0  0  0  0  0  0
    1.5507  -13.5111    2.8511 C   0  0  0  0  0  0  0  0  0  0  0  0
    1.2545  -12.3947    3.5967 C   0  0  0  0  0  0  0  0  0  0  0  0
    2.3124  -14.4802    3.4189 O   0  0  0  0  0  0  0  0  0  0  0  0
    1.0348   -3.0968    2.2843 C   0  0  0  0  0  0  0  0  0  0  0  0
   -0.2030   -3.2944    0.2828 C   0  0  0  0  0  0  0  0  0  0  0  0
  6  7  1  0
  7  8  2  3
  7  9  1  0
  3 10  1  0
 10 11  1  0
 12 13  1  0
 14 15  1  0
 11 16  1  0
 15 16  1  0
 15 17  2  0
  8 18  1  0
  9 19  2  0
 13 14  1  0
 11 12  1  0
  1  2  2  0
  2  6  1  0
  5  6  2  0
  4  5  1  0
  3  4  2  0
  1  3  1  0
M  END

$$$$
No_3956-/export/home/yangzhenyu/potential_scad_32_flow//YTHDC2/2024-12-06-03-22-00/
     RDKit          3D

 20 20  0  0  1  0  0  0  0  0999 V2000
    1.1787   -8.0297    3.5154 C   0  0  0  0  0  0  0  0  0  0  0  0
    1.0491   -6.8434    2.9820 C   0  0  1  0  0  0  0  0  0  0  0  0
    1.9985   -8.9840    2.8958 C   0  0  1  0  0  0  0  0  0  0  0  0
    1.9135  -10.3404    3.6266 C   0  0  0  0  0  0  0  0  0  0  0  0
    0.7479  -10.9191    3.7202 C   0  0  0  0  0  0  0  0  0  0  0  0
    0.2782   -6.7158    1.8352 N   0  0  0  0  0  0  0  0  0  0  0  0
    0.7099  -12.2890    3.6046 C   0  0  0  0  0  0  0  0  0  0  0  0
    0.9619  -12.7783    2.3620 C   0  0  0  0  0  0  0  0  0  0  0  0
    0.5847  -11.9154    1.3815 C   0  0  0  0  0  0  0  0  0  0  0  0
   -0.5282  -12.2154    0.7181 C   0  0  0  0  0  0  0  0  0  0  0  0
   -0.9519  -11.1790   -0.2746 C   0  0  0  0  0  0  0  0  0  0  0  0
   -1.3456  -10.2785   -0.0631 N   0  0  0  0  0  0  0  0  0  0  0  0
   -0.4113   -7.6898    1.5429 C   0  0  0  0  0  0  0  0  0  0  0  0
   -1.5639   -9.1232   -0.9099 C   0  0  0  0  0  0  0  0  0  0  0  0
   -2.0743   -7.9929   -0.5885 O   0  0  0  0  0  0  0  0  0  0  0  0
   -0.4951   -9.0922   -1.9352 O   0  0  0  0  0  0  0  0  0  0  0  0
    1.1954   -9.2959    1.4656 C   0  0  0  0  0  0  0  0  0  0  0  0
    0.0705   -8.7577    0.9146 C   0  0  0  0  0  0  0  0  0  0  0  0
   -0.8940  -13.4875    0.6708 O   0  0  0  0  0  0  0  0  0  0  0  0
    1.2970   -5.6275    3.6853 C   0  0  0  0  0  0  0  0  0  0  0  0
  1  2  1  0
  1  3  1  0
  3  4  1  1
  4  5  1  0
  2  6  1  0
  5  7  1  0
  7  8  1  0
  8  9  1  0
  9 10  1  0
 10 11  1  0
 11 12  1  0
  6 13  2  0
 12 14  1  0
 14 15  1  0
 14 16  2  0
  3 17  1  0
 13 18  1  0
 17 18  1  0
 10 19  2  0
  2 20  1  1
M  END

$$$$
No_3957-/export/home/yangzhenyu/potential_scad_32_flow//YTHDC2/2024-12-06-03-22-00/
     RDKit          3D

 17 17  0  0  1  0  0  0  0  0999 V2000
    1.1787   -8.0297    3.5154 C   0  0  0  0  0  0  0  0  0  0  0  0
    1.1048   -9.2215    3.2892 C   0  0  0  0  0  0  0  0  0  0  0  0
    1.2339   -9.7611    2.0189 C   0  0  0  0  0  0  0  0  0  0  0  0
    1.3583   -9.0036    0.9764 C   0  0  0  0  0  0  0  0  0  0  0  0
    1.5996   -7.6362    1.1311 C   0  0  0  0  0  0  0  0  0  0  0  0
    1.4830   -7.0928    2.3626 C   0  0  0  0  0  0  0  0  0  0  0  0
    1.1008  -11.2372    1.8542 C   0  0  0  0  0  0  0  0  0  0  0  0
    0.5178  -11.9759    2.3445 C   0  0  0  0  0  0  0  0  0  0  0  0
    0.4575  -13.3705    2.1281 C   0  0  0  0  0  0  0  0  0  0  0  0
    1.1632  -14.1013    2.0451 C   0  0  0  0  0  0  0  0  0  0  0  0
    2.4646  -13.5566    1.4445 C   0  0  0  0  0  0  0  0  0  0  0  0
    1.0647  -15.5680    1.9364 C   0  0  1  0  0  0  0  0  0  0  0  0
    2.0614  -16.3120    2.5663 O   0  0  0  0  0  0  0  0  0  0  0  0
    1.5548   -5.6556    2.6282 Cl  0  0  0  0  0  0  0  0  0  0  0  0
   -0.0001  -16.1523    1.7364 C   0  0  0  0  0  0  0  0  0  0  0  0
   -0.1069  -17.2641    1.6163 C   0  0  0  0  0  0  0  0  0  0  0  0
    0.9830  -18.1879    2.0581 C   0  0  0  0  0  0  0  0  0  0  0  0
  3  7  1  0
  7  8  2  3
  8  9  1  0
  9 10  2  3
 10 11  1  0
 10 12  1  0
 12 13  1  1
  6 14  1  0
 12 15  1  0
 15 16  2  3
 16 17  1  0
  1  2  2  0
  2  3  1  0
  3  4  2  0
  4  5  1  0
  5  6  2  0
  1  6  1  0
M  END

$$$$
No_3958-/export/home/yangzhenyu/potential_scad_32_flow//YTHDC2/2024-12-06-03-22-00/
     RDKit          3D

 18 19  0  0  0  0  0  0  0  0999 V2000
    1.1787   -8.0297    3.5154 C   0  0  0  0  0  0  0  0  0  0  0  0
    1.1048   -9.2215    3.2892 C   0  0  0  0  0  0  0  0  0  0  0  0
    1.2339   -9.7611    2.0189 C   0  0  0  0  0  0  0  0  0  0  0  0
    1.4306   -8.9466    1.1170 C   0  0  0  0  0  0  0  0  0  0  0  0
    1.6532   -7.5949    1.1786 C   0  0  0  0  0  0  0  0  0  0  0  0
    1.4973   -7.0739    2.4258 C   0  0  0  0  0  0  0  0  0  0  0  0
    1.4438   -5.6890    2.7316 C   0  0  0  0  0  0  0  0  0  0  0  0
    1.2541  -11.1952    1.8085 C   0  0  0  0  0  0  0  0  0  0  0  0
    1.3136  -11.5756    0.5307 C   0  0  0  0  0  0  0  0  0  0  0  0
    0.6266  -12.5167    0.2045 N   0  0  0  0  0  0  0  0  0  0  0  0
    1.3359  -12.1240    2.7270 C   0  0  0  0  0  0  0  0  0  0  0  0
    1.6415  -11.9004    4.1275 C   0  0  0  0  0  0  0  0  0  0  0  0
    1.1617  -13.4526    2.3660 C   0  0  0  0  0  0  0  0  0  0  0  0
    0.7583  -13.6668    1.0466 C   0  0  0  0  0  0  0  0  0  0  0  0
    1.2277  -14.5038    3.2545 C   0  0  0  0  0  0  0  0  0  0  0  0
    1.9276  -15.6127    2.9493 C   0  0  0  0  0  0  0  0  0  0  0  0
    1.6643   -5.1580    3.9682 N   0  0  0  0  0  0  0  0  0  0  0  0
    1.8840   -5.7637    4.7460 H   0  0  0  0  0  0  0  0  0  0  0  0
  6  7  1  0
  3  8  1  0
 13 15  1  0
 15 16  1  0
  7 17  2  0
 11 12  1  0
  1  2  2  0
  2  3  1  0
  3  4  2  0
  4  5  1  0
  5  6  2  0
  1  6  1  0
  8  9  2  0
  9 10  1  0
 10 14  2  0
 13 14  1  0
 11 13  2  0
  8 11  1  0
 17 18  1  0
M  END

$$$$
No_3959-/export/home/yangzhenyu/potential_scad_32_flow//YTHDC2/2024-12-06-03-22-00/
     RDKit          3D

 17 18  0  0  0  0  0  0  0  0999 V2000
    1.1787   -8.0297    3.5154 C   0  0  0  0  0  0  0  0  0  0  0  0
    1.0491   -6.8434    2.9820 C   0  0  0  0  0  0  0  0  0  0  0  0
    0.9905   -9.0774    2.6527 C   0  0  0  0  0  0  0  0  0  0  0  0
    0.7897   -8.9519    1.3691 C   0  0  0  0  0  0  0  0  0  0  0  0
    0.7018   -7.7198    0.7892 C   0  0  0  0  0  0  0  0  0  0  0  0
    0.8918   -6.5957    1.6117 C   0  0  0  0  0  0  0  0  0  0  0  0
    1.0774  -10.6059    3.3145 C   0  0  0  0  0  0  0  0  0  0  0  0
    1.2215  -11.6205    2.4178 C   0  0  0  0  0  0  0  0  0  0  0  0
    1.2379  -12.9166    3.0977 C   0  0  0  0  0  0  0  0  0  0  0  0
    1.3537  -14.0715    2.4214 C   0  0  0  0  0  0  0  0  0  0  0  0
    1.8438  -14.1120    1.1532 C   0  0  0  0  0  0  0  0  0  0  0  0
    1.9661  -12.8637    0.5029 C   0  0  0  0  0  0  0  0  0  0  0  0
    1.7058  -11.6621    1.1343 C   0  0  0  0  0  0  0  0  0  0  0  0
    0.8517  -10.6241    4.5616 O   0  0  0  0  0  0  0  0  0  0  0  0
    0.8047   -5.3081    1.0792 O   0  0  0  0  0  0  0  0  0  0  0  0
    1.2253  -15.3474    3.2030 Cl  0  0  0  0  0  0  0  0  0  0  0  0
   -0.3043   -4.5482    1.2030 C   0  0  0  0  0  0  0  0  0  0  0  0
  3  7  1  0
  7  8  1  0
  7 14  2  0
  6 15  1  0
 10 16  1  0
 15 17  1  0
  1  2  2  0
  2  6  1  0
  5  6  2  0
  4  5  1  0
  3  4  2  0
  1  3  1  0
  8  9  2  0
  9 10  1  0
 10 11  2  0
 11 12  1  0
 12 13  2  0
  8 13  1  0
M  END

$$$$
No_3960-/export/home/yangzhenyu/potential_scad_32_flow//YTHDC2/2024-12-06-03-22-00/
     RDKit          3D

 19 19  0  0  1  0  0  0  0  0999 V2000
    1.1787   -8.0297    3.5154 C   0  0  0  0  0  0  0  0  0  0  0  0
    1.1048   -9.2215    3.2892 C   0  0  0  0  0  0  0  0  0  0  0  0
    1.2339   -9.7611    2.0189 C   0  0  0  0  0  0  0  0  0  0  0  0
    1.1954  -11.2312    1.8661 C   0  0  2  0  0  0  0  0  0  0  0  0
    1.5546  -12.1691    2.7931 C   0  0  0  0  0  0  0  0  0  0  0  0
    0.9527   -7.0669    2.3918 C   0  0  0  0  0  0  0  0  0  0  0  0
    0.9645   -5.6276    2.5409 C   0  0  0  0  0  0  0  0  0  0  0  0
    0.6534  -12.9452    3.2092 C   0  0  0  0  0  0  0  0  0  0  0  0
    0.9505  -14.3476    3.0831 C   0  0  2  0  0  0  0  0  0  0  0  0
    2.1876  -14.6631    2.4454 N   0  0  0  0  0  0  0  0  0  0  0  0
    0.2055  -15.4218    3.3667 C   0  0  0  0  0  0  0  0  0  0  0  0
    1.6502   -5.0642    3.6692 O   0  0  0  0  0  0  0  0  0  0  0  0
    0.6933   -4.8841    1.5870 O   0  0  0  0  0  0  0  0  0  0  0  0
    2.4787  -16.0806    2.3631 O   0  0  0  0  0  0  0  0  0  0  0  0
    1.0286  -11.6387    0.5982 C   0  0  0  0  0  0  0  0  0  0  0  0
    1.3600  -12.8624    0.2268 O   0  0  0  0  0  0  0  0  0  0  0  0
    0.0735  -11.1125   -0.2033 O   0  0  0  0  0  0  0  0  0  0  0  0
    0.8002   -7.4844    1.0939 C   0  0  0  0  0  0  0  0  0  0  0  0
    1.0963   -8.9220    0.9253 C   0  0  0  0  0  0  0  0  0  0  0  0
  3  4  1  0
  4  5  1  6
  6  7  1  0
  5  8  1  0
  8  9  1  0
  9 10  1  0
  9 11  1  6
  7 12  1  0
  7 13  2  0
 10 14  2  0
  4 15  1  0
 15 16  2  0
 15 17  1  0
  1  2  2  0
  2  3  1  0
  3 19  2  0
 18 19  1  0
  6 18  2  0
  1  6  1  0
M  END

$$$$
No_3961-/export/home/yangzhenyu/potential_scad_32_flow//YTHDC2/2024-12-06-03-22-00/
     RDKit          3D

 17 17  0  0  0  0  0  0  0  0999 V2000
    1.1787   -8.0297    3.5154 C   0  0  0  0  0  0  0  0  0  0  0  0
    1.1048   -9.2215    3.2892 C   0  0  0  0  0  0  0  0  0  0  0  0
    1.2339   -9.7611    2.0189 C   0  0  0  0  0  0  0  0  0  0  0  0
    1.3583   -9.0036    0.9764 C   0  0  0  0  0  0  0  0  0  0  0  0
    1.5996   -7.6362    1.1311 C   0  0  0  0  0  0  0  0  0  0  0  0
    1.4830   -7.0928    2.3626 C   0  0  0  0  0  0  0  0  0  0  0  0
    1.4898   -5.7274    2.6199 C   0  0  0  0  0  0  0  0  0  0  0  0
    1.1882  -11.3736    1.8424 C   0  0  0  0  0  0  0  0  0  0  0  0
    1.0670  -11.6643    0.5390 O   0  0  0  0  0  0  0  0  0  0  0  0
    1.3856  -12.0931    2.7683 N   0  0  0  0  0  0  0  0  0  0  0  0
    1.4190  -13.4859    2.6580 C   0  0  0  0  0  0  0  0  0  0  0  0
    0.1602  -14.1034    2.7251 C   0  0  0  0  0  0  0  0  0  0  0  0
   -0.8685  -13.5259    2.5329 O   0  0  0  0  0  0  0  0  0  0  0  0
    0.2903  -15.5022    2.5922 O   0  0  0  0  0  0  0  0  0  0  0  0
    1.6805   -5.1779    3.8628 N   0  0  0  0  0  0  0  0  0  0  0  0
    1.3788   -4.8481    1.6212 O   0  0  0  0  0  0  0  0  0  0  0  0
    1.6100  -16.0942    2.3181 C   0  0  0  0  0  0  0  0  0  0  0  0
  6  7  1  0
  3  8  1  0
  8  9  2  0
  8 10  1  0
 10 11  1  0
 11 12  1  0
 12 13  2  0
 12 14  1  0
  7 15  1  0
  7 16  2  0
 14 17  1  0
  1  2  2  0
  2  3  1  0
  3  4  2  0
  4  5  1  0
  5  6  2  0
  1  6  1  0
M  END

$$$$
No_3962-/export/home/yangzhenyu/potential_scad_32_flow//YTHDC2/2024-12-06-03-22-00/
     RDKit          3D

 20 21  0  0  1  0  0  0  0  0999 V2000
    1.1787   -8.0297    3.5154 C   0  0  0  0  0  0  0  0  0  0  0  0
    1.0491   -6.8434    2.9820 C   0  0  0  0  0  0  0  0  0  0  0  0
    0.9905   -9.0774    2.6527 C   0  0  0  0  0  0  0  0  0  0  0  0
    1.1655  -10.4663    3.1286 C   0  0  0  0  0  0  0  0  0  0  0  0
    1.2197  -11.4898    2.5831 C   0  0  0  0  0  0  0  0  0  0  0  0
    1.5411  -12.7330    3.1052 C   0  0  0  0  0  0  0  0  0  0  0  0
    0.6212   -6.5301    1.7066 C   0  0  0  0  0  0  0  0  0  0  0  0
    0.4208   -7.5365    0.9144 C   0  0  0  0  0  0  0  0  0  0  0  0
    0.5253   -8.8638    1.3136 C   0  0  0  0  0  0  0  0  0  0  0  0
    1.1045  -13.8685    2.5294 C   0  0  1  0  0  0  0  0  0  0  0  0
    1.6368  -15.1860    3.0329 C   0  0  0  0  0  0  0  0  0  0  0  0
    0.8817  -16.3267    2.8758 C   0  0  2  0  0  0  0  0  0  0  0  0
    1.3280  -17.5133    3.2689 C   0  0  0  0  0  0  0  0  0  0  0  0
    0.5263   -5.1997    1.2062 Br  0  0  0  0  0  0  0  0  0  0  0  0
    1.4051  -18.4254    2.7348 C   0  0  0  0  0  0  0  0  0  0  0  0
    1.4070  -18.3202    1.3430 C   0  0  0  0  0  0  0  0  0  0  0  0
    0.6520  -17.3559    0.7680 C   0  0  0  0  0  0  0  0  0  0  0  0
    0.1591  -16.6244    1.5073 C   0  0  0  0  0  0  0  0  0  0  0  0
    0.3732  -17.5652   -0.5146 O   0  0  0  0  0  0  0  0  0  0  0  0
   -0.0822  -13.7871    1.8251 C   0  0  0  0  0  0  0  0  0  0  0  0
  3  4  1  0
  4  5  2  3
  5  6  1  0
  6 10  1  0
 10 11  1  0
 12 11  1  6
 12 13  1  0
  7 14  1  0
 13 15  1  0
 15 16  1  0
 16 17  1  0
 12 18  1  0
 17 18  1  0
 17 19  2  0
 10 20  1  1
  1  2  2  0
  2  7  1  0
  7  8  2  0
  8  9  1  0
  3  9  2  0
  1  3  1  0
M  END

$$$$
No_3963-/export/home/yangzhenyu/potential_scad_32_flow//YTHDC2/2024-12-06-03-22-00/
     RDKit          3D

 18 18  0  0  1  0  0  0  0  0999 V2000
    1.1787   -8.0297    3.5154 C   0  0  0  0  0  0  0  0  0  0  0  0
    1.1048   -9.2215    3.2892 C   0  0  0  0  0  0  0  0  0  0  0  0
    1.2339   -9.7611    2.0189 C   0  0  0  0  0  0  0  0  0  0  0  0
    1.3583   -9.0036    0.9764 C   0  0  0  0  0  0  0  0  0  0  0  0
    1.5996   -7.6362    1.1311 C   0  0  0  0  0  0  0  0  0  0  0  0
    1.4830   -7.0928    2.3626 C   0  0  0  0  0  0  0  0  0  0  0  0
    1.5395   -5.7300    2.6182 C   0  0  0  0  0  0  0  0  0  0  0  0
    1.1775  -11.2233    1.8407 C   0  0  1  0  0  0  0  0  0  0  0  0
    0.7252  -11.5870    0.5412 C   0  0  0  0  0  0  0  0  0  0  0  0
   -0.1807  -10.9849   -0.0827 C   0  0  0  0  0  0  0  0  0  0  0  0
    1.7325  -12.0565    2.7078 C   0  0  0  0  0  0  0  0  0  0  0  0
    0.8702  -12.9116    3.2245 C   0  0  0  0  0  0  0  0  0  0  0  0
    1.1334  -14.3058    3.1000 C   0  0  0  0  0  0  0  0  0  0  0  0
    2.3844  -14.6860    2.4924 O   0  0  0  0  0  0  0  0  0  0  0  0
    0.5322  -15.3178    3.6165 Cl  0  0  0  0  0  0  0  0  0  0  0  0
    1.2866   -4.8142    1.6896 O   0  0  0  0  0  0  0  0  0  0  0  0
    1.5002   -5.1820    3.9088 O   0  0  0  0  0  0  0  0  0  0  0  0
   -1.1117  -10.1862    0.4293 C   0  0  0  0  0  0  0  0  0  0  0  0
  6  7  1  0
  3  8  1  0
  8  9  1  0
  9 10  2  3
  8 11  1  6
 11 12  1  0
 12 13  1  0
 13 14  2  0
 13 15  1  0
  7 16  2  0
  7 17  1  0
 10 18  1  0
  1  2  2  0
  2  3  1  0
  3  4  2  0
  4  5  1  0
  5  6  2  0
  1  6  1  0
M  END

$$$$
No_3964-/export/home/yangzhenyu/potential_scad_32_flow//YTHDC2/2024-12-06-03-22-00/
     RDKit          3D

 14 15  0  0  1  0  0  0  0  0999 V2000
    1.1787   -8.0297    3.5154 C   0  0  0  0  0  0  0  0  0  0  0  0
    1.0491   -6.8434    2.9820 C   0  0  0  0  0  0  0  0  0  0  0  0
    1.9985   -8.9840    2.8958 C   0  0  0  0  0  0  0  0  0  0  0  0
    1.1814  -10.1889    2.5497 C   0  0  2  0  0  0  0  0  0  0  0  0
    0.9817  -11.1388    2.8134 C   0  0  0  0  0  0  0  0  0  0  0  0
    0.1125  -12.0891    2.4837 C   0  0  0  0  0  0  0  0  0  0  0  0
   -0.5164  -11.6496    1.5379 C   0  0  0  0  0  0  0  0  0  0  0  0
    0.2237  -10.2459    1.0048 C   0  0  0  0  0  0  0  0  0  0  0  0
    0.4458   -6.8747    1.6755 C   0  0  0  0  0  0  0  0  0  0  0  0
   -0.2702   -5.7647    1.3299 C   0  0  0  0  0  0  0  0  0  0  0  0
   -0.0220   -4.5207    1.8707 C   0  0  0  0  0  0  0  0  0  0  0  0
    0.7408   -4.4922    3.1284 C   0  0  0  0  0  0  0  0  0  0  0  0
    1.3271   -5.6338    3.5684 C   0  0  0  0  0  0  0  0  0  0  0  0
   -0.6524   -3.3602    1.4408 C   0  0  0  0  0  0  0  0  0  0  0  0
  1  2  1  0
  1  3  1  0
  4  3  1  6
  4  5  1  0
  5  6  2  0
  6  7  1  0
  4  8  1  0
  7  8  1  0
 11 14  1  0
  2  9  2  0
  9 10  1  0
 10 11  2  0
 11 12  1  0
 12 13  2  0
  2 13  1  0
M  END

$$$$
No_3965-/export/home/yangzhenyu/potential_scad_32_flow//YTHDC2/2024-12-06-03-22-00/
     RDKit          3D

 18 19  0  0  0  0  0  0  0  0999 V2000
    1.1787   -8.0297    3.5154 C   0  0  0  0  0  0  0  0  0  0  0  0
    1.0491   -6.8434    2.9820 C   0  0  0  0  0  0  0  0  0  0  0  0
    0.0950   -8.8404    3.2292 C   0  0  0  0  0  0  0  0  0  0  0  0
   -0.9173   -8.4596    2.5152 C   0  0  0  0  0  0  0  0  0  0  0  0
   -1.0331   -7.2162    2.0653 C   0  0  0  0  0  0  0  0  0  0  0  0
   -0.0105   -6.3168    2.3081 C   0  0  0  0  0  0  0  0  0  0  0  0
    0.1935  -10.3737    3.7416 C   0  0  0  0  0  0  0  0  0  0  0  0
    1.2406  -10.8901    4.0986 C   0  0  0  0  0  0  0  0  0  0  0  0
    1.1186  -12.3145    4.4006 N   0  0  0  0  0  0  0  0  0  0  0  0
    0.0134   -4.9615    1.8489 C   0  0  0  0  0  0  0  0  0  0  0  0
   -0.7763   -4.1138    2.3488 N   0  0  0  0  0  0  0  0  0  0  0  0
    0.1120  -12.8153    3.8529 C   0  0  0  0  0  0  0  0  0  0  0  0
   -0.6232  -11.4904    3.3846 N   0  0  0  0  0  0  0  0  0  0  0  0
   -0.3362  -13.9753    3.6751 C   0  0  0  0  0  0  0  0  0  0  0  0
    0.5710  -14.9350    3.7352 C   0  0  0  0  0  0  0  0  0  0  0  0
    0.2825  -16.3028    3.5756 C   0  0  0  0  0  0  0  0  0  0  0  0
   -0.8934  -16.6496    3.1840 C   0  0  0  0  0  0  0  0  0  0  0  0
   -1.8758  -15.7322    3.0099 C   0  0  0  0  0  0  0  0  0  0  0  0
  3  7  1  0
  7  8  2  0
  8  9  1  0
  6 10  1  0
 10 11  1  0
  9 12  2  0
  7 13  1  0
 12 13  1  0
 12 14  1  0
 14 15  1  0
 15 16  2  3
 16 17  1  0
 17 18  2  0
  1  2  2  0
  2  6  1  0
  5  6  2  0
  4  5  1  0
  3  4  2  0
  1  3  1  0
M  END

$$$$
No_3966-/export/home/yangzhenyu/potential_scad_32_flow//YTHDC2/2024-12-06-03-22-00/
     RDKit          3D

 20 21  0  0  0  0  0  0  0  0999 V2000
    1.1787   -8.0297    3.5154 C   0  0  0  0  0  0  0  0  0  0  0  0
    1.0491   -6.8434    2.9820 C   0  0  0  0  0  0  0  0  0  0  0  0
    0.0950   -8.8404    3.2292 C   0  0  0  0  0  0  0  0  0  0  0  0
   -0.9173   -8.4596    2.5152 C   0  0  0  0  0  0  0  0  0  0  0  0
   -1.0331   -7.2162    2.0653 C   0  0  0  0  0  0  0  0  0  0  0  0
   -0.0105   -6.3168    2.3081 C   0  0  0  0  0  0  0  0  0  0  0  0
    0.1465  -10.2446    3.6981 C   0  0  0  0  0  0  0  0  0  0  0  0
   -1.0337  -10.8619    3.9439 C   0  0  0  0  0  0  0  0  0  0  0  0
   -2.1702  -10.4673    3.2991 C   0  0  0  0  0  0  0  0  0  0  0  0
   -3.3899  -11.1272    3.4065 C   0  0  0  0  0  0  0  0  0  0  0  0
   -2.2169   -9.1945    2.7139 C   0  0  0  0  0  0  0  0  0  0  0  0
   -0.0540   -4.9920    1.7911 C   0  0  0  0  0  0  0  0  0  0  0  0
    0.8282   -4.1069    2.1854 O   0  0  0  0  0  0  0  0  0  0  0  0
   -1.0098   -4.5765    1.0152 O   0  0  0  0  0  0  0  0  0  0  0  0
   -3.3769  -12.5038    3.1318 O   0  0  0  0  0  0  0  0  0  0  0  0
   -4.4584  -10.5815    3.9836 O   0  0  0  0  0  0  0  0  0  0  0  0
    1.5339  -10.8002    4.4185 C   0  0  0  0  0  0  0  0  0  0  0  0
    1.7571  -12.0760    3.8785 Cl  0  0  0  0  0  0  0  0  0  0  0  0
    2.3136  -10.0559    5.0934 O   0  0  0  0  0  0  0  0  0  0  0  0
   -0.7664   -3.6043    0.1504 C   0  0  0  0  0  0  0  0  0  0  0  0
  9 10  1  0
  6 12  1  0
 12 13  2  0
 12 14  1  0
 10 15  2  0
 10 16  1  0
  7 17  1  0
 17 18  1  0
 17 19  2  0
 14 20  1  0
  1  2  2  0
  2  6  1  0
  5  6  2  0
  4  5  1  0
  1  3  1  0
  3  4  2  0
  4 11  1  0
  9 11  2  0
  8  9  1  0
  7  8  2  0
  3  7  1  0
M  END

$$$$
No_3967-/export/home/yangzhenyu/potential_scad_32_flow//YTHDC2/2024-12-06-03-22-00/
     RDKit          3D

 19 19  0  0  0  0  0  0  0  0999 V2000
    1.1787   -8.0297    3.5154 O   0  0  0  0  0  0  0  0  0  0  0  0
    0.6747   -7.4019    2.7838 C   0  0  0  0  0  0  0  0  0  0  0  0
    0.7594   -8.0032    1.4295 C   0  0  0  0  0  0  0  0  0  0  0  0
    0.3459   -9.1500    1.3581 C   0  0  0  0  0  0  0  0  0  0  0  0
   -0.4155   -9.6726    2.0241 C   0  0  0  0  0  0  0  0  0  0  0  0
   -1.5426   -9.2172    2.3159 C   0  0  0  0  0  0  0  0  0  0  0  0
    1.0380   -9.8883    0.2304 C   0  0  0  0  0  0  0  0  0  0  0  0
    1.6879   -9.2358   -0.7188 O   0  0  0  0  0  0  0  0  0  0  0  0
    0.9550  -11.2192    0.0700 O   0  0  0  0  0  0  0  0  0  0  0  0
   -2.4726   -9.7825    3.3772 C   0  0  0  0  0  0  0  0  0  0  0  0
   -2.7049  -11.0042    3.5120 C   0  0  0  0  0  0  0  0  0  0  0  0
   -1.5924  -11.8885    2.9572 C   0  0  0  0  0  0  0  0  0  0  0  0
   -0.4918  -11.3361    2.2955 C   0  0  0  0  0  0  0  0  0  0  0  0
    0.5038   -6.1507    3.0348 O   0  0  0  0  0  0  0  0  0  0  0  0
   -3.5550  -11.6109    4.2151 Cl  0  0  0  0  0  0  0  0  0  0  0  0
    1.0554   -6.9775    0.5304 O   0  0  0  0  0  0  0  0  0  0  0  0
   -1.5540  -13.1998    3.1269 O   0  0  0  0  0  0  0  0  0  0  0  0
   -2.2290  -13.9289    2.1332 C   0  0  0  0  0  0  0  0  0  0  0  0
   -2.0843  -15.0553    2.2848 C   0  0  0  0  0  0  0  0  0  0  0  0
  1  2  1  0
  2  3  1  0
  3  4  1  0
  4  5  1  0
  4  7  1  0
  7  8  2  0
  7  9  1  0
  2 14  2  0
 11 15  1  0
  3 16  2  0
 12 17  1  0
 17 18  1  0
 18 19  1  0
  5  6  2  0
  6 10  1  0
 10 11  2  0
 11 12  1  0
 12 13  2  0
  5 13  1  0
M  END

$$$$
No_3968-/export/home/yangzhenyu/potential_scad_32_flow//YTHDC2/2024-12-06-03-22-00/
     RDKit          3D

 18 18  0  0  1  0  0  0  0  0999 V2000
    1.1787   -8.0297    3.5154 C   0  0  0  0  0  0  0  0  0  0  0  0
    1.0491   -6.8434    2.9820 C   0  0  0  0  0  0  0  0  0  0  0  0
    0.0950   -8.8404    3.2292 C   0  0  0  0  0  0  0  0  0  0  0  0
   -0.7663   -8.2602    2.4375 C   0  0  0  0  0  0  0  0  0  0  0  0
   -0.7437   -6.9718    1.9778 C   0  0  0  0  0  0  0  0  0  0  0  0
    0.2554   -6.2202    2.2855 C   0  0  0  0  0  0  0  0  0  0  0  0
    0.0489  -10.2012    3.5913 C   0  0  0  0  0  0  0  0  0  0  0  0
   -1.1778  -10.7073    3.8921 O   0  0  0  0  0  0  0  0  0  0  0  0
    1.0190  -10.7874    4.3948 N   0  0  0  0  0  0  0  0  0  0  0  0
    0.3650   -4.8496    1.8491 C   0  0  0  0  0  0  0  0  0  0  0  0
    1.6692  -11.8992    3.9528 C   0  0  0  0  0  0  0  0  0  0  0  0
    2.4907  -11.5814    2.8594 C   0  0  2  0  0  0  0  0  0  0  0  0
    2.7995  -10.3772    2.6697 C   0  0  0  0  0  0  0  0  0  0  0  0
    2.3715  -12.5403    1.8272 C   0  0  0  0  0  0  0  0  0  0  0  0
    0.9274   -3.9469    2.5680 O   0  0  0  0  0  0  0  0  0  0  0  0
    0.0219   -4.4568    0.7073 O   0  0  0  0  0  0  0  0  0  0  0  0
    1.9179  -12.3058    0.6512 C   0  0  0  0  0  0  0  0  0  0  0  0
    1.1362  -11.0906    0.5189 C   0  0  0  0  0  0  0  0  0  0  0  0
  3  7  1  0
  7  8  2  0
  7  9  1  0
  6 10  1  0
  9 11  1  0
 11 12  1  0
 12 13  1  6
 12 14  1  0
 10 15  1  0
 10 16  2  0
 14 17  1  0
 17 18  2  0
  1  2  2  0
  2  6  1  0
  5  6  2  0
  4  5  1  0
  3  4  2  0
  1  3  1  0
M  END

$$$$
No_3969-/export/home/yangzhenyu/potential_scad_32_flow//YTHDC2/2024-12-06-03-22-00/
     RDKit          3D

 18 19  0  0  1  0  0  0  0  0999 V2000
    1.1787   -8.0297    3.5154 C   0  0  0  0  0  0  0  0  0  0  0  0
    1.0491   -6.8434    2.9820 C   0  0  0  0  0  0  0  0  0  0  0  0
    0.2462   -8.9560    3.0873 C   0  0  0  0  0  0  0  0  0  0  0  0
    0.3295   -6.5187    1.9069 C   0  0  0  0  0  0  0  0  0  0  0  0
   -0.4721   -8.3607    2.1144 C   0  0  0  0  0  0  0  0  0  0  0  0
   -0.4735   -7.2853    1.5417 C   0  0  0  0  0  0  0  0  0  0  0  0
    0.2659  -10.3666    3.7194 O   0  0  0  0  0  0  0  0  0  0  0  0
    0.4794   -5.1518    1.4002 O   0  0  0  0  0  0  0  0  0  0  0  0
   -0.6281  -11.2403    3.4002 C   0  0  2  0  0  0  0  0  0  0  0  0
   -0.2316  -11.9856    2.6740 C   0  0  0  0  0  0  0  0  0  0  0  0
   -0.9130  -13.0472    2.1075 C   0  0  0  0  0  0  0  0  0  0  0  0
   -2.2523  -12.8413    2.6100 C   0  0  0  0  0  0  0  0  0  0  0  0
   -2.1748  -11.4566    3.6810 C   0  0  0  0  0  0  0  0  0  0  0  0
    1.2697  -12.0625    2.1970 C   0  0  1  0  0  0  0  0  0  0  0  0
    1.9807  -11.0638    1.9790 C   0  0  0  0  0  0  0  0  0  0  0  0
    1.8659  -13.4254    2.2985 C   0  0  0  0  0  0  0  0  0  0  0  0
    2.0629  -14.0848    3.3949 C   0  0  0  0  0  0  0  0  0  0  0  0
    2.3144  -15.4384    3.2050 C   0  0  0  0  0  0  0  0  0  0  0  0
  3  7  1  0
  4  8  1  0
  9  7  1  6
  9 10  1  0
 10 11  2  0
 11 12  1  0
  9 13  1  0
 12 13  1  0
 10 14  1  0
 14 15  1  1
 14 16  1  0
 16 17  1  0
 17 18  2  0
  1  2  2  0
  2  4  1  0
  4  6  2  0
  5  6  1  0
  3  5  2  0
  1  3  1  0
M  END

$$$$
No_3970-/export/home/yangzhenyu/potential_scad_32_flow//YTHDC2/2024-12-06-03-22-00/
     RDKit          3D

 17 18  0  0  0  0  0  0  0  0999 V2000
    1.1787   -8.0297    3.5154 C   0  0  0  0  0  0  0  0  0  0  0  0
    1.1048   -9.2215    3.2892 N   0  0  0  0  0  0  0  0  0  0  0  0
    1.0346   -9.7785    2.1176 C   0  0  0  0  0  0  0  0  0  0  0  0
    1.1237  -11.2310    2.0784 C   0  0  0  0  0  0  0  0  0  0  0  0
    1.4532  -12.1118    3.1715 C   0  0  0  0  0  0  0  0  0  0  0  0
    1.0405   -7.1954    2.2050 C   0  0  0  0  0  0  0  0  0  0  0  0
    1.0819   -7.7262    1.0728 C   0  0  0  0  0  0  0  0  0  0  0  0
    1.1468   -9.1222    0.9023 C   0  0  0  0  0  0  0  0  0  0  0  0
    1.3768  -13.4734    2.9685 C   0  0  0  0  0  0  0  0  0  0  0  0
    1.0060  -14.0737    1.9304 C   0  0  0  0  0  0  0  0  0  0  0  0
    0.7970  -13.3883    0.8124 C   0  0  0  0  0  0  0  0  0  0  0  0
    0.8672  -11.9693    0.8537 C   0  0  0  0  0  0  0  0  0  0  0  0
    1.1342   -5.6744    2.4008 C   0  0  0  0  0  0  0  0  0  0  0  0
    0.8292   -4.9775    1.2651 C   0  0  0  0  0  0  0  0  0  0  0  0
    1.1003   -3.5479    1.3878 C   0  0  0  0  0  0  0  0  0  0  0  0
    1.7670   -3.0157    2.4665 C   0  0  0  0  0  0  0  0  0  0  0  0
    2.1310   -3.7738    3.4960 C   0  0  0  0  0  0  0  0  0  0  0  0
  3  4  1  0
  6 13  1  0
 13 14  1  0
 14 15  2  3
 15 16  1  0
 16 17  2  0
  1  2  2  0
  2  3  1  0
  3  8  2  0
  7  8  1  0
  6  7  2  0
  1  6  1  0
  4  5  2  0
  5  9  1  0
  9 10  2  0
 10 11  1  0
 11 12  2  0
  4 12  1  0
M  END

$$$$
No_3971-/export/home/yangzhenyu/potential_scad_32_flow//YTHDC2/2024-12-06-03-22-00/
     RDKit          3D

 18 19  0  0  0  0  0  0  0  0999 V2000
    1.1787   -8.0297    3.5154 C   0  0  0  0  0  0  0  0  0  0  0  0
    1.1048   -9.2215    3.2892 C   0  0  0  0  0  0  0  0  0  0  0  0
    1.2339   -9.7611    2.0189 C   0  0  0  0  0  0  0  0  0  0  0  0
    1.3583   -9.0036    0.9764 C   0  0  0  0  0  0  0  0  0  0  0  0
    1.5996   -7.6362    1.1311 C   0  0  0  0  0  0  0  0  0  0  0  0
    1.4830   -7.0928    2.3626 C   0  0  0  0  0  0  0  0  0  0  0  0
    1.5395   -5.7300    2.6182 C   0  0  0  0  0  0  0  0  0  0  0  0
    1.1969  -11.3760    1.8433 C   0  0  0  0  0  0  0  0  0  0  0  0
    0.2951  -11.9827    2.0623 C   0  0  0  0  0  0  0  0  0  0  0  0
    0.2264  -13.3724    1.9493 C   0  0  0  0  0  0  0  0  0  0  0  0
    1.4727  -14.1738    2.3955 C   0  0  0  0  0  0  0  0  0  0  0  0
    1.4306  -15.5668    2.3920 C   0  0  0  0  0  0  0  0  0  0  0  0
    0.2470  -16.1857    2.4418 C   0  0  0  0  0  0  0  0  0  0  0  0
   -0.9193  -15.5059    2.2149 C   0  0  0  0  0  0  0  0  0  0  0  0
   -0.9077  -14.1468    2.0569 C   0  0  0  0  0  0  0  0  0  0  0  0
   -2.0928  -13.4695    1.8977 C   0  0  0  0  0  0  0  0  0  0  0  0
   -2.6648  -13.0899    0.7874 C   0  0  0  0  0  0  0  0  0  0  0  0
   -2.3464  -13.5382   -0.3519 C   0  0  0  0  0  0  0  0  0  0  0  0
  6  7  1  0
  3  8  1  0
  8  9  2  3
  9 10  1  0
 15 16  1  0
 16 17  1  0
 17 18  1  0
  1  2  2  0
  2  3  1  0
  3  4  2  0
  4  5  1  0
  5  6  2  0
  1  6  1  0
 10 11  2  0
 11 12  1  0
 12 13  2  0
 13 14  1  0
 14 15  2  0
 10 15  1  0
M  END

$$$$
No_3972-/export/home/yangzhenyu/potential_scad_32_flow//YTHDC2/2024-12-06-03-22-00/
     RDKit          3D

 19 20  0  0  0  0  0  0  0  0999 V2000
    1.1787   -8.0297    3.5154 C   0  0  0  0  0  0  0  0  0  0  0  0
    1.1048   -9.2215    3.2892 C   0  0  0  0  0  0  0  0  0  0  0  0
    1.2339   -9.7611    2.0189 C   0  0  0  0  0  0  0  0  0  0  0  0
    1.3583   -9.0036    0.9764 C   0  0  0  0  0  0  0  0  0  0  0  0
    1.5996   -7.6362    1.1311 C   0  0  0  0  0  0  0  0  0  0  0  0
    1.4830   -7.0928    2.3626 C   0  0  0  0  0  0  0  0  0  0  0  0
    1.4898   -5.7274    2.6199 C   0  0  0  0  0  0  0  0  0  0  0  0
    1.1681  -11.2222    1.8390 C   0  0  0  0  0  0  0  0  0  0  0  0
    1.9047  -12.1147    2.3357 C   0  0  0  0  0  0  0  0  0  0  0  0
    1.6844  -13.4555    2.0602 C   0  0  0  0  0  0  0  0  0  0  0  0
    0.6977  -13.8514    1.3046 C   0  0  0  0  0  0  0  0  0  0  0  0
   -0.1168  -12.9151    0.6554 C   0  0  0  0  0  0  0  0  0  0  0  0
    0.1481  -11.5441    0.9254 C   0  0  0  0  0  0  0  0  0  0  0  0
    1.2485   -4.8600    1.6197 C   0  0  0  0  0  0  0  0  0  0  0  0
    0.5692   -3.7582    1.8347 O   0  0  0  0  0  0  0  0  0  0  0  0
    2.6251  -14.5846    2.8604 O   0  0  0  0  0  0  0  0  0  0  0  0
   -0.7808  -10.7198    0.4414 C   0  0  0  0  0  0  0  0  0  0  0  0
   -0.8293  -10.3044   -0.8588 O   0  0  0  0  0  0  0  0  0  0  0  0
   -1.8506  -10.2256    1.1914 O   0  0  0  0  0  0  0  0  0  0  0  0
  6  7  1  0
  3  8  1  0
  7 14  2  3
 14 15  1  0
 10 16  1  0
 13 17  1  0
 17 18  1  0
 17 19  2  0
  1  2  2  0
  2  3  1  0
  3  4  2  0
  4  5  1  0
  5  6  2  0
  1  6  1  0
  8  9  2  0
  9 10  1  0
 10 11  2  0
 11 12  1  0
 12 13  2  0
  8 13  1  0
M  END

$$$$
No_3973-/export/home/yangzhenyu/potential_scad_32_flow//YTHDC2/2024-12-06-03-22-00/
     RDKit          3D

 18 18  0  0  0  0  0  0  0  0999 V2000
    1.1787   -8.0297    3.5154 C   0  0  0  0  0  0  0  0  0  0  0  0
    1.1048   -9.2215    3.2892 C   0  0  0  0  0  0  0  0  0  0  0  0
    1.3627  -10.1721    4.3044 C   0  0  0  0  0  0  0  0  0  0  0  0
    1.7354  -11.4730    3.9023 C   0  0  0  0  0  0  0  0  0  0  0  0
    1.8080  -11.8127    2.7216 C   0  0  0  0  0  0  0  0  0  0  0  0
    1.5854  -11.0021    1.7249 C   0  0  0  0  0  0  0  0  0  0  0  0
    1.3573   -9.7389    1.9287 C   0  0  0  0  0  0  0  0  0  0  0  0
    1.1102   -8.8712    0.9017 C   0  0  0  0  0  0  0  0  0  0  0  0
    1.5724   -9.1697   -0.3048 C   0  0  0  0  0  0  0  0  0  0  0  0
    0.9145   -9.0379   -1.4184 O   0  0  0  0  0  0  0  0  0  0  0  0
    2.9200   -9.2910   -0.5558 O   0  0  0  0  0  0  0  0  0  0  0  0
    2.0659  -13.2350    2.3968 O   0  0  0  0  0  0  0  0  0  0  0  0
    0.1239   -7.2115    3.3663 O   0  0  0  0  0  0  0  0  0  0  0  0
    1.8806  -13.8173    1.1934 C   0  0  0  0  0  0  0  0  0  0  0  0
    2.2340   -7.1740    3.8206 O   0  0  0  0  0  0  0  0  0  0  0  0
    1.0778  -14.9132    1.4068 C   0  0  0  0  0  0  0  0  0  0  0  0
    0.2626  -15.0604    0.4338 C   0  0  0  0  0  0  0  0  0  0  0  0
   -0.2977  -14.0213   -0.2553 C   0  0  0  0  0  0  0  0  0  0  0  0
  1  2  1  0
  7  8  1  0
  8  9  1  0
  9 10  2  0
  9 11  1  0
  5 12  1  0
  1 13  1  0
 12 14  1  0
  1 15  2  0
 14 16  1  0
 16 17  1  0
 17 18  1  0
  2  3  2  0
  3  4  1  0
  4  5  2  0
  5  6  1  0
  6  7  2  0
  2  7  1  0
M  END

$$$$
No_3974-/export/home/yangzhenyu/potential_scad_32_flow//YTHDC2/2024-12-06-03-22-00/
     RDKit          3D

 18 19  0  0  0  0  0  0  0  0999 V2000
    1.1787   -8.0297    3.5154 C   0  0  0  0  0  0  0  0  0  0  0  0
    1.1048   -9.2215    3.2892 C   0  0  0  0  0  0  0  0  0  0  0  0
    1.3627  -10.1721    4.3044 C   0  0  0  0  0  0  0  0  0  0  0  0
    1.0682  -11.5187    4.0618 C   0  0  0  0  0  0  0  0  0  0  0  0
    0.6332  -11.9655    2.9682 C   0  0  0  0  0  0  0  0  0  0  0  0
    0.4776  -11.1308    1.9203 C   0  0  0  0  0  0  0  0  0  0  0  0
    0.7470   -9.8274    2.0368 C   0  0  0  0  0  0  0  0  0  0  0  0
    1.0387   -7.0301    2.5175 C   0  0  0  0  0  0  0  0  0  0  0  0
    0.9130   -7.5288    1.2013 C   0  0  0  0  0  0  0  0  0  0  0  0
    0.7893   -8.7979    0.9542 C   0  0  0  0  0  0  0  0  0  0  0  0
    0.5241   -9.2578   -0.2817 C   0  0  0  0  0  0  0  0  0  0  0  0
   -0.7560   -9.7391   -0.6285 O   0  0  0  0  0  0  0  0  0  0  0  0
    1.3013   -8.9300   -1.2618 O   0  0  0  0  0  0  0  0  0  0  0  0
    0.5064  -13.3732    2.6887 C   0  0  0  0  0  0  0  0  0  0  0  0
    1.4653  -14.2195    3.1737 Br  0  0  0  0  0  0  0  0  0  0  0  0
    1.3058   -5.5999    2.7024 Cl  0  0  0  0  0  0  0  0  0  0  0  0
   -0.5683  -13.7210    1.9364 C   0  0  0  0  0  0  0  0  0  0  0  0
   -0.4774  -14.1587    0.6695 O   0  0  0  0  0  0  0  0  0  0  0  0
 10 11  1  0
 11 12  2  0
 11 13  1  0
  5 14  1  0
 14 15  1  0
  8 16  1  0
 14 17  1  0
 17 18  2  0
  2  3  1  0
  3  4  2  0
  4  5  1  0
  5  6  2  0
  6  7  1  0
  1  2  2  0
  2  7  1  0
  7 10  2  0
  9 10  1  0
  8  9  2  0
  1  8  1  0
M  END

$$$$
No_3975-/export/home/yangzhenyu/potential_scad_32_flow//YTHDC2/2024-12-06-03-22-00/
     RDKit          3D

 18 19  0  0  1  0  0  0  0  0999 V2000
    1.1787   -8.0297    3.5154 C   0  0  0  0  0  0  0  0  0  0  0  0
    1.0491   -6.8434    2.9820 C   0  0  1  0  0  0  0  0  0  0  0  0
    0.9905   -9.0774    2.6527 C   0  0  1  0  0  0  0  0  0  0  0  0
    0.7897   -8.9519    1.3691 C   0  0  0  0  0  0  0  0  0  0  0  0
    0.7018   -7.7198    0.7892 C   0  0  0  0  0  0  0  0  0  0  0  0
    1.4312   -5.5794    3.7443 C   0  0  0  0  0  0  0  0  0  0  0  0
    0.9426   -6.6664    1.5322 C   0  0  0  0  0  0  0  0  0  0  0  0
    0.9111   -5.4001    1.0251 O   0  0  0  0  0  0  0  0  0  0  0  0
    1.1071  -10.5041    3.1810 C   0  0  2  0  0  0  0  0  0  0  0  0
    2.2672  -10.9371    3.6173 C   0  0  0  0  0  0  0  0  0  0  0  0
    2.2295  -12.2826    4.0897 N   0  0  0  0  0  0  0  0  0  0  0  0
    1.1176  -12.8049    3.6436 N   0  0  0  0  0  0  0  0  0  0  0  0
    0.4289  -11.6360    3.1300 C   0  0  0  0  0  0  0  0  0  0  0  0
   -0.8162  -11.7785    2.7529 O   0  0  0  0  0  0  0  0  0  0  0  0
    2.6892   -5.3147    4.0510 O   0  0  0  0  0  0  0  0  0  0  0  0
    0.4796   -4.6490    3.7226 N   0  0  0  0  0  0  0  0  0  0  0  0
    0.8181   -3.3857    4.2721 C   0  0  0  0  0  0  0  0  0  0  0  0
   -0.3801   -2.4638    4.4483 C   0  0  0  0  0  0  0  0  0  0  0  0
  1  2  1  0
  3  4  1  6
  2  6  1  6
  2  7  1  0
  5  7  1  0
  7  8  2  0
  3  9  1  0
  9 10  1  6
 10 11  2  0
 11 12  1  0
  9 13  1  0
 12 13  1  0
 13 14  2  0
  6 15  2  0
  6 16  1  0
 16 17  1  0
 17 18  1  0
  1  3  1  0
  4  5  1  0
M  END

$$$$
No_3976-/export/home/yangzhenyu/potential_scad_32_flow//YTHDC2/2024-12-06-03-22-00/
     RDKit          3D

 12 12  0  0  0  0  0  0  0  0999 V2000
    1.1787   -8.0297    3.5154 C   0  0  0  0  0  0  0  0  0  0  0  0
    1.1048   -9.2215    3.2892 C   0  0  0  0  0  0  0  0  0  0  0  0
    1.2339   -9.7611    2.0189 C   0  0  0  0  0  0  0  0  0  0  0  0
    1.4306   -8.9466    1.1170 C   0  0  0  0  0  0  0  0  0  0  0  0
    1.6532   -7.5949    1.1786 C   0  0  0  0  0  0  0  0  0  0  0  0
    1.4973   -7.0739    2.4258 C   0  0  0  0  0  0  0  0  0  0  0  0
    1.6687   -9.4437   -0.3021 C   0  0  0  0  0  0  0  0  0  0  0  0
    2.3503   -8.9872   -1.1111 O   0  0  0  0  0  0  0  0  0  0  0  0
    1.1487  -10.6274   -0.5905 O   0  0  0  0  0  0  0  0  0  0  0  0
    0.8488  -10.3381    4.5620 Cl  0  0  0  0  0  0  0  0  0  0  0  0
    1.5350   -5.6256    2.7481 Cl  0  0  0  0  0  0  0  0  0  0  0  0
    1.2045  -11.1688    1.9053 Cl  0  0  0  0  0  0  0  0  0  0  0  0
  4  7  1  0
  7  8  2  0
  7  9  1  0
  2 10  1  0
  6 11  1  0
  3 12  1  0
  1  2  2  0
  2  3  1  0
  3  4  2  0
  4  5  1  0
  5  6  2  0
  1  6  1  0
M  END

$$$$
No_3977-/export/home/yangzhenyu/potential_scad_32_flow//YTHDC2/2024-12-06-03-22-00/
     RDKit          3D

 18 18  0  0  0  0  0  0  0  0999 V2000
    1.1787   -8.0297    3.5154 C   0  0  0  0  0  0  0  0  0  0  0  0
    1.1048   -9.2215    3.2892 C   0  0  0  0  0  0  0  0  0  0  0  0
    1.2339   -9.7611    2.0189 C   0  0  0  0  0  0  0  0  0  0  0  0
    1.3583   -9.0036    0.9764 C   0  0  0  0  0  0  0  0  0  0  0  0
    1.5996   -7.6362    1.1311 C   0  0  0  0  0  0  0  0  0  0  0  0
    1.4830   -7.0928    2.3626 C   0  0  0  0  0  0  0  0  0  0  0  0
    1.4898   -5.7274    2.6199 C   0  0  0  0  0  0  0  0  0  0  0  0
    1.1681  -11.2222    1.8390 I   0  0  0  0  0  0  0  0  0  0  0  0
    1.2634   -4.8525    1.6214 O   0  0  0  0  0  0  0  0  0  0  0  0
    1.7595   -5.1510    3.7745 O   0  0  0  0  0  0  0  0  0  0  0  0
    1.5119   -9.4633   -0.3372 C   0  0  0  0  0  0  0  0  0  0  0  0
    1.3111   -8.8628   -1.3475 O   0  0  0  0  0  0  0  0  0  0  0  0
    2.2010  -10.3621   -0.6186 O   0  0  0  0  0  0  0  0  0  0  0  0
    0.8882  -10.1010    4.4214 C   0  0  0  0  0  0  0  0  0  0  0  0
   -0.5535  -10.4600    4.6192 O   0  0  0  0  0  0  0  0  0  0  0  0
    1.7078  -10.6884    5.1330 O   0  0  0  0  0  0  0  0  0  0  0  0
    0.5909   -3.6082    1.7585 C   0  0  0  0  0  0  0  0  0  0  0  0
    1.4553   -2.6017    1.6544 C   0  0  0  0  0  0  0  0  0  0  0  0
  6  7  1  0
  3  8  1  0
  7  9  1  0
  7 10  2  0
  4 11  1  0
 11 12  1  0
 11 13  2  0
  2 14  1  0
 14 15  2  0
 14 16  1  0
  9 17  1  0
 17 18  1  0
  1  2  2  0
  2  3  1  0
  3  4  2  0
  4  5  1  0
  5  6  2  0
  1  6  1  0
M  END

$$$$
No_3978-/export/home/yangzhenyu/potential_scad_32_flow//YTHDC2/2024-12-06-03-22-00/
     RDKit          3D

 18 18  0  0  0  0  0  0  0  0999 V2000
    1.1787   -8.0297    3.5154 C   0  0  0  0  0  0  0  0  0  0  0  0
    1.0491   -6.8434    2.9820 C   0  0  0  0  0  0  0  0  0  0  0  0
    0.9905   -9.0774    2.6527 C   0  0  0  0  0  0  0  0  0  0  0  0
    0.9687   -8.6883    1.3634 C   0  0  0  0  0  0  0  0  0  0  0  0
    1.0948   -6.3768    1.7686 C   0  0  0  0  0  0  0  0  0  0  0  0
    0.9504   -7.3975    0.8471 C   0  0  0  0  0  0  0  0  0  0  0  0
    0.9617   -9.7173    0.3352 C   0  0  0  0  0  0  0  0  0  0  0  0
    0.7096   -9.5224   -0.9434 O   0  0  0  0  0  0  0  0  0  0  0  0
    1.4181  -11.0071    0.5824 O   0  0  0  0  0  0  0  0  0  0  0  0
    1.0482   -5.0416    1.3644 I   0  0  0  0  0  0  0  0  0  0  0  0
    1.1514  -10.4410    3.0772 N   0  0  0  0  0  0  0  0  0  0  0  0
    0.1409  -11.1468    3.4252 C   0  0  0  0  0  0  0  0  0  0  0  0
   -0.5204  -11.6170    2.7867 O   0  0  0  0  0  0  0  0  0  0  0  0
    0.4670  -11.8828    4.6999 C   0  0  0  0  0  0  0  0  0  0  0  0
    1.3502  -11.0975    5.5218 C   0  0  0  0  0  0  0  0  0  0  0  0
    2.7542  -11.2620    5.2244 C   0  0  0  0  0  0  0  0  0  0  0  0
    3.5825  -10.1304    5.8484 O   0  0  0  0  0  0  0  0  0  0  0  0
    3.3692  -11.7066    4.4235 O   0  0  0  0  0  0  0  0  0  0  0  0
  4  7  1  0
  7  8  2  0
  7  9  1  0
  5 10  1  0
  3 11  1  0
 11 12  1  0
 12 13  2  0
 12 14  1  0
 14 15  1  0
 15 16  1  0
 16 17  1  0
 16 18  2  0
  1  2  2  0
  2  5  1  0
  5  6  2  0
  4  6  1  0
  3  4  2  0
  1  3  1  0
M  END

$$$$
No_3979-/export/home/yangzhenyu/potential_scad_32_flow//YTHDC2/2024-12-06-03-22-00/
     RDKit          3D

 18 19  0  0  0  0  0  0  0  0999 V2000
    1.1787   -8.0297    3.5154 C   0  0  0  0  0  0  0  0  0  0  0  0
    1.1048   -9.2215    3.2892 C   0  0  0  0  0  0  0  0  0  0  0  0
    1.2339   -9.7611    2.0189 C   0  0  0  0  0  0  0  0  0  0  0  0
    1.3583   -9.0036    0.9764 C   0  0  0  0  0  0  0  0  0  0  0  0
    1.5996   -7.6362    1.1311 C   0  0  0  0  0  0  0  0  0  0  0  0
    1.4830   -7.0928    2.3626 C   0  0  0  0  0  0  0  0  0  0  0  0
    1.5395   -5.7300    2.6182 C   0  0  0  0  0  0  0  0  0  0  0  0
    1.1775  -11.2233    1.8407 C   0  0  0  0  0  0  0  0  0  0  0  0
    0.5085  -11.9762    2.1989 C   0  0  0  0  0  0  0  0  0  0  0  0
    0.4247  -13.3704    2.0465 C   0  0  0  0  0  0  0  0  0  0  0  0
    1.6054  -14.1557    2.4664 C   0  0  0  0  0  0  0  0  0  0  0  0
    1.8317  -15.3638    2.3262 C   0  0  0  0  0  0  0  0  0  0  0  0
    0.9230  -16.1669    1.7304 C   0  0  0  0  0  0  0  0  0  0  0  0
   -0.2162  -15.6318    1.2999 C   0  0  0  0  0  0  0  0  0  0  0  0
   -0.4565  -14.2720    1.4479 C   0  0  0  0  0  0  0  0  0  0  0  0
   -1.6024  -13.7137    0.8986 C   0  0  0  0  0  0  0  0  0  0  0  0
   -2.7672  -13.8005    1.4793 C   0  0  0  0  0  0  0  0  0  0  0  0
   -3.9505  -13.1805    0.8159 N   0  0  0  0  0  0  0  0  0  0  0  0
  6  7  1  0
  3  8  1  0
  8  9  2  3
  9 10  1  0
 15 16  1  0
 16 17  2  3
 17 18  1  0
  1  2  2  0
  2  3  1  0
  3  4  2  0
  4  5  1  0
  5  6  2  0
  1  6  1  0
 10 11  2  0
 11 12  1  0
 12 13  2  0
 13 14  1  0
 14 15  2  0
 10 15  1  0
M  END

$$$$
No_3980-/export/home/yangzhenyu/potential_scad_32_flow//YTHDC2/2024-12-06-03-22-00/
     RDKit          3D

 19 20  0  0  0  0  0  0  0  0999 V2000
    1.1787   -8.0297    3.5154 N   0  0  0  0  0  0  0  0  0  0  0  0
    1.0818   -9.0751    3.2053 C   0  0  0  0  0  0  0  0  0  0  0  0
    0.7576   -9.3725    1.9159 C   0  0  0  0  0  0  0  0  0  0  0  0
    0.7445  -10.8746    1.6491 C   0  0  0  0  0  0  0  0  0  0  0  0
    0.9910  -11.7526    2.6067 C   0  0  0  0  0  0  0  0  0  0  0  0
    1.4405  -11.4331    3.8064 C   0  0  0  0  0  0  0  0  0  0  0  0
    1.4304  -10.0463    4.1669 C   0  0  0  0  0  0  0  0  0  0  0  0
    1.3496   -7.0184    3.6589 C   0  0  0  0  0  0  0  0  0  0  0  0
    0.9988  -13.1780    2.1838 C   0  0  0  0  0  0  0  0  0  0  0  0
    2.0325  -13.8917    2.0648 N   0  0  0  0  0  0  0  0  0  0  0  0
    1.5740   -6.0393    2.7267 N   0  0  0  0  0  0  0  0  0  0  0  0
    1.9437  -15.2330    1.8275 C   0  0  0  0  0  0  0  0  0  0  0  0
    0.7520  -15.7928    1.7336 C   0  0  0  0  0  0  0  0  0  0  0  0
    0.5951  -17.1697    1.6066 C   0  0  0  0  0  0  0  0  0  0  0  0
    1.6934  -17.9649    1.8091 C   0  0  0  0  0  0  0  0  0  0  0  0
    2.9637  -17.4297    2.1148 C   0  0  0  0  0  0  0  0  0  0  0  0
    3.1218  -16.0104    2.1243 C   0  0  0  0  0  0  0  0  0  0  0  0
   -0.2819  -13.5596    2.1199 O   0  0  0  0  0  0  0  0  0  0  0  0
    1.2732   -6.4068    1.4369 C   0  0  0  0  0  0  0  0  0  0  0  0
  1  2  1  0
  1  8  2  3
  5  9  1  0
  9 10  1  0
  8 11  1  0
 10 12  1  0
  9 18  2  0
 11 19  1  0
 12 13  2  0
 13 14  1  0
 14 15  2  0
 15 16  1  0
 16 17  2  0
 12 17  1  0
  2  3  2  0
  3  4  1  0
  4  5  2  0
  5  6  1  0
  6  7  2  0
  2  7  1  0
M  END

$$$$
No_3981-/export/home/yangzhenyu/potential_scad_32_flow//YTHDC2/2024-12-06-03-22-00/
     RDKit          3D

 19 21  0  0  0  0  0  0  0  0999 V2000
    1.1787   -8.0297    3.5154 C   0  0  0  0  0  0  0  0  0  0  0  0
    1.0491   -6.8434    2.9820 C   0  0  0  0  0  0  0  0  0  0  0  0
    1.9985   -8.9840    2.8958 C   0  0  0  0  0  0  0  0  0  0  0  0
    1.9135  -10.3404    3.6266 C   0  0  0  0  0  0  0  0  0  0  0  0
    0.7479  -10.9191    3.7202 C   0  0  0  0  0  0  0  0  0  0  0  0
    0.2782   -6.7158    1.8352 C   0  0  0  0  0  0  0  0  0  0  0  0
    0.0493   -5.5581    1.3972 C   0  0  0  0  0  0  0  0  0  0  0  0
   -0.2575  -10.4055    3.7966 C   0  0  0  0  0  0  0  0  0  0  0  0
   -0.2566   -8.8480    3.7338 C   0  0  0  0  0  0  0  0  0  0  0  0
    0.7300   -4.3839    1.8634 C   0  0  0  0  0  0  0  0  0  0  0  0
    1.7218   -4.6133    2.9968 C   0  0  0  0  0  0  0  0  0  0  0  0
    1.7988   -5.8762    3.5184 C   0  0  0  0  0  0  0  0  0  0  0  0
    0.8833  -12.3756    3.8643 C   0  0  0  0  0  0  0  0  0  0  0  0
    0.0354  -13.1000    2.9472 C   0  0  0  0  0  0  0  0  0  0  0  0
    0.1422  -14.6037    3.1108 C   0  0  0  0  0  0  0  0  0  0  0  0
   -0.6087  -15.3415    2.4743 C   0  0  0  0  0  0  0  0  0  0  0  0
   -1.6005  -14.8601    1.6379 C   0  0  0  0  0  0  0  0  0  0  0  0
   -1.6329  -13.4405    1.4108 C   0  0  0  0  0  0  0  0  0  0  0  0
   -0.7764  -12.5909    2.0384 C   0  0  0  0  0  0  0  0  0  0  0  0
  1  2  1  0
  5 13  1  0
 13 14  1  0
 14 15  2  0
 15 16  1  0
 16 17  2  0
 17 18  1  0
 18 19  2  0
 14 19  1  0
  2  6  2  0
  6  7  1  0
  7 10  2  0
 10 11  1  0
 11 12  2  0
  2 12  1  0
  1  3  2  0
  3  4  1  0
  4  5  2  0
  5  8  1  0
  8  9  2  0
  1  9  1  0
M  END

$$$$
No_3982-/export/home/yangzhenyu/potential_scad_32_flow//YTHDC2/2024-12-06-03-22-00/
     RDKit          3D

 17 19  0  0  0  0  0  0  0  0999 V2000
    1.1787   -8.0297    3.5154 C   0  0  0  0  0  0  0  0  0  0  0  0
    1.1048   -9.2215    3.2892 C   0  0  0  0  0  0  0  0  0  0  0  0
    1.3627  -10.1721    4.3044 C   0  0  0  0  0  0  0  0  0  0  0  0
    1.0682  -11.5187    4.0618 C   0  0  0  0  0  0  0  0  0  0  0  0
    0.6332  -11.9655    2.9682 C   0  0  0  0  0  0  0  0  0  0  0  0
    0.4776  -11.1308    1.9203 C   0  0  0  0  0  0  0  0  0  0  0  0
    0.7470   -9.8274    2.0368 C   0  0  0  0  0  0  0  0  0  0  0  0
    0.5535   -7.1314    2.6861 C   0  0  0  0  0  0  0  0  0  0  0  0
    0.2950   -7.6000    1.3275 C   0  0  0  0  0  0  0  0  0  0  0  0
    0.2693   -8.8631    1.0973 C   0  0  0  0  0  0  0  0  0  0  0  0
    0.4787  -13.3960    2.7088 C   0  0  0  0  0  0  0  0  0  0  0  0
    1.3658  -14.3257    3.1313 N   0  0  0  0  0  0  0  0  0  0  0  0
   -0.5167  -13.8177    1.9589 C   0  0  0  0  0  0  0  0  0  0  0  0
    1.1632  -15.6083    2.9181 C   0  0  0  0  0  0  0  0  0  0  0  0
    0.1784  -16.0620    2.2683 C   0  0  0  0  0  0  0  0  0  0  0  0
   -0.6838  -15.1414    1.7545 C   0  0  0  0  0  0  0  0  0  0  0  0
   -0.1181   -9.2527   -0.2073 C   0  0  0  0  0  0  0  0  0  0  0  0
  5 11  1  0
 10 17  1  0
  2  3  1  0
  3  4  2  0
  4  5  1  0
  5  6  2  0
  6  7  1  0
 11 12  2  0
 12 14  1  0
 14 15  2  0
 15 16  1  0
 13 16  2  0
 11 13  1  0
  1  2  2  0
  2  7  1  0
  7 10  2  0
  9 10  1  0
  8  9  2  0
  1  8  1  0
M  END

$$$$
No_3983-/export/home/yangzhenyu/potential_scad_32_flow//YTHDC2/2024-12-06-03-22-00/
     RDKit          3D

 18 19  0  0  0  0  0  0  0  0999 V2000
    1.1787   -8.0297    3.5154 C   0  0  0  0  0  0  0  0  0  0  0  0
    1.0491   -6.8434    2.9820 C   0  0  0  0  0  0  0  0  0  0  0  0
    0.9905   -9.0774    2.6527 C   0  0  0  0  0  0  0  0  0  0  0  0
    0.9687   -8.6883    1.3634 C   0  0  0  0  0  0  0  0  0  0  0  0
    1.0948   -6.3768    1.7686 C   0  0  0  0  0  0  0  0  0  0  0  0
    0.9504   -7.3975    0.8471 C   0  0  0  0  0  0  0  0  0  0  0  0
    1.0365  -10.4249    2.9992 C   0  0  0  0  0  0  0  0  0  0  0  0
    2.1481  -10.9990    3.3342 C   0  0  0  0  0  0  0  0  0  0  0  0
    2.1532  -12.3227    3.7886 C   0  0  0  0  0  0  0  0  0  0  0  0
    0.8472  -12.8463    3.5757 C   0  0  0  0  0  0  0  0  0  0  0  0
   -0.1625  -12.3264    3.2696 C   0  0  0  0  0  0  0  0  0  0  0  0
   -0.1211  -10.9763    2.9604 C   0  0  0  0  0  0  0  0  0  0  0  0
    1.0679   -5.0447    1.2603 C   0  0  0  0  0  0  0  0  0  0  0  0
    0.2565   -4.1352    2.1105 N   0  0  0  0  0  0  0  0  0  0  0  0
   -1.0784   -4.0705    1.8746 C   0  0  0  0  0  0  0  0  0  0  0  0
   -1.5112   -4.1961    0.7539 C   0  0  0  0  0  0  0  0  0  0  0  0
   -2.7297   -4.0191    0.5775 C   0  0  0  0  0  0  0  0  0  0  0  0
   -3.6591   -3.8221    1.6558 C   0  0  0  0  0  0  0  0  0  0  0  0
  3  7  1  0
  5 13  1  0
 13 14  1  0
 14 15  1  0
 15 16  1  0
 16 17  2  3
 17 18  1  0
  1  2  2  0
  2  5  1  0
  5  6  2  0
  4  6  1  0
  3  4  2  0
  1  3  1  0
  7  8  2  0
  8  9  1  0
  9 10  2  0
 10 11  1  0
 11 12  2  0
  7 12  1  0
M  END

$$$$
No_3984-/export/home/yangzhenyu/potential_scad_32_flow//YTHDC2/2024-12-06-03-22-00/
     RDKit          3D

 17 18  0  0  0  0  0  0  0  0999 V2000
    1.1787   -8.0297    3.5154 C   0  0  0  0  0  0  0  0  0  0  0  0
    1.0491   -6.8434    2.9820 C   0  0  0  0  0  0  0  0  0  0  0  0
    1.9985   -8.9840    2.8958 C   0  0  0  0  0  0  0  0  0  0  0  0
    1.9135  -10.3404    3.6266 C   0  0  0  0  0  0  0  0  0  0  0  0
    1.3291  -11.3908    3.0222 C   0  0  0  0  0  0  0  0  0  0  0  0
    1.0344  -11.3281    1.7959 C   0  0  0  0  0  0  0  0  0  0  0  0
    1.7340   -5.8103    3.4001 C   0  0  0  0  0  0  0  0  0  0  0  0
    0.4356  -12.5675    1.2737 C   0  0  0  0  0  0  0  0  0  0  0  0
    0.2236  -13.6776    2.0468 C   0  0  0  0  0  0  0  0  0  0  0  0
    0.6807  -13.6076    3.4235 C   0  0  0  0  0  0  0  0  0  0  0  0
    1.2211  -12.4523    3.9132 C   0  0  0  0  0  0  0  0  0  0  0  0
    1.3787   -4.4913    2.8285 C   0  0  0  0  0  0  0  0  0  0  0  0
    0.5680   -4.3686    1.8209 C   0  0  0  0  0  0  0  0  0  0  0  0
   -0.0250   -5.5064    1.2910 C   0  0  0  0  0  0  0  0  0  0  0  0
    0.1881   -6.7586    1.8265 C   0  0  0  0  0  0  0  0  0  0  0  0
   -0.5585   -7.7956    1.4530 C   0  0  0  0  0  0  0  0  0  0  0  0
   -0.6896   -8.3694    0.3649 O   0  0  0  0  0  0  0  0  0  0  0  0
  1  2  1  0
  1  3  1  0
  3  4  1  0
  4  5  1  0
 15 16  1  0
 16 17  2  0
  5  6  2  0
  6  8  1  0
  8  9  2  0
  9 10  1  0
 10 11  2  0
  5 11  1  0
  2  7  2  0
  7 12  1  0
 12 13  2  0
 13 14  1  0
 14 15  2  0
  2 15  1  0
M  END

$$$$
No_3985-/export/home/yangzhenyu/potential_scad_32_flow//YTHDC2/2024-12-06-03-22-00/
     RDKit          3D

 14 15  0  0  0  0  0  0  0  0999 V2000
    1.1787   -8.0297    3.5154 C   0  0  0  0  0  0  0  0  0  0  0  0
    1.1048   -9.2215    3.2892 C   0  0  0  0  0  0  0  0  0  0  0  0
    1.2339   -9.7611    2.0189 C   0  0  0  0  0  0  0  0  0  0  0  0
    1.1954  -11.2312    1.8661 C   0  0  0  0  0  0  0  0  0  0  0  0
    1.5546  -12.1691    2.7931 C   0  0  0  0  0  0  0  0  0  0  0  0
    0.9527   -7.0669    2.3918 C   0  0  0  0  0  0  0  0  0  0  0  0
    1.0618   -7.6392    1.0692 C   0  0  0  0  0  0  0  0  0  0  0  0
    1.2060   -8.9530    0.8578 C   0  0  0  0  0  0  0  0  0  0  0  0
    1.5110  -13.5006    2.3856 C   0  0  0  0  0  0  0  0  0  0  0  0
    1.1461  -13.9087    1.2014 C   0  0  0  0  0  0  0  0  0  0  0  0
    0.9324  -13.0660    0.2177 C   0  0  0  0  0  0  0  0  0  0  0  0
    0.9275  -11.6786    0.5224 C   0  0  0  0  0  0  0  0  0  0  0  0
    1.0094   -5.6129    2.4729 C   0  0  0  0  0  0  0  0  0  0  0  0
    1.7702   -5.1447    3.4223 O   0  0  0  0  0  0  0  0  0  0  0  0
  3  4  1  0
  6 13  1  0
 13 14  1  0
  1  2  2  0
  2  3  1  0
  3  8  2  0
  7  8  1  0
  6  7  2  0
  1  6  1  0
  4  5  2  0
  5  9  1  0
  9 10  2  0
 10 11  1  0
 11 12  2  0
  4 12  1  0
M  END

$$$$
No_3986-/export/home/yangzhenyu/potential_scad_32_flow//YTHDC2/2024-12-06-03-22-00/
     RDKit          3D

 21 22  0  0  0  0  0  0  0  0999 V2000
    1.1787   -8.0297    3.5154 C   0  0  0  0  0  0  0  0  0  0  0  0
    1.0491   -6.8434    2.9820 C   0  0  0  0  0  0  0  0  0  0  0  0
    0.2462   -8.9560    3.0873 C   0  0  0  0  0  0  0  0  0  0  0  0
    0.3295   -6.5187    1.9069 C   0  0  0  0  0  0  0  0  0  0  0  0
    0.3283  -10.2725    3.7059 C   0  0  0  0  0  0  0  0  0  0  0  0
   -0.4404   -7.4628    1.4400 C   0  0  0  0  0  0  0  0  0  0  0  0
   -0.4655   -8.7076    1.9376 C   0  0  0  0  0  0  0  0  0  0  0  0
    0.2262  -11.4685    3.0231 C   0  0  0  0  0  0  0  0  0  0  0  0
    1.2924  -12.3870    3.2173 C   0  0  0  0  0  0  0  0  0  0  0  0
    1.2555  -13.5947    2.5910 C   0  0  0  0  0  0  0  0  0  0  0  0
    0.2411  -13.9897    1.9300 C   0  0  0  0  0  0  0  0  0  0  0  0
   -0.7044  -13.1400    1.5514 C   0  0  0  0  0  0  0  0  0  0  0  0
   -0.7061  -11.8927    2.0743 C   0  0  0  0  0  0  0  0  0  0  0  0
    0.5066   -5.2210    1.3079 C   0  0  0  0  0  0  0  0  0  0  0  0
   -0.4108   -4.6995    0.5619 O   0  0  0  0  0  0  0  0  0  0  0  0
    1.2792   -4.2454    1.9826 O   0  0  0  0  0  0  0  0  0  0  0  0
   -0.0320  -10.2691    5.0158 O   0  0  0  0  0  0  0  0  0  0  0  0
    0.3972  -15.2753    1.2805 C   0  0  0  0  0  0  0  0  0  0  0  0
   -0.2963  -16.0954    1.4798 N   0  0  0  0  0  0  0  0  0  0  0  0
   -1.0205  -16.2029    2.5394 C   0  0  0  0  0  0  0  0  0  0  0  0
   -2.2706  -16.0874    2.7543 C   0  0  0  0  0  0  0  0  0  0  0  0
  3  5  1  0
  5  8  1  0
  4 14  1  0
 14 15  2  0
 14 16  1  0
  5 17  2  0
 11 18  1  0
 18 19  1  0
 19 20  1  0
 20 21  1  0
  1  2  2  0
  2  4  1  0
  4  6  2  0
  6  7  1  0
  3  7  2  0
  1  3  1  0
  8  9  2  0
  9 10  1  0
 10 11  2  0
 11 12  1  0
 12 13  2  0
  8 13  1  0
M  END

$$$$
No_3987-/export/home/yangzhenyu/potential_scad_32_flow//YTHDC2/2024-12-06-03-22-00/
     RDKit          3D

 17 18  0  0  1  0  0  0  0  0999 V2000
    1.1787   -8.0297    3.5154 C   0  0  0  0  0  0  0  0  0  0  0  0
    1.1048   -9.2215    3.2892 C   0  0  0  0  0  0  0  0  0  0  0  0
    1.3627  -10.1721    4.3044 C   0  0  0  0  0  0  0  0  0  0  0  0
    1.0682  -11.5187    4.0618 C   0  0  0  0  0  0  0  0  0  0  0  0
    0.6332  -11.9655    2.9682 C   0  0  0  0  0  0  0  0  0  0  0  0
    0.4776  -11.1308    1.9203 C   0  0  0  0  0  0  0  0  0  0  0  0
    0.7470   -9.8274    2.0368 C   0  0  0  0  0  0  0  0  0  0  0  0
    0.5536   -7.1314    2.6861 N   0  0  0  0  0  0  0  0  0  0  0  0
    0.3069   -7.6119    1.3920 C   0  0  0  0  0  0  0  0  0  0  0  0
    0.2579   -8.8240    1.1187 C   0  0  0  0  0  0  0  0  0  0  0  0
   -0.0304   -6.6302    0.5461 O   0  0  0  0  0  0  0  0  0  0  0  0
    0.4905  -13.3927    2.7167 C   0  0  0  0  0  0  0  0  0  0  0  0
    0.9007  -13.9996    1.7082 C   0  0  1  0  0  0  0  0  0  0  0  0
    2.2625  -13.7919    1.2589 C   0  0  0  0  0  0  0  0  0  0  0  0
    0.7199  -15.4761    1.5952 C   0  0  0  0  0  0  0  0  0  0  0  0
    1.5598  -16.2866    2.3371 C   0  0  0  0  0  0  0  0  0  0  0  0
    1.1254  -17.4406    2.8844 C   0  0  0  0  0  0  0  0  0  0  0  0
  1  2  1  0
  8  9  1  0
  7 10  1  0
  9 10  1  0
  9 11  2  0
  5 12  1  0
 12 13  1  0
 13 14  1  1
 13 15  1  0
 15 16  1  0
 16 17  2  0
  1  8  1  0
  2  3  2  0
  3  4  1  0
  4  5  2  0
  5  6  1  0
  6  7  2  0
  2  7  1  0
M  END

$$$$
No_3988-/export/home/yangzhenyu/potential_scad_32_flow//YTHDC2/2024-12-06-03-22-00/
     RDKit          3D

 19 19  0  0  0  0  0  0  0  0999 V2000
    1.1787   -8.0297    3.5154 O   0  0  0  0  0  0  0  0  0  0  0  0
    0.6747   -7.4019    2.7838 C   0  0  0  0  0  0  0  0  0  0  0  0
    0.5570   -6.0797    2.8560 C   0  0  0  0  0  0  0  0  0  0  0  0
   -0.2158   -5.3007    2.0284 C   0  0  0  0  0  0  0  0  0  0  0  0
   -0.8260   -5.9169    1.0290 C   0  0  0  0  0  0  0  0  0  0  0  0
   -0.6925   -7.2407    0.8216 C   0  0  0  0  0  0  0  0  0  0  0  0
    0.1645   -8.0156    1.6621 C   0  0  0  0  0  0  0  0  0  0  0  0
    0.4049   -9.3434    1.4877 C   0  0  0  0  0  0  0  0  0  0  0  0
    1.4848   -9.6364    0.5257 C   0  0  0  0  0  0  0  0  0  0  0  0
    1.9880  -10.8099    0.3816 O   0  0  0  0  0  0  0  0  0  0  0  0
    1.7345   -8.8325   -0.6628 N   0  0  0  0  0  0  0  0  0  0  0  0
   -0.3600   -3.6498    2.3244 Cl  0  0  0  0  0  0  0  0  0  0  0  0
   -0.1480  -10.3069    2.0365 C   0  0  0  0  0  0  0  0  0  0  0  0
   -0.0762  -11.4721    2.2136 C   0  0  0  0  0  0  0  0  0  0  0  0
    1.1561  -12.0628    2.8384 C   0  0  0  0  0  0  0  0  0  0  0  0
    1.1427  -12.8174    3.8752 C   0  0  0  0  0  0  0  0  0  0  0  0
    1.6766  -14.1119    3.4001 C   0  0  0  0  0  0  0  0  0  0  0  0
    0.9940  -14.7026    2.2702 C   0  0  0  0  0  0  0  0  0  0  0  0
    1.3923  -15.9897    1.9753 C   0  0  0  0  0  0  0  0  0  0  0  0
  1  2  1  0
  7  8  1  0
  8  9  1  0
  9 10  2  0
  9 11  1  0
  4 12  1  0
  8 13  1  0
 13 14  2  3
 14 15  1  0
 15 16  1  0
 16 17  1  0
 17 18  1  0
 18 19  1  0
  2  3  2  0
  3  4  1  0
  4  5  2  0
  5  6  1  0
  6  7  2  0
  2  7  1  0
M  END

$$$$
No_3989-/export/home/yangzhenyu/potential_scad_32_flow//YTHDC2/2024-12-06-03-22-00/
     RDKit          3D

 21 22  0  0  1  0  0  0  0  0999 V2000
    1.1787   -8.0297    3.5154 C   0  0  0  0  0  0  0  0  0  0  0  0
    1.0491   -6.8434    2.9820 C   0  0  0  0  0  0  0  0  0  0  0  0
    0.9905   -9.0774    2.6527 C   0  0  0  0  0  0  0  0  0  0  0  0
    0.7897   -8.9519    1.3691 C   0  0  0  0  0  0  0  0  0  0  0  0
    0.7018   -7.7198    0.7892 C   0  0  0  0  0  0  0  0  0  0  0  0
    0.8918   -6.5957    1.6117 C   0  0  0  0  0  0  0  0  0  0  0  0
    1.0711  -10.4814    3.2282 C   0  0  2  0  0  0  0  0  0  0  0  0
    2.1432  -11.0138    3.5962 N   0  0  0  0  0  0  0  0  0  0  0  0
    0.0242  -11.2588    3.2421 C   0  0  0  0  0  0  0  0  0  0  0  0
    0.3273  -12.6679    3.3528 N   0  0  0  0  0  0  0  0  0  0  0  0
    1.7232  -12.4355    3.8177 C   0  0  0  0  0  0  0  0  0  0  0  0
    0.8306   -5.2906    1.0971 Cl  0  0  0  0  0  0  0  0  0  0  0  0
   -1.3534  -11.0908    2.9116 N   0  0  0  0  0  0  0  0  0  0  0  0
    0.5654  -10.1065    0.4558 C   0  0  0  0  0  0  0  0  0  0  0  0
    1.6838  -10.9063    0.1558 O   0  0  0  0  0  0  0  0  0  0  0  0
   -0.4954  -10.3283   -0.2027 O   0  0  0  0  0  0  0  0  0  0  0  0
   -2.0359   -9.9447    3.3146 C   0  0  0  0  0  0  0  0  0  0  0  0
   -2.2984   -9.8918    4.7298 C   0  0  0  0  0  0  0  0  0  0  0  0
   -2.7640   -8.6014    5.1517 C   0  0  0  0  0  0  0  0  0  0  0  0
   -2.9751   -7.5775    4.2670 C   0  0  0  0  0  0  0  0  0  0  0  0
   -2.6792   -7.6636    2.9496 C   0  0  0  0  0  0  0  0  0  0  0  0
  7  3  1  6
  7  8  1  0
  7  9  1  0
  9 10  2  0
  8 11  1  0
 10 11  1  0
  6 12  1  0
  9 13  1  0
  4 14  1  0
 14 15  1  0
 14 16  2  0
 13 17  1  0
 17 18  1  0
 18 19  2  3
 19 20  1  0
 20 21  2  0
  1  2  2  0
  2  6  1  0
  5  6  2  0
  4  5  1  0
  3  4  2  0
  1  3  1  0
M  END

$$$$
No_3990-/export/home/yangzhenyu/potential_scad_32_flow//YTHDC2/2024-12-06-03-22-00/
     RDKit          3D

 17 18  0  0  0  0  0  0  0  0999 V2000
    1.1787   -8.0297    3.5154 C   0  0  0  0  0  0  0  0  0  0  0  0
    1.0491   -6.8434    2.9820 C   0  0  0  0  0  0  0  0  0  0  0  0
    0.9905   -9.0774    2.6527 C   0  0  0  0  0  0  0  0  0  0  0  0
    0.7897   -8.9519    1.3691 C   0  0  0  0  0  0  0  0  0  0  0  0
    0.7018   -7.7198    0.7892 C   0  0  0  0  0  0  0  0  0  0  0  0
    0.8918   -6.5957    1.6117 C   0  0  0  0  0  0  0  0  0  0  0  0
    0.8294  -10.5944    3.4329 C   0  0  0  0  0  0  0  0  0  0  0  0
   -0.3177  -11.1296    3.4714 C   0  0  0  0  0  0  0  0  0  0  0  0
   -0.4290  -12.4732    3.2506 C   0  0  0  0  0  0  0  0  0  0  0  0
    0.6130  -13.3250    3.2834 C   0  0  0  0  0  0  0  0  0  0  0  0
    1.8987  -12.7183    3.1300 C   0  0  0  0  0  0  0  0  0  0  0  0
    2.0505  -11.3545    3.1523 C   0  0  0  0  0  0  0  0  0  0  0  0
    0.4778  -14.6627    3.2009 O   0  0  0  0  0  0  0  0  0  0  0  0
    0.8365   -5.2995    1.0603 Cl  0  0  0  0  0  0  0  0  0  0  0  0
   -0.3965  -15.2476    2.6328 C   0  0  0  0  0  0  0  0  0  0  0  0
    0.5430  -10.0977    0.4432 C   0  0  0  0  0  0  0  0  0  0  0  0
   -0.6379  -10.4633    0.2177 O   0  0  0  0  0  0  0  0  0  0  0  0
  3  7  1  0
 10 13  1  0
  6 14  1  0
 13 15  1  0
  4 16  1  0
 16 17  2  0
  1  2  2  0
  2  6  1  0
  5  6  2  0
  4  5  1  0
  3  4  2  0
  1  3  1  0
  7  8  2  0
  8  9  1  0
  9 10  2  0
 10 11  1  0
 11 12  2  0
  7 12  1  0
M  END

$$$$
No_3991-/export/home/yangzhenyu/potential_scad_32_flow//YTHDC2/2024-12-06-03-22-00/
     RDKit          3D

 19 20  0  0  1  0  0  0  0  0999 V2000
    1.1787   -8.0297    3.5154 C   0  0  0  0  0  0  0  0  0  0  0  0
    1.0491   -6.8434    2.9820 C   0  0  0  0  0  0  0  0  0  0  0  0
    0.9905   -9.0774    2.6527 C   0  0  0  0  0  0  0  0  0  0  0  0
    0.7897   -8.9519    1.3691 C   0  0  0  0  0  0  0  0  0  0  0  0
    0.7018   -7.7198    0.7892 C   0  0  0  0  0  0  0  0  0  0  0  0
    0.8918   -6.5957    1.6117 C   0  0  0  0  0  0  0  0  0  0  0  0
    1.0998  -10.4710    3.2437 C   0  0  1  0  0  0  0  0  0  0  0  0
    2.1917  -10.8879    3.7399 C   0  0  0  0  0  0  0  0  0  0  0  0
    0.8983   -5.2566    1.2088 C   0  0  0  0  0  0  0  0  0  0  0  0
   -0.0163  -11.2298    3.3739 C   0  0  0  0  0  0  0  0  0  0  0  0
   -0.7265  -11.5031    2.5374 O   0  0  0  0  0  0  0  0  0  0  0  0
   -0.1940   -4.7308    0.7496 N   0  0  0  0  0  0  0  0  0  0  0  0
   -0.2330   -3.4714    0.3043 C   0  0  0  0  0  0  0  0  0  0  0  0
    2.3149  -11.5807    4.9844 N   0  0  0  0  0  0  0  0  0  0  0  0
    0.6421   -2.5670    0.9055 C   0  0  0  0  0  0  0  0  0  0  0  0
    1.7639   -3.0828    1.5882 C   0  0  0  0  0  0  0  0  0  0  0  0
    1.8460   -4.3841    1.8463 C   0  0  0  0  0  0  0  0  0  0  0  0
   -1.3285   -2.9476   -0.3916 C   0  0  0  0  0  0  0  0  0  0  0  0
    1.4931  -11.7715    5.5397 H   0  0  0  0  0  0  0  0  0  0  0  0
  3  7  1  0
  7  8  1  0
  6  9  1  0
  7 10  1  1
 10 11  2  0
  8 14  2  0
 13 18  1  0
  1  2  2  0
  2  6  1  0
  5  6  2  0
  4  5  1  0
  3  4  2  0
  1  3  1  0
  9 12  2  0
 12 13  1  0
 13 15  2  0
 15 16  1  0
 16 17  2  0
  9 17  1  0
 14 19  1  0
M  END

$$$$
No_3992-/export/home/yangzhenyu/potential_scad_32_flow//YTHDC2/2024-12-06-03-22-00/
     RDKit          3D

 18 19  0  0  0  0  0  0  0  0999 V2000
    1.1787   -8.0297    3.5154 C   0  0  0  0  0  0  0  0  0  0  0  0
    1.1048   -9.2215    3.2892 C   0  0  0  0  0  0  0  0  0  0  0  0
    1.2339   -9.7611    2.0189 C   0  0  0  0  0  0  0  0  0  0  0  0
    1.3583   -9.0036    0.9764 C   0  0  0  0  0  0  0  0  0  0  0  0
    1.5996   -7.6362    1.1311 C   0  0  0  0  0  0  0  0  0  0  0  0
    1.4830   -7.0928    2.3626 C   0  0  0  0  0  0  0  0  0  0  0  0
    1.1008  -11.2372    1.8542 C   0  0  0  0  0  0  0  0  0  0  0  0
    0.5178  -11.9759    2.3445 C   0  0  0  0  0  0  0  0  0  0  0  0
   -0.4557  -11.5167    3.4352 C   0  0  0  0  0  0  0  0  0  0  0  0
    0.2605  -13.4149    2.0553 C   0  0  0  0  0  0  0  0  0  0  0  0
    1.3575  -14.2791    2.5715 C   0  0  0  0  0  0  0  0  0  0  0  0
    1.1750  -15.5755    2.5090 C   0  0  0  0  0  0  0  0  0  0  0  0
    2.2753  -16.3166    2.0752 C   0  0  0  0  0  0  0  0  0  0  0  0
    2.2956  -17.6951    2.1043 C   0  0  0  0  0  0  0  0  0  0  0  0
    1.1744  -18.3428    2.5848 C   0  0  0  0  0  0  0  0  0  0  0  0
    0.1007  -17.6748    3.0301 C   0  0  0  0  0  0  0  0  0  0  0  0
    0.1015  -16.2698    3.0697 C   0  0  0  0  0  0  0  0  0  0  0  0
    1.5729   -5.6646    2.6289 Cl  0  0  0  0  0  0  0  0  0  0  0  0
  3  7  1  0
  7  8  2  3
  8  9  1  0
  8 10  1  0
 10 11  1  0
 11 12  1  0
  6 18  1  0
 12 13  2  0
 13 14  1  0
 14 15  2  0
 15 16  1  0
 16 17  2  0
 12 17  1  0
  1  2  2  0
  2  3  1  0
  3  4  2  0
  4  5  1  0
  5  6  2  0
  1  6  1  0
M  END

$$$$
No_3993-/export/home/yangzhenyu/potential_scad_32_flow//YTHDC2/2024-12-06-03-22-00/
     RDKit          3D

 18 18  0  0  0  0  0  0  0  0999 V2000
    1.1787   -8.0297    3.5154 C   0  0  0  0  0  0  0  0  0  0  0  0
    1.0491   -6.8434    2.9820 C   0  0  0  0  0  0  0  0  0  0  0  0
    0.9905   -9.0774    2.6527 C   0  0  0  0  0  0  0  0  0  0  0  0
    0.7897   -8.9519    1.3691 C   0  0  0  0  0  0  0  0  0  0  0  0
    0.7018   -7.7198    0.7892 C   0  0  0  0  0  0  0  0  0  0  0  0
    0.8918   -6.5957    1.6117 C   0  0  0  0  0  0  0  0  0  0  0  0
    1.0600  -10.5680    3.3321 C   0  0  0  0  0  0  0  0  0  0  0  0
    1.1634  -11.6086    2.5010 C   0  0  0  0  0  0  0  0  0  0  0  0
    1.3344  -12.8974    3.1596 C   0  0  0  0  0  0  0  0  0  0  0  0
    1.1355  -14.0095    2.4199 C   0  0  0  0  0  0  0  0  0  0  0  0
    0.2298  -14.2909    1.6470 O   0  0  0  0  0  0  0  0  0  0  0  0
    2.0508  -15.0480    2.6813 O   0  0  0  0  0  0  0  0  0  0  0  0
    0.8592   -5.2627    1.1610 C   0  0  0  0  0  0  0  0  0  0  0  0
    1.4637   -4.2522    1.8063 C   0  0  0  0  0  0  0  0  0  0  0  0
    1.4402   -2.9117    1.3488 C   0  0  0  0  0  0  0  0  0  0  0  0
    1.8056   -1.9073    1.9306 C   0  0  0  0  0  0  0  0  0  0  0  0
    0.9361   -2.7545    0.0214 C   0  0  0  0  0  0  0  0  0  0  0  0
    0.8360   -1.3594   -0.4369 C   0  0  0  0  0  0  0  0  0  0  0  0
  3  7  1  0
  7  8  2  3
  8  9  1  0
  9 10  1  0
 10 11  2  0
 10 12  1  0
  6 13  1  0
 13 14  2  3
 14 15  1  0
 15 16  2  0
 15 17  1  0
 17 18  2  0
  1  2  2  0
  2  6  1  0
  5  6  2  0
  4  5  1  0
  3  4  2  0
  1  3  1  0
M  END

$$$$
No_3994-/export/home/yangzhenyu/potential_scad_32_flow//YTHDC2/2024-12-06-03-22-00/
     RDKit          3D

 19 21  0  0  0  0  0  0  0  0999 V2000
    1.1787   -8.0297    3.5154 C   0  0  0  0  0  0  0  0  0  0  0  0
    1.0491   -6.8434    2.9820 C   0  0  0  0  0  0  0  0  0  0  0  0
    0.0950   -8.8404    3.2292 C   0  0  0  0  0  0  0  0  0  0  0  0
   -0.9173   -8.4596    2.5152 C   0  0  0  0  0  0  0  0  0  0  0  0
   -0.8043   -7.0775    2.1508 C   0  0  0  0  0  0  0  0  0  0  0  0
    0.0928   -6.2803    2.3573 C   0  0  0  0  0  0  0  0  0  0  0  0
    0.1519   -4.9185    2.0180 C   0  0  0  0  0  0  0  0  0  0  0  0
    1.0338   -4.0482    2.5125 C   0  0  0  0  0  0  0  0  0  0  0  0
    0.1036  -10.3097    3.5705 C   0  0  0  0  0  0  0  0  0  0  0  0
   -1.1284  -10.9287    3.7378 C   0  0  0  0  0  0  0  0  0  0  0  0
    1.3306  -11.0116    3.9820 C   0  0  0  0  0  0  0  0  0  0  0  0
    1.2981  -12.3350    4.1785 C   0  0  0  0  0  0  0  0  0  0  0  0
   -1.0795  -12.3481    3.9263 C   0  0  0  0  0  0  0  0  0  0  0  0
    0.1862  -13.0300    4.0449 C   0  0  0  0  0  0  0  0  0  0  0  0
   -0.2354   -4.6136    0.5977 C   0  0  0  0  0  0  0  0  0  0  0  0
   -0.2750   -3.2064    0.3382 C   0  0  0  0  0  0  0  0  0  0  0  0
    0.5071   -2.2403    1.1421 C   0  0  0  0  0  0  0  0  0  0  0  0
    1.1589   -2.6863    2.1700 C   0  0  0  0  0  0  0  0  0  0  0  0
   -0.9020   -2.7645   -0.8705 O   0  0  0  0  0  0  0  0  0  0  0  0
  6  7  1  0
  3  9  1  0
 16 19  1  0
  9 10  2  0
 10 13  1  0
 13 14  2  0
 12 14  1  0
 11 12  2  0
  9 11  1  0
  1  2  2  0
  2  6  1  0
  5  6  2  0
  4  5  1  0
  3  4  2  0
  1  3  1  0
  7  8  2  0
  8 18  1  0
 17 18  2  0
 16 17  1  0
 15 16  2  0
  7 15  1  0
M  END

$$$$
No_3995-/export/home/yangzhenyu/potential_scad_32_flow//YTHDC2/2024-12-06-03-22-00/
     RDKit          3D

 19 21  0  0  1  0  0  0  0  0999 V2000
    1.1787   -8.0297    3.5154 C   0  0  0  0  0  0  0  0  0  0  0  0
    1.1048   -9.2215    3.2892 C   0  0  0  0  0  0  0  0  0  0  0  0
    1.2339   -9.7611    2.0189 C   0  0  0  0  0  0  0  0  0  0  0  0
    1.3583   -9.0036    0.9764 C   0  0  0  0  0  0  0  0  0  0  0  0
    1.5996   -7.6362    1.1311 C   0  0  0  0  0  0  0  0  0  0  0  0
    1.4830   -7.0928    2.3626 C   0  0  0  0  0  0  0  0  0  0  0  0
    1.1008  -11.2372    1.8542 C   0  0  2  0  0  0  0  0  0  0  0  0
    1.9749  -12.0938    2.2342 C   0  0  0  0  0  0  0  0  0  0  0  0
    1.7533  -13.4231    1.8956 C   0  0  0  0  0  0  0  0  0  0  0  0
    0.5760  -13.4522    1.0640 C   0  0  0  0  0  0  0  0  0  0  0  0
    0.2982  -11.9865    0.9898 C   0  0  1  0  0  0  0  0  0  0  0  0
    1.5347   -5.6390    2.6210 Cl  0  0  0  0  0  0  0  0  0  0  0  0
    2.3858  -14.6506    2.1359 Cl  0  0  0  0  0  0  0  0  0  0  0  0
   -0.7981  -11.4413    0.2460 C   0  0  0  0  0  0  0  0  0  0  0  0
   -1.7668  -12.1858   -0.0079 C   0  0  0  0  0  0  0  0  0  0  0  0
   -2.9069  -11.8058   -0.8724 C   0  0  0  0  0  0  0  0  0  0  0  0
   -3.2299  -10.4927   -0.7966 C   0  0  0  0  0  0  0  0  0  0  0  0
   -2.1597   -9.5058   -0.4866 C   0  0  0  0  0  0  0  0  0  0  0  0
   -1.0031   -9.9740    0.1548 C   0  0  0  0  0  0  0  0  0  0  0  0
  7  3  1  6
  7  8  1  0
  8  9  2  0
  9 10  1  0
  7 11  1  0
 10 11  1  0
  6 12  1  0
  9 13  1  0
 11 14  1  1
  1  2  2  0
  2  3  1  0
  3  4  2  0
  4  5  1  0
  5  6  2  0
  1  6  1  0
 14 15  2  0
 15 16  1  0
 16 17  2  0
 17 18  1  0
 18 19  2  0
 14 19  1  0
M  END

$$$$
No_3996-/export/home/yangzhenyu/potential_scad_32_flow//YTHDC2/2024-12-06-03-22-00/
     RDKit          3D

 18 18  0  0  1  0  0  0  0  0999 V2000
    1.1787   -8.0297    3.5154 C   0  0  0  0  0  0  0  0  0  0  0  0
    1.0491   -6.8434    2.9820 C   0  0  0  0  0  0  0  0  0  0  0  0
    0.9905   -9.0774    2.6527 C   0  0  0  0  0  0  0  0  0  0  0  0
    1.1655  -10.4663    3.1286 C   0  0  2  0  0  0  0  0  0  0  0  0
    1.7409  -10.6480    4.4599 C   0  0  0  0  0  0  0  0  0  0  0  0
    1.0486   -6.3431    1.8833 C   0  0  0  0  0  0  0  0  0  0  0  0
    0.7847   -5.0363    1.4471 C   0  0  2  0  0  0  0  0  0  0  0  0
    1.1370  -11.5253    2.2824 C   0  0  0  0  0  0  0  0  0  0  0  0
    1.3303  -11.4599    0.9773 C   0  0  0  0  0  0  0  0  0  0  0  0
    0.7424  -12.2698    0.2085 O   0  0  0  0  0  0  0  0  0  0  0  0
    1.9107  -10.3922    0.3899 O   0  0  0  0  0  0  0  0  0  0  0  0
    1.5332   -3.8898    1.8534 C   0  0  0  0  0  0  0  0  0  0  0  0
    1.9816  -12.0069    4.7839 N   0  0  0  0  0  0  0  0  0  0  0  0
    1.8307  -12.6721    3.0575 N   0  0  0  0  0  0  0  0  0  0  0  0
   -0.3743   -4.7214    0.8068 C   0  0  0  0  0  0  0  0  0  0  0  0
   -1.2270   -5.7845    0.5144 C   0  0  0  0  0  0  0  0  0  0  0  0
   -0.9511   -6.6744   -0.3194 N   0  0  0  0  0  0  0  0  0  0  0  0
   -1.5559   -7.6850   -0.3607 C   0  0  0  0  0  0  0  0  0  0  0  0
  1  2  1  0
  1  3  2  3
  4  3  1  6
  4  5  1  0
  2  6  2  3
  6  7  1  0
  4  8  1  0
  8  9  1  0
  9 10  1  0
  9 11  2  0
  7 12  1  1
  5 13  2  0
  8 14  2  0
 13 14  1  0
  7 15  1  0
 15 16  1  0
 16 17  1  0
 17 18  1  0
M  END

$$$$
No_3997-/export/home/yangzhenyu/potential_scad_32_flow//YTHDC2/2024-12-06-03-22-00/
     RDKit          3D

 18 18  0  0  0  0  0  0  0  0999 V2000
    1.1787   -8.0297    3.5154 C   0  0  0  0  0  0  0  0  0  0  0  0
    1.1048   -9.2215    3.2892 C   0  0  0  0  0  0  0  0  0  0  0  0
    1.2339   -9.7611    2.0189 C   0  0  0  0  0  0  0  0  0  0  0  0
    1.4306   -8.9466    1.1170 C   0  0  0  0  0  0  0  0  0  0  0  0
    1.6532   -7.5949    1.1786 C   0  0  0  0  0  0  0  0  0  0  0  0
    1.4973   -7.0739    2.4258 C   0  0  0  0  0  0  0  0  0  0  0  0
    1.6687   -9.4438   -0.3021 O   0  0  0  0  0  0  0  0  0  0  0  0
    1.2792  -11.1763    1.7813 C   0  0  0  0  0  0  0  0  0  0  0  0
    0.4007  -11.9550    2.3596 C   0  0  0  0  0  0  0  0  0  0  0  0
    0.8076  -13.0634    3.0229 C   0  0  0  0  0  0  0  0  0  0  0  0
    1.2488  -14.1439    2.2775 C   0  0  0  0  0  0  0  0  0  0  0  0
    1.6975  -15.3432    2.9283 O   0  0  0  0  0  0  0  0  0  0  0  0
    1.5040   -5.5997    2.6646 F   0  0  0  0  0  0  0  0  0  0  0  0
    1.3550  -14.2159    1.0145 O   0  0  0  0  0  0  0  0  0  0  0  0
    2.1241  -16.4468    2.2770 C   0  0  0  0  0  0  0  0  0  0  0  0
    1.5190  -17.6192    2.3697 C   0  0  0  0  0  0  0  0  0  0  0  0
    2.2001  -18.6818    1.9027 O   0  0  0  0  0  0  0  0  0  0  0  0
    0.4308  -17.7009    3.0363 O   0  0  0  0  0  0  0  0  0  0  0  0
  4  7  1  0
  3  8  1  0
  8  9  1  0
  9 10  1  0
 10 11  1  0
 11 12  1  0
  6 13  1  0
 11 14  2  0
 12 15  1  0
 15 16  1  0
 16 17  1  0
 16 18  2  0
  1  2  2  0
  2  3  1  0
  3  4  2  0
  4  5  1  0
  5  6  2  0
  1  6  1  0
M  END

$$$$
No_3998-/export/home/yangzhenyu/potential_scad_32_flow//YTHDC2/2024-12-06-03-22-00/
     RDKit          3D

 20 22  0  0  1  0  0  0  0  0999 V2000
    1.1787   -8.0297    3.5154 O   0  0  0  0  0  0  0  0  0  0  0  0
    0.6747   -7.4019    2.7838 C   0  0  0  0  0  0  0  0  0  0  0  0
    0.5570   -6.0797    2.8560 C   0  0  0  0  0  0  0  0  0  0  0  0
    1.1189   -5.2588    2.0517 C   0  0  0  0  0  0  0  0  0  0  0  0
    1.6070   -5.7863    0.8484 C   0  0  0  0  0  0  0  0  0  0  0  0
    0.3731   -7.8947    1.6072 C   0  0  0  0  0  0  0  0  0  0  0  0
    1.3060   -7.1825    0.5917 C   0  0  0  0  0  0  0  0  0  0  0  0
    0.5993   -9.4302    1.5481 C   0  0  2  0  0  0  0  0  0  0  0  0
    1.4386  -10.0300    1.5190 C   0  0  0  0  0  0  0  0  0  0  0  0
    1.5966  -11.3993    1.6525 C   0  0  0  0  0  0  0  0  0  0  0  0
    0.5447  -12.1014    1.4307 C   0  0  0  0  0  0  0  0  0  0  0  0
   -0.5884  -10.8452    1.2857 C   0  0  0  0  0  0  0  0  0  0  0  0
    0.0005  -13.1886    1.4103 C   0  0  0  0  0  0  0  0  0  0  0  0
   -1.1594  -13.6116    0.8164 C   0  0  0  0  0  0  0  0  0  0  0  0
   -2.1351  -12.5680    0.7134 C   0  0  0  0  0  0  0  0  0  0  0  0
   -3.3994  -12.8581    0.2794 C   0  0  0  0  0  0  0  0  0  0  0  0
   -1.7665  -11.2044    0.8023 C   0  0  0  0  0  0  0  0  0  0  0  0
   -4.4090  -12.1066    0.5068 C   0  0  0  0  0  0  0  0  0  0  0  0
   -5.6863  -12.4502    0.0349 C   0  0  0  0  0  0  0  0  0  0  0  0
   -5.7858  -13.6149   -0.5783 C   0  0  0  0  0  0  0  0  0  0  0  0
  1  2  1  0
  8  6  1  6
  8  9  1  0
  9 10  2  0
 10 11  1  0
  8 12  1  0
 15 16  1  0
 16 18  2  3
 18 19  1  0
 19 20  2  0
 11 12  2  0
 12 17  1  0
 15 17  2  0
 14 15  1  0
 13 14  2  0
 11 13  1  0
  2  3  2  0
  3  4  1  0
  4  5  2  0
  5  7  1  0
  6  7  2  0
  2  6  1  0
M  END

$$$$
No_3999-/export/home/yangzhenyu/potential_scad_32_flow//YTHDC2/2024-12-06-03-22-00/
     RDKit          3D

 18 19  0  0  0  0  0  0  0  0999 V2000
    1.1787   -8.0297    3.5154 C   0  0  0  0  0  0  0  0  0  0  0  0
    1.0491   -6.8434    2.9820 C   0  0  0  0  0  0  0  0  0  0  0  0
    0.9905   -9.0774    2.6527 C   0  0  0  0  0  0  0  0  0  0  0  0
    0.7897   -8.9519    1.3691 C   0  0  0  0  0  0  0  0  0  0  0  0
    0.7018   -7.7198    0.7892 C   0  0  0  0  0  0  0  0  0  0  0  0
    0.8918   -6.5957    1.6117 C   0  0  0  0  0  0  0  0  0  0  0  0
    1.0998  -10.4710    3.2437 C   0  0  0  0  0  0  0  0  0  0  0  0
    1.3102  -11.5554    2.5214 C   0  0  0  0  0  0  0  0  0  0  0  0
    1.7549  -11.6260    1.5219 C   0  0  0  0  0  0  0  0  0  0  0  0
    1.5737  -12.8651    3.3612 C   0  0  0  0  0  0  0  0  0  0  0  0
    1.0575  -14.0171    2.7973 C   0  0  0  0  0  0  0  0  0  0  0  0
    1.1952  -14.1923    1.4488 C   0  0  0  0  0  0  0  0  0  0  0  0
    0.9224  -15.3195    0.7439 C   0  0  0  0  0  0  0  0  0  0  0  0
    1.5277  -12.9290    0.7106 C   0  0  0  0  0  0  0  0  0  0  0  0
    0.8637   -5.2769    1.2216 O   0  0  0  0  0  0  0  0  0  0  0  0
    1.3186  -16.5028    1.0837 C   0  0  0  0  0  0  0  0  0  0  0  0
    0.9437  -17.7039    0.5303 C   0  0  0  0  0  0  0  0  0  0  0  0
    1.4279  -18.8541    1.2360 C   0  0  0  0  0  0  0  0  0  0  0  0
  1  2  1  0
  3  4  1  0
  2  6  1  0
  5  6  1  0
  3  7  1  0
  7  8  1  0
 12 13  1  0
  6 15  2  0
 13 16  2  3
 16 17  1  0
 17 18  2  0
  1  3  1  0
  4  5  1  0
  8  9  2  0
  9 14  1  0
 12 14  2  0
 11 12  1  0
 10 11  2  0
  8 10  1  0
M  END

$$$$
No_4000-/export/home/yangzhenyu/potential_scad_32_flow//YTHDC2/2024-12-06-03-22-00/
     RDKit          3D

 17 19  0  0  1  0  0  0  0  0999 V2000
    1.1787   -8.0297    3.5154 C   0  0  2  0  0  0  0  0  0  0  0  0
    1.0491   -6.8434    2.9820 C   0  0  0  0  0  0  0  0  0  0  0  0
    1.9985   -8.9840    2.8958 C   0  0  0  0  0  0  0  0  0  0  0  0
    1.9135  -10.3404    3.6266 C   0  0  0  0  0  0  0  0  0  0  0  0
    0.9460  -10.6347    4.5748 C   0  0  0  0  0  0  0  0  0  0  0  0
   -0.2056  -10.4178    4.1878 C   0  0  0  0  0  0  0  0  0  0  0  0
   -0.5153   -9.0971    3.4253 C   0  0  0  0  0  0  0  0  0  0  0  0
   -2.0949   -9.4230    3.5019 C   0  0  0  0  0  0  0  0  0  0  0  0
   -0.0961   -8.1255    3.3140 C   0  0  0  0  0  0  0  0  0  0  0  0
    0.0434   -6.2729    2.6602 C   0  0  0  0  0  0  0  0  0  0  0  0
   -0.8261   -7.1555    2.9371 O   0  0  0  0  0  0  0  0  0  0  0  0
   -0.2775   -4.8961    2.1325 C   0  0  0  0  0  0  0  0  0  0  0  0
   -1.3780   -4.8453    1.2735 C   0  0  0  0  0  0  0  0  0  0  0  0
   -2.0710   -3.8162    1.3307 C   0  0  0  0  0  0  0  0  0  0  0  0
   -1.4143   -2.5911    1.8005 C   0  0  0  0  0  0  0  0  0  0  0  0
   -0.2830   -2.6467    2.4624 C   0  0  0  0  0  0  0  0  0  0  0  0
    0.3570   -3.8913    2.5722 C   0  0  0  0  0  0  0  0  0  0  0  0
  1  2  1  6
  1  3  1  0
  3  4  2  0
  4  5  1  0
  5  6  2  0
  6  7  1  0
  7  8  2  0
  1  9  1  0
  7  9  1  0
  2 10  2  0
  9 11  1  0
 10 11  1  0
 10 12  1  0
 12 13  2  0
 13 14  1  0
 14 15  2  0
 15 16  1  0
 16 17  2  0
 12 17  1  0
M  END

$$$$
No_4001-/export/home/yangzhenyu/potential_scad_32_flow//YTHDC2/2024-12-06-03-22-00/
     RDKit          3D

 15 15  0  0  1  0  0  0  0  0999 V2000
    1.1787   -8.0297    3.5154 C   0  0  0  0  0  0  0  0  0  0  0  0
    1.0491   -6.8434    2.9820 C   0  0  0  0  0  0  0  0  0  0  0  0
    0.9905   -9.0774    2.6527 C   0  0  0  0  0  0  0  0  0  0  0  0
    0.7897   -8.9519    1.3691 C   0  0  0  0  0  0  0  0  0  0  0  0
    0.7018   -7.7198    0.7892 C   0  0  0  0  0  0  0  0  0  0  0  0
    0.8918   -6.5957    1.6117 C   0  0  0  0  0  0  0  0  0  0  0  0
    1.0998  -10.4710    3.2437 C   0  0  2  0  0  0  0  0  0  0  0  0
    2.1917  -10.8879    3.7399 C   0  0  0  0  0  0  0  0  0  0  0  0
    0.8624   -5.2493    1.2482 O   0  0  0  0  0  0  0  0  0  0  0  0
    0.4950  -11.5086    2.3980 C   0  0  0  0  0  0  0  0  0  0  0  0
    1.1942  -12.4361    1.9475 C   0  0  2  0  0  0  0  0  0  0  0  0
    1.8656  -12.2854    0.8666 C   0  0  0  0  0  0  0  0  0  0  0  0
    0.6244  -13.8422    1.9594 C   0  0  0  0  0  0  0  0  0  0  0  0
    1.4048  -14.9477    2.4027 N   0  0  0  0  0  0  0  0  0  0  0  0
    2.6866  -14.9650    2.4538 O   0  0  0  0  0  0  0  0  0  0  0  0
  1  2  1  0
  3  4  1  0
  2  6  1  0
  5  6  1  0
  3  7  1  0
  7  8  1  6
  6  9  2  0
  7 10  1  0
 10 11  1  0
 11 12  1  6
 11 13  1  0
 13 14  1  0
 14 15  2  0
  1  3  1  0
  4  5  1  0
M  END

$$$$
No_4002-/export/home/yangzhenyu/potential_scad_32_flow//YTHDC2/2024-12-06-03-22-00/
     RDKit          3D

 19 20  0  0  0  0  0  0  0  0999 V2000
    1.1787   -8.0297    3.5154 C   0  0  0  0  0  0  0  0  0  0  0  0
    1.0491   -6.8434    2.9820 C   0  0  0  0  0  0  0  0  0  0  0  0
    0.0950   -8.8404    3.2292 C   0  0  0  0  0  0  0  0  0  0  0  0
   -0.9173   -8.4596    2.5152 C   0  0  0  0  0  0  0  0  0  0  0  0
   -1.0331   -7.2162    2.0653 C   0  0  0  0  0  0  0  0  0  0  0  0
   -0.0105   -6.3168    2.3081 C   0  0  0  0  0  0  0  0  0  0  0  0
    0.1465  -10.2446    3.6981 C   0  0  0  0  0  0  0  0  0  0  0  0
    0.1907  -11.3369    2.8651 C   0  0  0  0  0  0  0  0  0  0  0  0
   -0.2018  -11.4456    1.8156 C   0  0  0  0  0  0  0  0  0  0  0  0
   -0.1002  -12.4840    0.9716 C   0  0  0  0  0  0  0  0  0  0  0  0
    0.6847  -13.6389    1.4371 C   0  0  0  0  0  0  0  0  0  0  0  0
    1.2708  -13.5730    2.6365 C   0  0  0  0  0  0  0  0  0  0  0  0
    1.0830  -12.4946    3.4740 C   0  0  0  0  0  0  0  0  0  0  0  0
    0.0394   -4.9483    1.8516 O   0  0  0  0  0  0  0  0  0  0  0  0
    1.9714  -14.7024    3.1992 O   0  0  0  0  0  0  0  0  0  0  0  0
    0.8722   -4.0353    2.3815 C   0  0  0  0  0  0  0  0  0  0  0  0
   -0.0679  -10.3362    5.1033 O   0  0  0  0  0  0  0  0  0  0  0  0
    1.3341  -15.9686    2.9295 C   0  0  0  0  0  0  0  0  0  0  0  0
   -2.1525   -6.7071    1.2931 C   0  0  0  0  0  0  0  0  0  0  0  0
  3  7  1  0
  7  8  1  0
  6 14  1  0
 12 15  1  0
 14 16  1  0
  7 17  2  0
 15 18  1  0
  5 19  1  0
  1  2  2  0
  2  6  1  0
  5  6  2  0
  4  5  1  0
  3  4  2  0
  1  3  1  0
  8  9  2  0
  9 10  1  0
 10 11  2  0
 11 12  1  0
 12 13  2  0
  8 13  1  0
M  END

$$$$
No_4003-/export/home/yangzhenyu/potential_scad_32_flow//YTHDC2/2024-12-06-03-22-00/
     RDKit          3D

 18 20  0  0  0  0  0  0  0  0999 V2000
    1.1787   -8.0297    3.5154 C   0  0  0  0  0  0  0  0  0  0  0  0
    1.0491   -6.8434    2.9820 C   0  0  0  0  0  0  0  0  0  0  0  0
    1.0690   -9.1150    2.7206 C   0  0  0  0  0  0  0  0  0  0  0  0
    0.9689   -6.6391    1.6260 C   0  0  0  0  0  0  0  0  0  0  0  0
    0.9670   -9.0334    1.3824 C   0  0  0  0  0  0  0  0  0  0  0  0
    0.8189   -7.7113    0.8022 C   0  0  0  0  0  0  0  0  0  0  0  0
    1.1213  -10.6747    3.4285 C   0  0  0  0  0  0  0  0  0  0  0  0
    1.2359  -11.7003    2.5839 C   0  0  0  0  0  0  0  0  0  0  0  0
    1.4031  -12.9428    3.2440 C   0  0  0  0  0  0  0  0  0  0  0  0
    1.0112  -14.0645    2.5684 C   0  0  0  0  0  0  0  0  0  0  0  0
    0.4920  -14.1462    1.3585 C   0  0  0  0  0  0  0  0  0  0  0  0
    0.3599  -12.9434    0.7090 C   0  0  0  0  0  0  0  0  0  0  0  0
    0.6707  -11.7361    1.3666 C   0  0  0  0  0  0  0  0  0  0  0  0
    0.7080  -10.2733    0.6600 N   0  0  0  0  0  0  0  0  0  0  0  0
    1.2434  -15.6074    3.3951 Cl  0  0  0  0  0  0  0  0  0  0  0  0
    0.9047   -5.2018    0.8921 O   0  0  0  0  0  0  0  0  0  0  0  0
   -0.2146   -4.5546    1.1681 C   0  0  0  0  0  0  0  0  0  0  0  0
    1.5796  -10.6051    4.7355 O   0  0  0  0  0  0  0  0  0  0  0  0
 10 15  1  0
  4 16  1  0
 16 17  1  0
  7 18  1  0
  1  2  2  0
  2  4  1  0
  4  6  2  0
  5  6  1  0
  1  3  1  0
  3  5  2  0
  5 14  1  0
 13 14  2  0
  7  8  2  0
  3  7  1  0
  8  9  1  0
  9 10  2  0
 10 11  1  0
 11 12  2  0
 12 13  1  0
  8 13  1  0
M  END

$$$$
No_4004-/export/home/yangzhenyu/potential_scad_32_flow//YTHDC2/2024-12-06-03-22-00/
     RDKit          3D

 18 18  0  0  0  0  0  0  0  0999 V2000
    1.1787   -8.0297    3.5154 C   0  0  0  0  0  0  0  0  0  0  0  0
    1.0491   -6.8434    2.9820 C   0  0  0  0  0  0  0  0  0  0  0  0
    1.9985   -8.9840    2.8958 C   0  0  0  0  0  0  0  0  0  0  0  0
    1.1815  -10.1889    2.5497 C   0  0  0  0  0  0  0  0  0  0  0  0
    0.9817  -11.1388    2.8134 C   0  0  0  0  0  0  0  0  0  0  0  0
    0.1125  -12.0891    2.4837 C   0  0  0  0  0  0  0  0  0  0  0  0
   -0.6446  -11.8250    1.4596 C   0  0  0  0  0  0  0  0  0  0  0  0
   -0.2941  -10.7598    0.6431 C   0  0  0  0  0  0  0  0  0  0  0  0
    0.5711   -9.8346    1.1239 C   0  0  0  0  0  0  0  0  0  0  0  0
    1.7128   -5.7488    3.1464 O   0  0  0  0  0  0  0  0  0  0  0  0
    0.9112   -8.6589    0.4747 C   0  0  0  0  0  0  0  0  0  0  0  0
    2.0910   -8.3411    0.0795 C   0  0  0  0  0  0  0  0  0  0  0  0
    2.7374   -8.6707   -0.8204 O   0  0  0  0  0  0  0  0  0  0  0  0
    2.9238   -7.6381    0.7835 O   0  0  0  0  0  0  0  0  0  0  0  0
   -0.1372   -6.4529    2.3428 O   0  0  0  0  0  0  0  0  0  0  0  0
   -0.1555  -13.5618    3.2874 C   0  0  0  0  0  0  0  0  0  0  0  0
    1.1027  -14.2860    3.3873 C   0  0  0  0  0  0  0  0  0  0  0  0
    1.2594  -15.3736    2.3864 C   0  0  0  0  0  0  0  0  0  0  0  0
  1  2  1  0
  1  3  1  0
  3  4  1  0
  2 10  1  0
  9 11  1  0
 11 12  1  0
 12 13  1  0
 12 14  2  0
  2 15  2  0
  6 16  1  0
 16 17  1  0
 17 18  1  0
  4  5  2  0
  5  6  1  0
  6  7  2  0
  7  8  1  0
  8  9  2  0
  4  9  1  0
M  END

$$$$
No_4005-/export/home/yangzhenyu/potential_scad_32_flow//YTHDC2/2024-12-06-03-22-00/
     RDKit          3D

 18 18  0  0  0  0  0  0  0  0999 V2000
    1.1787   -8.0297    3.5154 O   0  0  0  0  0  0  0  0  0  0  0  0
    0.6747   -7.4019    2.7838 C   0  0  0  0  0  0  0  0  0  0  0  0
    0.5570   -6.0797    2.8560 C   0  0  0  0  0  0  0  0  0  0  0  0
   -0.2158   -5.3007    2.0284 C   0  0  0  0  0  0  0  0  0  0  0  0
   -0.8260   -5.9169    1.0290 C   0  0  0  0  0  0  0  0  0  0  0  0
   -0.6925   -7.2407    0.8216 C   0  0  0  0  0  0  0  0  0  0  0  0
    0.1645   -8.0156    1.6621 C   0  0  0  0  0  0  0  0  0  0  0  0
    0.4049   -9.3434    1.4877 C   0  0  0  0  0  0  0  0  0  0  0  0
    1.4848   -9.6364    0.5257 C   0  0  0  0  0  0  0  0  0  0  0  0
    1.9880  -10.8099    0.3816 O   0  0  0  0  0  0  0  0  0  0  0  0
    2.0553   -8.7308   -0.3866 O   0  0  0  0  0  0  0  0  0  0  0  0
   -0.3742   -3.8677    2.2686 C   0  0  0  0  0  0  0  0  0  0  0  0
   -1.2794   -3.4846    2.6267 C   0  0  0  0  0  0  0  0  0  0  0  0
    0.7995   -3.0448    1.8245 C   0  0  0  0  0  0  0  0  0  0  0  0
    0.7409   -1.7284    1.8010 C   0  0  0  0  0  0  0  0  0  0  0  0
   -2.3605   -4.3855    3.2046 C   0  0  0  0  0  0  0  0  0  0  0  0
    1.6628   -0.9695    1.8995 C   0  0  0  0  0  0  0  0  0  0  0  0
    1.4163    0.4018    1.7824 C   0  0  0  0  0  0  0  0  0  0  0  0
  1  2  1  0
  7  8  1  0
  8  9  1  0
  9 10  1  0
  9 11  2  0
  4 12  1  0
 12 13  2  3
 12 14  1  0
 14 15  2  3
 13 16  1  0
 15 17  1  0
 17 18  2  0
  2  3  2  0
  3  4  1  0
  4  5  2  0
  5  6  1  0
  6  7  2  0
  2  7  1  0
M  END

$$$$
No_4006-/export/home/yangzhenyu/potential_scad_32_flow//YTHDC2/2024-12-06-03-22-00/
     RDKit          3D

 19 20  0  0  1  0  0  0  0  0999 V2000
    1.1787   -8.0297    3.5154 C   0  0  0  0  0  0  0  0  0  0  0  0
    1.0491   -6.8434    2.9820 C   0  0  0  0  0  0  0  0  0  0  0  0
    1.9985   -8.9840    2.8958 C   0  0  1  0  0  0  0  0  0  0  0  0
    1.9135  -10.3404    3.6266 C   0  0  0  0  0  0  0  0  0  0  0  0
    1.3291  -11.3908    3.0222 C   0  0  0  0  0  0  0  0  0  0  0  0
    1.2749  -12.5326    3.7562 C   0  0  0  0  0  0  0  0  0  0  0  0
    0.4248   -6.6481    1.7861 C   0  0  0  0  0  0  0  0  0  0  0  0
    0.3130   -5.3457    1.3131 O   0  0  0  0  0  0  0  0  0  0  0  0
    1.1027  -13.6921    3.1236 C   0  0  0  0  0  0  0  0  0  0  0  0
    1.0849  -13.7040    1.7203 C   0  0  0  0  0  0  0  0  0  0  0  0
    1.2944  -12.5801    0.9236 C   0  0  0  0  0  0  0  0  0  0  0  0
    1.4161  -11.3954    1.6142 C   0  0  0  0  0  0  0  0  0  0  0  0
   -0.4684   -7.4449    1.4712 O   0  0  0  0  0  0  0  0  0  0  0  0
    1.6516  -10.2909    0.8648 C   0  0  0  0  0  0  0  0  0  0  0  0
    1.8847   -9.0118    1.6311 N   0  0  0  0  0  0  0  0  0  0  0  0
    1.5832  -10.2003   -0.4170 O   0  0  0  0  0  0  0  0  0  0  0  0
    0.8785  -15.1050    3.8524 O   0  0  0  0  0  0  0  0  0  0  0  0
    0.1010  -15.8573    3.4137 C   0  0  0  0  0  0  0  0  0  0  0  0
    0.4655  -16.8261    3.6713 C   0  0  0  0  0  0  0  0  0  0  0  0
  1  2  1  0
  3  1  1  1
  3  4  1  0
  4  5  1  0
  2  7  1  0
  7  8  1  0
  7 13  2  0
 12 14  1  0
  3 15  1  0
 14 15  1  0
 14 16  2  0
  9 17  1  0
 17 18  1  0
 18 19  2  0
  5  6  2  0
  6  9  1  0
  9 10  2  0
 10 11  1  0
 11 12  2  0
  5 12  1  0
M  END

$$$$
No_4007-/export/home/yangzhenyu/potential_scad_32_flow//YTHDC2/2024-12-06-03-22-00/
     RDKit          3D

 20 20  0  0  1  0  0  0  0  0999 V2000
    1.1787   -8.0297    3.5154 C   0  0  0  0  0  0  0  0  0  0  0  0
    1.1048   -9.2215    3.2892 C   0  0  0  0  0  0  0  0  0  0  0  0
    1.2339   -9.7611    2.0189 C   0  0  0  0  0  0  0  0  0  0  0  0
    1.1954  -11.2312    1.8661 C   0  0  0  0  0  0  0  0  0  0  0  0
    1.5546  -12.1691    2.7931 C   0  0  0  0  0  0  0  0  0  0  0  0
    0.5849   -7.0929    2.5729 C   0  0  0  0  0  0  0  0  0  0  0  0
    0.5567   -7.6699    1.1955 C   0  0  0  0  0  0  0  0  0  0  0  0
    0.7903   -8.9699    0.9209 C   0  0  0  0  0  0  0  0  0  0  0  0
    1.3210  -12.1117    3.8117 N   0  0  0  0  0  0  0  0  0  0  0  0
    1.9133  -13.4962    2.2012 C   0  0  0  0  0  0  0  0  0  0  0  0
    0.6189   -5.6295    2.6213 C   0  0  0  0  0  0  0  0  0  0  0  0
   -0.5465   -5.0262    2.3270 C   0  0  1  0  0  0  0  0  0  0  0  0
   -1.6865   -5.5093    2.6602 C   0  0  0  0  0  0  0  0  0  0  0  0
   -0.4530   -3.6425    1.9091 C   0  0  0  0  0  0  0  0  0  0  0  0
   -1.2793   -2.8955    1.8982 C   0  0  0  0  0  0  0  0  0  0  0  0
   -2.6042   -3.3130    2.0714 Cl  0  0  0  0  0  0  0  0  0  0  0  0
    1.3847  -14.3725    1.8918 C   0  0  0  0  0  0  0  0  0  0  0  0
   -0.0828  -14.3203    2.1961 C   0  0  0  0  0  0  0  0  0  0  0  0
   -0.8750  -15.3905    1.8170 C   0  0  0  0  0  0  0  0  0  0  0  0
    0.9403  -11.2584    4.1952 H   0  0  0  0  0  0  0  0  0  0  0  0
  3  4  1  0
  4  5  1  0
  5  9  2  0
  5 10  1  0
  6 11  1  0
 11 12  1  0
 12 13  1  1
 12 14  1  0
 14 15  2  3
 15 16  1  0
 10 17  2  3
 17 18  1  0
 18 19  1  0
  1  2  2  0
  2  3  1  0
  3  8  2  0
  7  8  1  0
  6  7  2  0
  1  6  1  0
  9 20  1  0
M  END

$$$$
No_4008-/export/home/yangzhenyu/potential_scad_32_flow//YTHDC2/2024-12-06-03-22-00/
     RDKit          3D

 19 20  0  0  1  0  0  0  0  0999 V2000
    1.1787   -8.0297    3.5154 S   0  0  0  0  0  0  0  0  0  0  0  0
    0.9303   -9.3504    3.2709 C   0  0  2  0  0  0  0  0  0  0  0  0
    1.5237  -10.2642    4.1775 C   0  0  0  0  0  0  0  0  0  0  0  0
    0.5184   -7.2780    2.2552 C   0  0  0  0  0  0  0  0  0  0  0  0
    0.1421   -8.0559    1.3477 C   0  0  0  0  0  0  0  0  0  0  0  0
    0.3793   -9.3888    1.9180 C   0  0  0  0  0  0  0  0  0  0  0  0
    1.8684  -11.6091    3.5660 C   0  0  0  0  0  0  0  0  0  0  0  0
    0.7517  -12.5489    3.4658 C   0  0  0  0  0  0  0  0  0  0  0  0
   -0.3243  -12.0990    3.2585 O   0  0  0  0  0  0  0  0  0  0  0  0
    1.0808  -13.7724    3.0348 O   0  0  0  0  0  0  0  0  0  0  0  0
    0.6067   -5.7465    2.0490 C   0  0  0  0  0  0  0  0  0  0  0  0
   -0.0400   -5.2104    0.9924 C   0  0  0  0  0  0  0  0  0  0  0  0
    0.0253   -3.8157    0.7914 C   0  0  0  0  0  0  0  0  0  0  0  0
   -0.1400   -2.9583    1.4228 C   0  0  0  0  0  0  0  0  0  0  0  0
    0.6179   -2.8448    2.7365 C   0  0  0  0  0  0  0  0  0  0  0  0
    1.3410   -3.3019    3.4749 C   0  0  0  0  0  0  0  0  0  0  0  0
    1.3438   -5.0309    3.2499 C   0  0  0  0  0  0  0  0  0  0  0  0
   -0.2647   -1.3746    0.7192 Cl  0  0  0  0  0  0  0  0  0  0  0  0
    0.8256  -14.4586    1.9623 C   0  0  0  0  0  0  0  0  0  0  0  0
  1  2  1  0
  2  3  1  6
  1  4  1  0
  4  5  2  0
  2  6  1  0
  5  6  1  0
  3  7  1  0
  7  8  1  0
  8  9  2  0
  8 10  1  0
  4 11  1  0
 11 12  2  0
 12 13  1  0
 13 14  2  0
 14 15  1  0
 15 16  2  0
 11 17  1  0
 16 17  1  0
 14 18  1  0
 10 19  1  0
M  END

$$$$
No_4009-/export/home/yangzhenyu/potential_scad_32_flow//YTHDC2/2024-12-06-03-22-00/
     RDKit          3D

 18 19  0  0  0  0  0  0  0  0999 V2000
    1.1787   -8.0297    3.5154 C   0  0  0  0  0  0  0  0  0  0  0  0
    1.1048   -9.2215    3.2892 C   0  0  0  0  0  0  0  0  0  0  0  0
    1.3627  -10.1721    4.3044 C   0  0  0  0  0  0  0  0  0  0  0  0
    1.0682  -11.5187    4.0618 C   0  0  0  0  0  0  0  0  0  0  0  0
    0.6332  -11.9655    2.9682 C   0  0  0  0  0  0  0  0  0  0  0  0
    0.4776  -11.1308    1.9203 C   0  0  0  0  0  0  0  0  0  0  0  0
    0.7470   -9.8274    2.0368 C   0  0  0  0  0  0  0  0  0  0  0  0
    1.0387   -7.0301    2.5175 C   0  0  0  0  0  0  0  0  0  0  0  0
    0.9130   -7.5288    1.2013 C   0  0  0  0  0  0  0  0  0  0  0  0
    0.7893   -8.7979    0.9542 C   0  0  0  0  0  0  0  0  0  0  0  0
    0.5241   -9.2578   -0.2817 C   0  0  0  0  0  0  0  0  0  0  0  0
    1.2450   -9.2169   -1.2769 O   0  0  0  0  0  0  0  0  0  0  0  0
   -0.8706   -9.3448   -0.6392 O   0  0  0  0  0  0  0  0  0  0  0  0
    0.5164  -13.3827    2.7090 P   0  0  0  0  0  0  0  0  0  0  0  0
    1.3020  -14.2556    3.7214 O   0  0  0  0  0  0  0  0  0  0  0  0
    0.8756  -13.9029    1.3350 O   0  0  0  0  0  0  0  0  0  0  0  0
   -1.0152  -13.8297    2.7355 O   0  0  0  0  0  0  0  0  0  0  0  0
    1.3140   -5.6071    2.7047 Br  0  0  0  0  0  0  0  0  0  0  0  0
 10 11  1  0
 11 12  2  0
 11 13  1  0
  5 14  1  0
 14 15  1  0
 14 16  2  0
 14 17  1  0
  8 18  1  0
  2  3  1  0
  3  4  2  0
  4  5  1  0
  5  6  2  0
  6  7  1  0
  1  2  2  0
  2  7  1  0
  7 10  2  0
  9 10  1  0
  8  9  2  0
  1  8  1  0
M  END

$$$$
No_4010-/export/home/yangzhenyu/potential_scad_32_flow//YTHDC2/2024-12-06-03-22-00/
     RDKit          3D

 18 19  0  0  0  0  0  0  0  0999 V2000
    1.1787   -8.0297    3.5154 C   0  0  0  0  0  0  0  0  0  0  0  0
    1.1048   -9.2215    3.2892 C   0  0  0  0  0  0  0  0  0  0  0  0
    1.2339   -9.7611    2.0189 C   0  0  0  0  0  0  0  0  0  0  0  0
    1.3583   -9.0036    0.9764 C   0  0  0  0  0  0  0  0  0  0  0  0
    1.5996   -7.6362    1.1311 C   0  0  0  0  0  0  0  0  0  0  0  0
    1.4830   -7.0928    2.3626 C   0  0  0  0  0  0  0  0  0  0  0  0
    1.5395   -5.7300    2.6182 C   0  0  0  0  0  0  0  0  0  0  0  0
    1.1969  -11.3760    1.8433 C   0  0  0  0  0  0  0  0  0  0  0  0
    1.0771  -11.6644    0.5388 N   0  0  0  0  0  0  0  0  0  0  0  0
    1.0709  -12.1502    2.7666 O   0  0  0  0  0  0  0  0  0  0  0  0
    1.1465  -13.2533    2.7205 C   0  0  0  0  0  0  0  0  0  0  0  0
    1.2830  -14.1256    3.6571 C   0  0  0  0  0  0  0  0  0  0  0  0
    0.3174  -13.9668    1.9369 C   0  0  0  0  0  0  0  0  0  0  0  0
    1.4525  -15.5847    3.3137 C   0  0  0  0  0  0  0  0  0  0  0  0
    0.6853  -15.4691    2.0795 C   0  0  0  0  0  0  0  0  0  0  0  0
    0.6051   -4.8718    2.7764 C   0  0  0  0  0  0  0  0  0  0  0  0
    0.7412   -3.4880    3.0913 C   0  0  0  0  0  0  0  0  0  0  0  0
    1.0997  -10.9228   -0.1465 H   0  0  0  0  0  0  0  0  0  0  0  0
  6  7  1  0
  3  8  1  0
  8  9  2  0
  8 10  1  0
 10 11  1  0
 11 12  1  0
 11 13  1  0
 12 14  2  0
 13 15  2  0
 14 15  1  0
  7 16  2  3
 16 17  1  0
  1  2  2  0
  2  3  1  0
  3  4  2  0
  4  5  1  0
  5  6  2  0
  1  6  1  0
  9 18  1  0
M  END

$$$$
No_4011-/export/home/yangzhenyu/potential_scad_32_flow//YTHDC2/2024-12-06-03-22-00/
     RDKit          3D

 11 11  0  0  0  0  0  0  0  0999 V2000
    1.1787   -8.0297    3.5154 O   0  0  0  0  0  0  0  0  0  0  0  0
    0.6747   -7.4019    2.7838 C   0  0  0  0  0  0  0  0  0  0  0  0
    0.7594   -8.0032    1.4295 C   0  0  0  0  0  0  0  0  0  0  0  0
    1.4743   -7.4398    0.6034 C   0  0  0  0  0  0  0  0  0  0  0  0
    1.8433   -8.4150   -0.4648 C   0  0  0  0  0  0  0  0  0  0  0  0
    1.3204   -9.5205   -0.5909 C   0  0  0  0  0  0  0  0  0  0  0  0
    0.4880  -10.0838    0.3555 C   0  0  0  0  0  0  0  0  0  0  0  0
    0.2363   -9.3226    1.4465 C   0  0  0  0  0  0  0  0  0  0  0  0
   -0.5984   -9.6542    2.4538 C   0  0  0  0  0  0  0  0  0  0  0  0
   -0.2111  -10.6503    3.2432 N   0  0  0  0  0  0  0  0  0  0  0  0
   -0.9621  -11.1471    4.2015 O   0  0  0  0  0  0  0  0  0  0  0  0
  1  2  1  0
  2  3  1  0
  8  9  1  0
  9 10  1  0
 10 11  2  0
  3  4  2  0
  4  5  1  0
  5  6  2  0
  6  7  1  0
  7  8  2  0
  3  8  1  0
M  END

$$$$
No_4012-/export/home/yangzhenyu/potential_scad_32_flow//YTHDC2/2024-12-06-03-22-00/
     RDKit          3D

 18 20  0  0  1  0  0  0  0  0999 V2000
    1.1787   -8.0297    3.5154 C   0  0  0  0  0  0  0  0  0  0  0  0
    1.1048   -9.2215    3.2892 C   0  0  0  0  0  0  0  0  0  0  0  0
    1.0239   -9.7790    2.0239 C   0  0  2  0  0  0  0  0  0  0  0  0
    1.0632  -11.2393    1.8978 C   0  0  0  0  0  0  0  0  0  0  0  0
    1.2664   -7.1133    2.3309 C   0  0  1  0  0  0  0  0  0  0  0  0
    1.2080   -7.6832    1.0760 C   0  0  0  0  0  0  0  0  0  0  0  0
    1.1535   -8.9837    0.8897 C   0  0  0  0  0  0  0  0  0  0  0  0
    1.5434  -12.1192    2.7356 N   0  0  0  0  0  0  0  0  0  0  0  0
    1.4876  -13.3708    2.4422 C   0  0  0  0  0  0  0  0  0  0  0  0
    0.9671  -13.8507    1.3670 C   0  0  0  0  0  0  0  0  0  0  0  0
    0.4792  -13.0784    0.4674 C   0  0  0  0  0  0  0  0  0  0  0  0
    0.5430  -11.7250    0.6661 C   0  0  0  0  0  0  0  0  0  0  0  0
    1.1902   -9.4246   -0.3602 O   0  0  0  0  0  0  0  0  0  0  0  0
    2.0316  -14.2592    3.4336 C   0  0  0  0  0  0  0  0  0  0  0  0
    1.3324   -5.4325    2.5799 Cl  0  0  0  0  0  0  0  0  0  0  0  0
    1.8854  -15.7137    2.9860 C   0  0  0  0  0  0  0  0  0  0  0  0
    1.3830  -16.0604    1.8434 C   0  0  0  0  0  0  0  0  0  0  0  0
    0.9577  -15.1852    0.9767 C   0  0  0  0  0  0  0  0  0  0  0  0
  2  3  1  0
  3  4  1  1
  1  5  1  0
  3  7  1  0
  6  7  1  0
  7 13  2  0
  5 15  1  1
  1  2  1  0
  5  6  1  0
  4  8  2  0
  8  9  1  0
 10 11  1  0
 11 12  2  0
  4 12  1  0
  9 10  2  0
 10 18  1  0
 17 18  2  0
 16 17  1  0
 14 16  2  0
  9 14  1  0
M  END

$$$$
No_4013-/export/home/yangzhenyu/potential_scad_32_flow//YTHDC2/2024-12-06-03-22-00/
     RDKit          3D

 20 21  0  0  0  0  0  0  0  0999 V2000
    1.1787   -8.0297    3.5154 C   0  0  0  0  0  0  0  0  0  0  0  0
    1.1048   -9.2215    3.2892 C   0  0  0  0  0  0  0  0  0  0  0  0
    1.2339   -9.7611    2.0189 C   0  0  0  0  0  0  0  0  0  0  0  0
    1.3583   -9.0036    0.9764 C   0  0  0  0  0  0  0  0  0  0  0  0
    1.5996   -7.6362    1.1311 C   0  0  0  0  0  0  0  0  0  0  0  0
    1.4830   -7.0928    2.3626 C   0  0  0  0  0  0  0  0  0  0  0  0
    1.5395   -5.7300    2.6182 C   0  0  0  0  0  0  0  0  0  0  0  0
    1.1775  -11.2233    1.8407 C   0  0  0  0  0  0  0  0  0  0  0  0
    1.9057  -12.1147    2.3397 C   0  0  0  0  0  0  0  0  0  0  0  0
    1.6867  -13.4551    2.0621 C   0  0  0  0  0  0  0  0  0  0  0  0
    0.7025  -13.8511    1.3021 N   0  0  0  0  0  0  0  0  0  0  0  0
    0.1549  -12.5390    0.8463 C   0  0  0  0  0  0  0  0  0  0  0  0
    0.3163  -11.5805    0.8814 N   0  0  0  0  0  0  0  0  0  0  0  0
    2.4552  -14.5139    2.8635 N   0  0  0  0  0  0  0  0  0  0  0  0
    1.6410   -5.1759    3.8722 O   0  0  0  0  0  0  0  0  0  0  0  0
    1.7033   -4.8476    1.6141 O   0  0  0  0  0  0  0  0  0  0  0  0
    2.2429  -15.8365    2.4837 C   0  0  0  0  0  0  0  0  0  0  0  0
    1.1197  -16.5004    2.7444 C   0  0  0  0  0  0  0  0  0  0  0  0
    0.5055  -16.1553    3.8862 C   0  0  0  0  0  0  0  0  0  0  0  0
   -0.6661  -16.8231    4.1881 C   0  0  0  0  0  0  0  0  0  0  0  0
  6  7  1  0
  3  8  1  0
 10 14  1  0
  7 15  1  0
  7 16  2  0
 14 17  1  0
 17 18  1  0
 18 19  1  0
 19 20  2  0
  1  2  2  0
  2  3  1  0
  3  4  2  0
  4  5  1  0
  5  6  2  0
  1  6  1  0
  8  9  2  0
  9 10  1  0
 10 11  2  0
 11 12  1  0
 12 13  2  0
  8 13  1  0
M  END

$$$$
No_4014-/export/home/yangzhenyu/potential_scad_32_flow//YTHDC2/2024-12-06-03-22-00/
     RDKit          3D

 18 20  0  0  0  0  0  0  0  0999 V2000
    1.1787   -8.0297    3.5154 C   0  0  0  0  0  0  0  0  0  0  0  0
    1.1048   -9.2215    3.2892 C   0  0  0  0  0  0  0  0  0  0  0  0
    1.0239   -9.7790    2.0239 C   0  0  0  0  0  0  0  0  0  0  0  0
    1.1393   -9.0211    0.9686 C   0  0  0  0  0  0  0  0  0  0  0  0
    1.4051   -7.6500    1.1251 C   0  0  0  0  0  0  0  0  0  0  0  0
    1.4868   -7.1041    2.3534 C   0  0  0  0  0  0  0  0  0  0  0  0
    0.9740  -10.2562    4.5561 C   0  0  0  0  0  0  0  0  0  0  0  0
    0.8495  -11.7039    4.0242 C   0  0  0  0  0  0  0  0  0  0  0  0
    0.8490  -12.1036    2.8463 C   0  0  0  0  0  0  0  0  0  0  0  0
    0.9639  -11.1492    1.8011 C   0  0  0  0  0  0  0  0  0  0  0  0
    0.8061  -13.4240    2.5471 C   0  0  0  0  0  0  0  0  0  0  0  0
    1.4850  -14.3652    3.0963 C   0  0  0  0  0  0  0  0  0  0  0  0
    1.6246  -15.6386    2.4938 C   0  0  0  0  0  0  0  0  0  0  0  0
    0.9180  -16.0633    1.6022 C   0  0  0  0  0  0  0  0  0  0  0  0
    0.1514  -15.1507    0.8863 C   0  0  0  0  0  0  0  0  0  0  0  0
    0.0041  -13.8695    1.4223 C   0  0  0  0  0  0  0  0  0  0  0  0
    0.9985  -11.5998    0.5588 O   0  0  0  0  0  0  0  0  0  0  0  0
    1.5220   -5.6641    2.6241 C   0  0  0  0  0  0  0  0  0  0  0  0
  2  7  1  0
  8  9  1  0
  3 10  1  0
  9 10  1  0
  9 11  1  0
 10 17  2  0
  6 18  1  0
  7  8  1  0
 11 12  2  0
 12 13  1  0
 13 14  2  0
 14 15  1  0
 15 16  2  0
 11 16  1  0
  1  2  2  0
  2  3  1  0
  3  4  2  0
  4  5  1  0
  5  6  2  0
  1  6  1  0
M  END

$$$$
No_4015-/export/home/yangzhenyu/potential_scad_32_flow//YTHDC2/2024-12-06-03-22-00/
     RDKit          3D

 18 20  0  0  0  0  0  0  0  0999 V2000
    1.1787   -8.0297    3.5154 C   0  0  0  0  0  0  0  0  0  0  0  0
    1.1048   -9.2215    3.2892 C   0  0  0  0  0  0  0  0  0  0  0  0
    1.2339   -9.7611    2.0189 C   0  0  0  0  0  0  0  0  0  0  0  0
    1.3583   -9.0036    0.9764 C   0  0  0  0  0  0  0  0  0  0  0  0
    1.5996   -7.6362    1.1311 C   0  0  0  0  0  0  0  0  0  0  0  0
    1.4830   -7.0928    2.3626 C   0  0  0  0  0  0  0  0  0  0  0  0
    1.1008  -11.2372    1.8542 C   0  0  0  0  0  0  0  0  0  0  0  0
    0.4812  -11.6084    0.6459 N   0  0  0  0  0  0  0  0  0  0  0  0
    0.7847  -12.0208    2.8442 C   0  0  0  0  0  0  0  0  0  0  0  0
    0.7203  -13.3528    2.6776 C   0  0  0  0  0  0  0  0  0  0  0  0
    0.7012  -14.3034    3.7374 C   0  0  0  0  0  0  0  0  0  0  0  0
    0.6016  -13.7450    1.2664 C   0  0  0  0  0  0  0  0  0  0  0  0
    0.5542  -12.9079    0.4411 C   0  0  0  0  0  0  0  0  0  0  0  0
    0.8119  -15.7195    3.2933 C   0  0  0  0  0  0  0  0  0  0  0  0
    0.8613  -16.1252    2.0488 C   0  0  0  0  0  0  0  0  0  0  0  0
    0.7239  -15.1207    1.0506 C   0  0  0  0  0  0  0  0  0  0  0  0
    1.5851   -5.4711    2.7503 C   0  0  0  0  0  0  0  0  0  0  0  0
    1.0369  -17.4230    1.8110 C   0  0  0  0  0  0  0  0  0  0  0  0
  3  7  1  0
  6 17  1  0
 15 18  1  0
  1  2  2  0
  2  3  1  0
  3  4  2  0
  4  5  1  0
  5  6  2  0
  1  6  1  0
 10 11  1  0
 11 14  2  0
 14 15  1  0
 15 16  2  0
 12 16  1  0
  7  8  2  0
  8 13  1  0
 12 13  2  0
 10 12  1  0
  9 10  2  0
  7  9  1  0
M  END

$$$$
No_4016-/export/home/yangzhenyu/potential_scad_32_flow//YTHDC2/2024-12-06-03-22-00/
     RDKit          3D

 17 17  0  0  0  0  0  0  0  0999 V2000
    1.1787   -8.0297    3.5154 O   0  0  0  0  0  0  0  0  0  0  0  0
    0.9969   -8.9689    3.0048 C   0  0  0  0  0  0  0  0  0  0  0  0
    1.3055  -10.1056    3.6616 C   0  0  0  0  0  0  0  0  0  0  0  0
    1.5709  -11.1115    3.2016 C   0  0  0  0  0  0  0  0  0  0  0  0
    1.6332  -11.2629    1.7349 C   0  0  0  0  0  0  0  0  0  0  0  0
    1.4616  -10.1742    0.9691 C   0  0  0  0  0  0  0  0  0  0  0  0
    1.1252   -9.0006    1.6051 C   0  0  0  0  0  0  0  0  0  0  0  0
    0.8275   -7.7749    1.0285 C   0  0  0  0  0  0  0  0  0  0  0  0
    0.2093   -7.9203   -0.1052 O   0  0  0  0  0  0  0  0  0  0  0  0
    1.1971   -6.5674    1.2987 O   0  0  0  0  0  0  0  0  0  0  0  0
    1.9293  -12.6092    3.9649 C   0  0  0  0  0  0  0  0  0  0  0  0
    1.3866  -13.7346    3.1913 O   0  0  0  0  0  0  0  0  0  0  0  0
    0.0725  -14.1856    3.3670 C   0  0  0  0  0  0  0  0  0  0  0  0
    0.0513  -15.5426    3.1232 C   0  0  0  0  0  0  0  0  0  0  0  0
   -1.2319  -16.0757    3.3082 C   0  0  0  0  0  0  0  0  0  0  0  0
   -1.2534  -17.2712    4.0303 C   0  0  0  0  0  0  0  0  0  0  0  0
   -0.1501  -18.1468    3.8778 C   0  0  0  0  0  0  0  0  0  0  0  0
  1  2  1  0
  7  8  1  0
  8  9  2  0
  8 10  1  0
  4 11  1  0
 11 12  1  0
 12 13  1  0
 13 14  1  0
 14 15  1  0
 15 16  2  3
 16 17  1  0
  2  3  2  0
  3  4  1  0
  4  5  2  0
  5  6  1  0
  6  7  2  0
  2  7  1  0
M  END

$$$$
No_4017-/export/home/yangzhenyu/potential_scad_32_flow//YTHDC2/2024-12-06-03-22-00/
     RDKit          3D

 17 17  0  0  0  0  0  0  0  0999 V2000
    1.1787   -8.0297    3.5154 C   0  0  0  0  0  0  0  0  0  0  0  0
    1.0491   -6.8434    2.9820 C   0  0  0  0  0  0  0  0  0  0  0  0
    1.9985   -8.9840    2.8958 C   0  0  0  0  0  0  0  0  0  0  0  0
    1.9135  -10.3404    3.6266 C   0  0  0  0  0  0  0  0  0  0  0  0
    0.7479  -10.9191    3.7202 C   0  0  0  0  0  0  0  0  0  0  0  0
    0.2782   -6.7158    1.8352 C   0  0  0  0  0  0  0  0  0  0  0  0
    0.0493   -5.5581    1.3972 Cl  0  0  0  0  0  0  0  0  0  0  0  0
   -0.2979  -10.1728    3.6538 C   0  0  0  0  0  0  0  0  0  0  0  0
   -1.5820  -10.7533    3.9289 C   0  0  0  0  0  0  0  0  0  0  0  0
   -1.6788  -12.1038    3.8128 C   0  0  0  0  0  0  0  0  0  0  0  0
   -0.5922  -12.8664    3.5446 C   0  0  0  0  0  0  0  0  0  0  0  0
    0.6872  -12.2539    3.4279 C   0  0  0  0  0  0  0  0  0  0  0  0
   -0.2220   -7.8317    1.2210 O   0  0  0  0  0  0  0  0  0  0  0  0
    1.7821  -12.9321    3.3505 C   0  0  0  0  0  0  0  0  0  0  0  0
    1.7162  -14.4000    2.9593 C   0  0  0  0  0  0  0  0  0  0  0  0
    2.8320  -15.1562    2.5094 C   0  0  0  0  0  0  0  0  0  0  0  0
    2.5771  -16.4735    2.3797 O   0  0  0  0  0  0  0  0  0  0  0  0
  1  2  1  0
  1  3  1  0
  3  4  1  0
  4  5  1  0
  2  6  1  0
  6  7  1  0
  6 13  2  0
 12 14  1  0
 14 15  2  3
 15 16  1  0
 16 17  1  0
  5  8  2  0
  8  9  1  0
  9 10  2  0
 10 11  1  0
 11 12  2  0
  5 12  1  0
M  END

$$$$
No_4018-/export/home/yangzhenyu/potential_scad_32_flow//YTHDC2/2024-12-06-03-22-00/
     RDKit          3D

 19 21  0  0  0  0  0  0  0  0999 V2000
    1.1787   -8.0297    3.5154 C   0  0  0  0  0  0  0  0  0  0  0  0
    1.1048   -9.2215    3.2892 C   0  0  0  0  0  0  0  0  0  0  0  0
    1.3627  -10.1721    4.3044 C   0  0  0  0  0  0  0  0  0  0  0  0
    1.0682  -11.5187    4.0618 C   0  0  0  0  0  0  0  0  0  0  0  0
    0.6332  -11.9655    2.9682 C   0  0  0  0  0  0  0  0  0  0  0  0
    0.4776  -11.1308    1.9203 C   0  0  0  0  0  0  0  0  0  0  0  0
    0.7470   -9.8274    2.0368 C   0  0  0  0  0  0  0  0  0  0  0  0
    1.0387   -7.0301    2.5175 C   0  0  0  0  0  0  0  0  0  0  0  0
    1.1486   -5.5562    2.7651 C   0  0  0  0  0  0  0  0  0  0  0  0
    0.4339  -13.5730    2.7982 Cl  0  0  0  0  0  0  0  0  0  0  0  0
    0.8385   -4.6468    1.9270 C   0  0  0  0  0  0  0  0  0  0  0  0
    1.3629   -3.3041    2.2444 C   0  0  0  0  0  0  0  0  0  0  0  0
    2.1801   -3.1023    3.2972 C   0  0  0  0  0  0  0  0  0  0  0  0
    2.5476   -4.1045    4.1239 C   0  0  0  0  0  0  0  0  0  0  0  0
    2.1508   -5.3782    3.8044 C   0  0  0  0  0  0  0  0  0  0  0  0
    0.3045   -8.9859    1.0691 C   0  0  0  0  0  0  0  0  0  0  0  0
    0.6649   -7.4947    1.1654 C   0  0  0  0  0  0  0  0  0  0  0  0
   -0.0603   -9.2428   -0.1573 C   0  0  0  0  0  0  0  0  0  0  0  0
   -1.4151   -9.7158   -0.4117 O   0  0  0  0  0  0  0  0  0  0  0  0
  8  9  1  0
  5 10  1  0
 16 18  1  0
 18 19  2  0
  2  3  1  0
  3  4  2  0
  4  5  1  0
  5  6  2  0
  6  7  1  0
  1  2  2  0
  2  7  1  0
  7 16  2  0
 16 17  1  0
  8 17  2  0
  1  8  1  0
  9 11  2  0
 11 12  1  0
 12 13  2  0
 13 14  1  0
 14 15  2  0
  9 15  1  0
M  END

$$$$
No_4019-/export/home/yangzhenyu/potential_scad_32_flow//YTHDC2/2024-12-06-03-22-00/
     RDKit          3D

 19 19  0  0  1  0  0  0  0  0999 V2000
    1.1787   -8.0297    3.5154 C   0  0  0  0  0  0  0  0  0  0  0  0
    1.0491   -6.8434    2.9820 C   0  0  0  0  0  0  0  0  0  0  0  0
    0.9905   -9.0774    2.6527 C   0  0  0  0  0  0  0  0  0  0  0  0
    0.7897   -8.9519    1.3691 C   0  0  0  0  0  0  0  0  0  0  0  0
    0.7018   -7.7198    0.7892 C   0  0  0  0  0  0  0  0  0  0  0  0
    0.8918   -6.5957    1.6117 C   0  0  0  0  0  0  0  0  0  0  0  0
    1.0998  -10.4710    3.2437 C   0  0  0  0  0  0  0  0  0  0  0  0
    1.3102  -11.5554    2.5214 C   0  0  0  0  0  0  0  0  0  0  0  0
    1.4257  -12.8124    3.1919 C   0  0  0  0  0  0  0  0  0  0  0  0
    0.9222  -13.9339    2.5039 C   0  0  1  0  0  0  0  0  0  0  0  0
    1.2953  -15.2608    3.1588 C   0  0  0  0  0  0  0  0  0  0  0  0
    0.8729   -5.2633    1.2027 C   0  0  0  0  0  0  0  0  0  0  0  0
    0.9524  -16.4075    2.5662 N   0  0  0  0  0  0  0  0  0  0  0  0
    1.4620  -17.5105    3.0441 C   0  0  0  0  0  0  0  0  0  0  0  0
    0.1926   -4.2955    2.0022 Cl  0  0  0  0  0  0  0  0  0  0  0  0
   -0.0865  -13.7920    2.0972 C   0  0  0  0  0  0  0  0  0  0  0  0
   -0.5128  -13.5223    0.7301 C   0  0  0  0  0  0  0  0  0  0  0  0
   -1.6119  -12.9157    0.2255 Cl  0  0  0  0  0  0  0  0  0  0  0  0
    2.8394  -17.7205    3.0644 C   0  0  0  0  0  0  0  0  0  0  0  0
  3  7  1  0
  7  8  2  3
  8  9  1  0
 10  9  1  1
 10 11  1  0
  6 12  1  0
 11 13  1  0
 13 14  1  0
 12 15  1  0
 10 16  1  0
 16 17  1  0
 17 18  1  0
 14 19  1  0
  1  2  2  0
  2  6  1  0
  5  6  2  0
  4  5  1  0
  3  4  2  0
  1  3  1  0
M  END

$$$$
No_4020-/export/home/yangzhenyu/potential_scad_32_flow//YTHDC2/2024-12-06-03-22-00/
     RDKit          3D

 18 19  0  0  0  0  0  0  0  0999 V2000
    1.1787   -8.0297    3.5154 C   0  0  0  0  0  0  0  0  0  0  0  0
    1.0491   -6.8434    2.9820 C   0  0  0  0  0  0  0  0  0  0  0  0
    0.0950   -8.8404    3.2292 C   0  0  0  0  0  0  0  0  0  0  0  0
   -0.9173   -8.4596    2.5152 C   0  0  0  0  0  0  0  0  0  0  0  0
   -1.0331   -7.2162    2.0653 C   0  0  0  0  0  0  0  0  0  0  0  0
   -0.0105   -6.3168    2.3081 C   0  0  0  0  0  0  0  0  0  0  0  0
    0.1150   -4.9910    1.8495 C   0  0  0  0  0  0  0  0  0  0  0  0
    0.9121   -4.1017    2.4010 O   0  0  0  0  0  0  0  0  0  0  0  0
   -0.8281   -4.4106    1.0499 O   0  0  0  0  0  0  0  0  0  0  0  0
    0.2300  -10.4799    3.7197 Cl  0  0  0  0  0  0  0  0  0  0  0  0
   -0.5542   -3.2186    0.2926 C   0  0  0  0  0  0  0  0  0  0  0  0
   -0.4196   -3.3083   -0.8742 C   0  0  0  0  0  0  0  0  0  0  0  0
   -0.1413   -2.0443   -1.6377 C   0  0  0  0  0  0  0  0  0  0  0  0
    0.1759   -0.9611   -0.8835 C   0  0  0  0  0  0  0  0  0  0  0  0
    0.1641   -0.9212    0.4831 C   0  0  0  0  0  0  0  0  0  0  0  0
   -0.1610   -2.0397    1.0469 C   0  0  0  0  0  0  0  0  0  0  0  0
   -2.4234   -6.7444    1.2538 O   0  0  0  0  0  0  0  0  0  0  0  0
   -2.6389   -7.4093    0.0417 C   0  0  0  0  0  0  0  0  0  0  0  0
  6  7  1  0
  7  8  2  0
  7  9  1  0
  3 10  1  0
  9 11  1  0
  5 17  1  0
 17 18  1  0
 11 12  2  0
 12 13  1  0
 13 14  2  0
 14 15  1  0
 15 16  2  0
 11 16  1  0
  1  2  2  0
  2  6  1  0
  5  6  2  0
  4  5  1  0
  3  4  2  0
  1  3  1  0
M  END

$$$$
No_4021-/export/home/yangzhenyu/potential_scad_32_flow//YTHDC2/2024-12-06-03-22-00/
     RDKit          3D

 19 20  0  0  1  0  0  0  0  0999 V2000
    1.1787   -8.0297    3.5154 N   0  0  0  0  0  0  0  0  0  0  0  0
    0.8669   -7.0905    2.8589 C   0  0  0  0  0  0  0  0  0  0  0  0
    1.0447   -7.3244    1.4123 C   0  0  0  0  0  0  0  0  0  0  0  0
    1.3746   -8.4389    1.0864 P   0  0  2  0  0  0  0  0  0  0  0  0
    1.6598   -8.9700    2.7006 C   0  0  2  0  0  0  0  0  0  0  0  0
    2.0176  -10.2924    3.1216 C   0  0  0  0  0  0  0  0  0  0  0  0
    1.6456   -9.1164    0.0667 O   0  0  0  0  0  0  0  0  0  0  0  0
    1.8740  -11.3358    2.2368 C   0  0  0  0  0  0  0  0  0  0  0  0
    2.5858  -10.4196    4.4516 C   0  0  0  0  0  0  0  0  0  0  0  0
    1.4167  -12.4674    2.5984 C   0  0  2  0  0  0  0  0  0  0  0  0
    1.8641  -13.6647    2.0692 C   0  0  0  0  0  0  0  0  0  0  0  0
    1.3374  -14.5667    1.8605 C   0  0  0  0  0  0  0  0  0  0  0  0
    0.0305  -14.8099    2.4110 C   0  0  2  0  0  0  0  0  0  0  0  0
   -0.5410  -13.6482    3.0590 C   0  0  0  0  0  0  0  0  0  0  0  0
    0.1541  -12.5492    3.0859 C   0  0  0  0  0  0  0  0  0  0  0  0
   -0.3835  -11.4870    3.7466 O   0  0  0  0  0  0  0  0  0  0  0  0
   -0.7529  -16.2408    2.4556 C   0  0  1  0  0  0  0  0  0  0  0  0
   -1.3164  -16.3858    1.3838 N   0  0  0  0  0  0  0  0  0  0  0  0
   -0.4811  -16.8933    3.4930 C   0  0  0  0  0  0  0  0  0  0  0  0
  1  2  1  0
  2  3  2  0
  4  3  1  6
  5  1  1  1
  4  5  1  0
  5  6  1  0
  4  7  2  0
  6  8  2  3
  6  9  1  0
  8 10  1  0
 10 11  1  6
 13 12  1  1
 10 15  1  0
 14 15  1  0
 15 16  2  0
 13 17  1  0
 17 18  1  0
 17 19  1  6
 11 12  1  0
 13 14  1  0
M  END

$$$$
No_4022-/export/home/yangzhenyu/potential_scad_32_flow//YTHDC2/2024-12-06-03-22-00/
     RDKit          3D

 18 19  0  0  0  0  0  0  0  0999 V2000
    1.1787   -8.0297    3.5154 C   0  0  0  0  0  0  0  0  0  0  0  0
    1.0491   -6.8434    2.9820 C   0  0  0  0  0  0  0  0  0  0  0  0
    0.0950   -8.8404    3.2292 C   0  0  0  0  0  0  0  0  0  0  0  0
   -0.9173   -8.4596    2.5152 C   0  0  0  0  0  0  0  0  0  0  0  0
   -1.0331   -7.2162    2.0653 C   0  0  0  0  0  0  0  0  0  0  0  0
   -0.0105   -6.3168    2.3081 C   0  0  0  0  0  0  0  0  0  0  0  0
    0.1935  -10.3737    3.7416 C   0  0  0  0  0  0  0  0  0  0  0  0
   -0.9968  -11.0614    3.6410 C   0  0  0  0  0  0  0  0  0  0  0  0
   -0.8084  -12.4477    3.9018 C   0  0  0  0  0  0  0  0  0  0  0  0
    0.5007  -12.9476    3.9124 C   0  0  0  0  0  0  0  0  0  0  0  0
    1.6180  -12.1152    3.7697 C   0  0  0  0  0  0  0  0  0  0  0  0
    1.4589  -10.7260    3.6194 C   0  0  0  0  0  0  0  0  0  0  0  0
    0.8092  -14.2884    3.9054 C   0  0  0  0  0  0  0  0  0  0  0  0
   -0.0238   -4.8187    1.7690 C   0  0  0  0  0  0  0  0  0  0  0  0
   -0.3722   -4.6521    0.6553 C   0  0  0  0  0  0  0  0  0  0  0  0
   -0.4517   -3.2734    0.2816 C   0  0  0  0  0  0  0  0  0  0  0  0
    0.3621   -2.3379    0.9329 C   0  0  0  0  0  0  0  0  0  0  0  0
    1.0244   -2.6650    2.0619 C   0  0  0  0  0  0  0  0  0  0  0  0
  3  7  1  0
 10 13  1  0
  6 14  1  0
 14 15  1  0
 15 16  2  3
 16 17  1  0
 17 18  2  0
  1  2  2  0
  2  6  1  0
  5  6  2  0
  4  5  1  0
  3  4  2  0
  1  3  1  0
  7  8  2  0
  8  9  1  0
  9 10  2  0
 10 11  1  0
 11 12  2  0
  7 12  1  0
M  END

$$$$
No_4023-/export/home/yangzhenyu/potential_scad_32_flow//YTHDC2/2024-12-06-03-22-00/
     RDKit          3D

 18 19  0  0  1  0  0  0  0  0999 V2000
    1.1787   -8.0297    3.5154 C   0  0  0  0  0  0  0  0  0  0  0  0
    1.1048   -9.2215    3.2892 C   0  0  0  0  0  0  0  0  0  0  0  0
    1.2339   -9.7611    2.0189 C   0  0  0  0  0  0  0  0  0  0  0  0
    1.3583   -9.0036    0.9764 C   0  0  0  0  0  0  0  0  0  0  0  0
    1.5996   -7.6362    1.1311 C   0  0  0  0  0  0  0  0  0  0  0  0
    1.4830   -7.0928    2.3626 C   0  0  0  0  0  0  0  0  0  0  0  0
    1.4898   -5.7274    2.6199 C   0  0  0  0  0  0  0  0  0  0  0  0
    1.1681  -11.2222    1.8390 C   0  0  1  0  0  0  0  0  0  0  0  0
    1.9047  -12.1147    2.3357 N   0  0  0  0  0  0  0  0  0  0  0  0
    1.6918  -13.4296    2.1335 C   0  0  0  0  0  0  0  0  0  0  0  0
    0.4098  -13.7763    2.3936 C   0  0  1  0  0  0  0  0  0  0  0  0
   -0.6348  -12.8068    1.9807 C   0  0  0  0  0  0  0  0  0  0  0  0
   -0.2236  -11.4939    1.9089 C   0  0  0  0  0  0  0  0  0  0  0  0
    0.1018  -15.1691    2.3291 C   0  0  0  0  0  0  0  0  0  0  0  0
    0.8676  -16.0742    2.9922 C   0  0  0  0  0  0  0  0  0  0  0  0
    0.6382  -17.4326    3.0867 C   0  0  0  0  0  0  0  0  0  0  0  0
    1.6453  -18.3387    3.5743 C   0  0  0  0  0  0  0  0  0  0  0  0
    1.2402   -4.8566    1.6224 O   0  0  0  0  0  0  0  0  0  0  0  0
  6  7  1  0
  8  3  1  1
  8  9  1  0
  9 10  1  0
 11 10  1  6
 11 12  1  0
  8 13  1  0
 12 13  1  0
 11 14  1  0
 14 15  2  3
 15 16  1  0
 16 17  1  0
  7 18  2  0
  1  2  2  0
  2  3  1  0
  3  4  2  0
  4  5  1  0
  5  6  2  0
  1  6  1  0
M  END

$$$$
No_4024-/export/home/yangzhenyu/potential_scad_32_flow//YTHDC2/2024-12-06-03-22-00/
     RDKit          3D

 19 20  0  0  0  0  0  0  0  0999 V2000
    1.1787   -8.0297    3.5154 C   0  0  0  0  0  0  0  0  0  0  0  0
    1.1048   -9.2215    3.2892 C   0  0  0  0  0  0  0  0  0  0  0  0
    1.2339   -9.7611    2.0189 C   0  0  0  0  0  0  0  0  0  0  0  0
    1.1954  -11.2312    1.8661 N   0  0  0  0  0  0  0  0  0  0  0  0
    1.2712   -7.0998    2.3680 C   0  0  0  0  0  0  0  0  0  0  0  0
    1.3536   -7.6783    1.0689 C   0  0  0  0  0  0  0  0  0  0  0  0
    1.4168   -8.9938    0.9019 C   0  0  0  0  0  0  0  0  0  0  0  0
    1.9692  -12.0504    2.3913 C   0  0  0  0  0  0  0  0  0  0  0  0
    1.7096  -13.4042    1.8644 C   0  0  0  0  0  0  0  0  0  0  0  0
    1.9961  -14.4427    2.6731 C   0  0  0  0  0  0  0  0  0  0  0  0
    2.1076  -15.8124    2.1578 C   0  0  0  0  0  0  0  0  0  0  0  0
    1.4794  -16.0525    1.0937 C   0  0  0  0  0  0  0  0  0  0  0  0
    1.1553  -15.1599    0.2198 C   0  0  0  0  0  0  0  0  0  0  0  0
    0.2843  -15.4368   -0.8776 C   0  0  0  0  0  0  0  0  0  0  0  0
   -0.0897  -16.6545   -1.0852 C   0  0  0  0  0  0  0  0  0  0  0  0
    0.1024  -17.5892   -0.2164 C   0  0  0  0  0  0  0  0  0  0  0  0
    0.8876  -17.3766    0.8887 C   0  0  0  0  0  0  0  0  0  0  0  0
    1.2847   -5.4386    2.6127 C   0  0  0  0  0  0  0  0  0  0  0  0
    1.4369   -9.4542   -0.4097 C   0  0  0  0  0  0  0  0  0  0  0  0
  3  4  1  0
  4  8  1  0
  8  9  1  0
  9 10  1  0
 10 11  1  0
 11 12  1  0
  5 18  1  0
  7 19  1  0
 12 13  2  0
 13 14  1  0
 14 15  2  0
 15 16  1  0
 16 17  2  0
 12 17  1  0
  1  2  2  0
  2  3  1  0
  3  7  2  0
  6  7  1  0
  5  6  2  0
  1  5  1  0
M  END

$$$$
No_4025-/export/home/yangzhenyu/potential_scad_32_flow//YTHDC2/2024-12-06-03-22-00/
     RDKit          3D

 18 19  0  0  0  0  0  0  0  0999 V2000
    1.1787   -8.0297    3.5154 C   0  0  0  0  0  0  0  0  0  0  0  0
    1.1048   -9.2215    3.2892 C   0  0  0  0  0  0  0  0  0  0  0  0
    1.2339   -9.7611    2.0189 C   0  0  0  0  0  0  0  0  0  0  0  0
    1.3583   -9.0036    0.9764 C   0  0  0  0  0  0  0  0  0  0  0  0
    1.5996   -7.6362    1.1311 C   0  0  0  0  0  0  0  0  0  0  0  0
    1.4830   -7.0928    2.3626 C   0  0  0  0  0  0  0  0  0  0  0  0
    1.1008  -11.2372    1.8542 C   0  0  0  0  0  0  0  0  0  0  0  0
    1.9749  -12.0938    2.2342 C   0  0  0  0  0  0  0  0  0  0  0  0
    1.7533  -13.4231    1.8956 C   0  0  0  0  0  0  0  0  0  0  0  0
    0.8624  -13.8318    1.1071 C   0  0  0  0  0  0  0  0  0  0  0  0
   -0.0624  -12.9093    0.5581 C   0  0  0  0  0  0  0  0  0  0  0  0
    0.1157  -11.5285    0.9404 C   0  0  0  0  0  0  0  0  0  0  0  0
    1.5561   -5.6354    2.6426 C   0  0  0  0  0  0  0  0  0  0  0  0
   -0.8281  -10.6339    0.4863 C   0  0  0  0  0  0  0  0  0  0  0  0
   -0.9767  -10.1775   -0.7253 O   0  0  0  0  0  0  0  0  0  0  0  0
   -2.0798  -10.5865    1.1478 Cl  0  0  0  0  0  0  0  0  0  0  0  0
    1.2231   -4.8078    1.6086 C   0  0  0  0  0  0  0  0  0  0  0  0
   -0.0516   -4.9367    1.1122 O   0  0  0  0  0  0  0  0  0  0  0  0
  3  7  1  0
  6 13  1  0
 12 14  1  0
 14 15  2  0
 14 16  1  0
 13 17  1  0
 17 18  2  0
  1  2  2  0
  2  3  1  0
  3  4  2  0
  4  5  1  0
  5  6  2  0
  1  6  1  0
  7  8  2  0
  8  9  1  0
  9 10  2  0
 10 11  1  0
 11 12  2  0
  7 12  1  0
M  END

$$$$
No_4026-/export/home/yangzhenyu/potential_scad_32_flow//YTHDC2/2024-12-06-03-22-00/
     RDKit          3D

 19 19  0  0  1  0  0  0  0  0999 V2000
    1.1787   -8.0297    3.5154 C   0  0  0  0  0  0  0  0  0  0  0  0
    1.0491   -6.8434    2.9820 C   0  0  0  0  0  0  0  0  0  0  0  0
    0.9905   -9.0774    2.6527 C   0  0  0  0  0  0  0  0  0  0  0  0
    0.7897   -8.9519    1.3691 C   0  0  0  0  0  0  0  0  0  0  0  0
    0.7018   -7.7198    0.7892 C   0  0  0  0  0  0  0  0  0  0  0  0
    0.8918   -6.5957    1.6117 C   0  0  0  0  0  0  0  0  0  0  0  0
    1.0711  -10.4814    3.2282 S   0  0  0  0  0  0  0  0  0  0  0  0
   -0.2130  -10.9799    3.8462 O   0  0  0  0  0  0  0  0  0  0  0  0
    2.2082  -10.3516    4.3630 N   0  0  0  0  0  0  0  0  0  0  0  0
    1.5255  -11.4433    2.2547 O   0  0  0  0  0  0  0  0  0  0  0  0
    0.8317   -5.2825    1.1455 O   0  0  0  0  0  0  0  0  0  0  0  0
   -0.2696   -4.4960    1.2313 C   0  0  1  0  0  0  0  0  0  0  0  0
   -0.0990   -3.2720    1.3518 C   0  0  0  0  0  0  0  0  0  0  0  0
    0.6094   -2.8047    2.4334 C   0  0  0  0  0  0  0  0  0  0  0  0
    1.9973   -2.7131    2.4983 C   0  0  0  0  0  0  0  0  0  0  0  0
   -1.4269   -4.9002    0.3540 C   0  0  0  0  0  0  0  0  0  0  0  0
   -2.5248   -4.5660    0.6368 C   0  0  0  0  0  0  0  0  0  0  0  0
   -3.0090   -4.8204    1.9607 C   0  0  0  0  0  0  0  0  0  0  0  0
   -2.6892   -5.8333    2.6642 C   0  0  0  0  0  0  0  0  0  0  0  0
  3  7  1  0
  7  8  2  0
  7  9  1  0
  7 10  2  0
  6 11  1  0
 11 12  1  0
 12 13  1  6
 13 14  1  0
 14 15  1  0
 12 16  1  0
 16 17  1  0
 17 18  1  0
 18 19  1  0
  1  2  2  0
  2  6  1  0
  5  6  2  0
  4  5  1  0
  3  4  2  0
  1  3  1  0
M  END

$$$$
No_4027-/export/home/yangzhenyu/potential_scad_32_flow//YTHDC2/2024-12-06-03-22-00/
     RDKit          3D

 18 20  0  0  0  0  0  0  0  0999 V2000
    1.1787   -8.0297    3.5154 C   0  0  0  0  0  0  0  0  0  0  0  0
    1.0491   -6.8434    2.9820 C   0  0  0  0  0  0  0  0  0  0  0  0
    0.0950   -8.8404    3.2292 C   0  0  0  0  0  0  0  0  0  0  0  0
   -0.9173   -8.4596    2.5152 C   0  0  0  0  0  0  0  0  0  0  0  0
   -1.0331   -7.2162    2.0653 C   0  0  0  0  0  0  0  0  0  0  0  0
   -0.0105   -6.3168    2.3081 C   0  0  0  0  0  0  0  0  0  0  0  0
    0.1465  -10.2446    3.6981 C   0  0  0  0  0  0  0  0  0  0  0  0
   -1.0336  -10.8619    3.9439 C   0  0  0  0  0  0  0  0  0  0  0  0
   -2.1702  -10.4673    3.2991 C   0  0  0  0  0  0  0  0  0  0  0  0
   -2.1358   -9.2084    2.5791 C   0  0  0  0  0  0  0  0  0  0  0  0
   -0.0407   -4.9560    1.8452 C   0  0  0  0  0  0  0  0  0  0  0  0
   -0.7987   -4.0992    2.2489 C   0  0  0  0  0  0  0  0  0  0  0  0
   -0.8013   -2.9113    1.8011 C   0  0  0  0  0  0  0  0  0  0  0  0
    0.2766   -2.6450    0.8463 C   0  0  0  0  0  0  0  0  0  0  0  0
    1.0594   -3.4798    0.3235 C   0  0  0  0  0  0  0  0  0  0  0  0
    1.0178   -4.7856    0.9362 C   0  0  0  0  0  0  0  0  0  0  0  0
    1.2937  -10.6862    4.5129 O   0  0  0  0  0  0  0  0  0  0  0  0
    2.0355  -11.8117    3.8654 C   0  0  0  0  0  0  0  0  0  0  0  0
  6 11  1  0
  7 17  1  0
 17 18  1  0
 11 12  2  0
 12 13  1  0
 13 14  2  0
 14 15  1  0
 15 16  2  0
 11 16  1  0
  4 10  2  0
  9 10  1  0
  8  9  2  0
  7  8  1  0
  3  7  2  0
  1  2  2  0
  2  6  1  0
  5  6  2  0
  4  5  1  0
  3  4  1  0
  1  3  1  0
M  END

$$$$
No_4028-/export/home/yangzhenyu/potential_scad_32_flow//YTHDC2/2024-12-06-03-22-00/
     RDKit          3D

 20 21  0  0  1  0  0  0  0  0999 V2000
    1.1787   -8.0297    3.5154 C   0  0  0  0  0  0  0  0  0  0  0  0
    1.1048   -9.2215    3.2892 C   0  0  0  0  0  0  0  0  0  0  0  0
    1.0239   -9.7790    2.0239 C   0  0  0  0  0  0  0  0  0  0  0  0
    1.1393   -9.0211    0.9686 C   0  0  0  0  0  0  0  0  0  0  0  0
    1.4051   -7.6500    1.1251 C   0  0  0  0  0  0  0  0  0  0  0  0
    1.4868   -7.1041    2.3534 C   0  0  0  0  0  0  0  0  0  0  0  0
    0.9659  -10.1420    4.4543 C   0  0  0  0  0  0  0  0  0  0  0  0
    1.7734  -11.5020    4.1857 C   0  0  0  0  0  0  0  0  0  0  0  0
    1.0019  -12.4763    3.6074 C   0  0  0  0  0  0  0  0  0  0  0  0
    1.6710  -13.5404    2.9842 C   0  0  0  0  0  0  0  0  0  0  0  0
    0.9280  -14.2720    2.0152 C   0  0  0  0  0  0  0  0  0  0  0  0
    0.5388  -13.6170    0.9592 C   0  0  0  0  0  0  0  0  0  0  0  0
   -0.6121  -13.0071    0.9035 C   0  0  2  0  0  0  0  0  0  0  0  0
   -1.0669  -12.1452   -0.1315 N   0  0  0  0  0  0  0  0  0  0  0  0
   -2.1868  -11.4120   -0.0789 C   0  0  0  0  0  0  0  0  0  0  0  0
   -2.9426  -11.6945    0.9524 C   0  0  0  0  0  0  0  0  0  0  0  0
   -2.5981  -12.4382    2.0443 C   0  0  0  0  0  0  0  0  0  0  0  0
   -1.3337  -13.0986    2.0340 C   0  0  0  0  0  0  0  0  0  0  0  0
   -2.5747  -10.7809   -1.1921 O   0  0  0  0  0  0  0  0  0  0  0  0
    1.5172   -5.6536    2.6253 O   0  0  0  0  0  0  0  0  0  0  0  0
  2  7  1  0
  7  8  1  0
  8  9  1  0
  9 10  1  0
 10 11  1  0
 11 12  1  0
 13 12  1  1
 13 14  1  0
 14 15  1  0
 15 16  1  0
 13 18  1  0
 17 18  1  0
 15 19  2  0
  6 20  1  0
 16 17  1  0
  1  2  2  0
  2  3  1  0
  3  4  2  0
  4  5  1  0
  5  6  2  0
  1  6  1  0
M  END

$$$$
No_4029-/export/home/yangzhenyu/potential_scad_32_flow//YTHDC2/2024-12-06-03-22-00/
     RDKit          3D

 15 16  0  0  1  0  0  0  0  0999 V2000
    1.1787   -8.0297    3.5154 C   0  0  0  0  0  0  0  0  0  0  0  0
    1.1048   -9.2215    3.2892 C   0  0  0  0  0  0  0  0  0  0  0  0
    1.2339   -9.7611    2.0189 C   0  0  0  0  0  0  0  0  0  0  0  0
    1.3583   -9.0036    0.9764 C   0  0  0  0  0  0  0  0  0  0  0  0
    1.5996   -7.6362    1.1311 C   0  0  0  0  0  0  0  0  0  0  0  0
    1.4830   -7.0928    2.3626 C   0  0  0  0  0  0  0  0  0  0  0  0
    1.1171  -11.3311    1.8661 C   0  0  2  0  0  0  0  0  0  0  0  0
    1.9975  -12.1095    2.2478 C   0  0  0  0  0  0  0  0  0  0  0  0
    1.7697  -13.4418    1.9079 C   0  0  0  0  0  0  0  0  0  0  0  0
    0.8824  -13.8563    1.1154 C   0  0  0  0  0  0  0  0  0  0  0  0
   -0.0664  -12.9335    0.5986 C   0  0  0  0  0  0  0  0  0  0  0  0
    0.1158  -11.5559    0.9634 C   0  0  0  0  0  0  0  0  0  0  0  0
    1.5514   -5.6395    2.6394 N   0  0  0  0  0  0  0  0  0  0  0  0
   -0.8266  -10.6546    0.5219 O   0  0  0  0  0  0  0  0  0  0  0  0
    1.0394   -4.7133    1.8824 O   0  0  0  0  0  0  0  0  0  0  0  0
  7  3  1  6
  7  8  1  0
  9 10  1  0
  7 12  1  0
 11 12  1  0
  6 13  1  0
 12 14  2  0
 13 15  2  0
  8  9  1  0
 10 11  1  0
  1  2  2  0
  2  3  1  0
  3  4  2  0
  4  5  1  0
  5  6  2  0
  1  6  1  0
M  END

$$$$
No_4030-/export/home/yangzhenyu/potential_scad_32_flow//YTHDC2/2024-12-06-03-22-00/
     RDKit          3D

 20 21  0  0  0  0  0  0  0  0999 V2000
    1.1787   -8.0297    3.5154 C   0  0  0  0  0  0  0  0  0  0  0  0
    1.0491   -6.8434    2.9820 C   0  0  0  0  0  0  0  0  0  0  0  0
    0.0950   -8.8404    3.2292 C   0  0  0  0  0  0  0  0  0  0  0  0
   -0.9173   -8.4596    2.5152 C   0  0  0  0  0  0  0  0  0  0  0  0
   -1.0331   -7.2162    2.0653 C   0  0  0  0  0  0  0  0  0  0  0  0
   -0.0105   -6.3168    2.3081 C   0  0  0  0  0  0  0  0  0  0  0  0
    0.1465  -10.2446    3.6981 C   0  0  0  0  0  0  0  0  0  0  0  0
    0.1907  -11.3369    2.8651 C   0  0  0  0  0  0  0  0  0  0  0  0
    0.7661  -12.5788    3.2923 C   0  0  0  0  0  0  0  0  0  0  0  0
    0.7707  -13.6301    2.4861 C   0  0  0  0  0  0  0  0  0  0  0  0
    0.3777  -13.6646    1.3267 C   0  0  0  0  0  0  0  0  0  0  0  0
    0.0152  -12.4888    0.6832 C   0  0  0  0  0  0  0  0  0  0  0  0
   -0.0711  -11.3179    1.4748 C   0  0  0  0  0  0  0  0  0  0  0  0
    1.3463  -15.1322    3.0939 C   0  0  0  0  0  0  0  0  0  0  0  0
    2.4755  -15.5761    2.5606 C   0  0  0  0  0  0  0  0  0  0  0  0
    0.0423   -4.9465    1.8573 C   0  0  0  0  0  0  0  0  0  0  0  0
   -0.3896   -4.6903    0.6752 O   0  0  0  0  0  0  0  0  0  0  0  0
    1.1381   -4.1252    2.2167 N   0  0  0  0  0  0  0  0  0  0  0  0
    2.7555  -16.8882    2.7581 N   0  0  0  0  0  0  0  0  0  0  0  0
    2.1181  -17.4666    3.2865 H   0  0  0  0  0  0  0  0  0  0  0  0
  3  7  1  0
  7  8  1  0
 10 14  1  0
 14 15  1  0
  6 16  1  0
 16 17  2  0
 16 18  1  0
 15 19  2  0
  1  2  2  0
  2  6  1  0
  5  6  2  0
  4  5  1  0
  3  4  2  0
  1  3  1  0
  8  9  2  0
  9 10  1  0
 10 11  2  0
 11 12  1  0
 12 13  2  0
  8 13  1  0
 19 20  1  0
M  END

$$$$
No_4031-/export/home/yangzhenyu/potential_scad_32_flow//YTHDC2/2024-12-06-03-22-00/
     RDKit          3D

 19 21  0  0  0  0  0  0  0  0999 V2000
    1.1787   -8.0297    3.5154 C   0  0  0  0  0  0  0  0  0  0  0  0
    1.0491   -6.8434    2.9820 C   0  0  0  0  0  0  0  0  0  0  0  0
    0.9905   -9.0774    2.6527 C   0  0  0  0  0  0  0  0  0  0  0  0
    0.7897   -8.9519    1.3691 C   0  0  0  0  0  0  0  0  0  0  0  0
    0.7018   -7.7198    0.7892 C   0  0  0  0  0  0  0  0  0  0  0  0
    0.8187   -6.6272    1.5449 C   0  0  0  0  0  0  0  0  0  0  0  0
    1.1111  -10.4707    3.2405 C   0  0  0  0  0  0  0  0  0  0  0  0
    0.0463  -11.2256    3.4465 C   0  0  0  0  0  0  0  0  0  0  0  0
   -1.1846  -10.5618    3.7458 C   0  0  0  0  0  0  0  0  0  0  0  0
   -2.3390  -11.1859    3.8616 C   0  0  0  0  0  0  0  0  0  0  0  0
   -2.3365  -12.4798    3.4153 C   0  0  0  0  0  0  0  0  0  0  0  0
   -1.2595  -13.0874    2.7998 C   0  0  0  0  0  0  0  0  0  0  0  0
   -0.0107  -12.4746    2.8944 C   0  0  0  0  0  0  0  0  0  0  0  0
    1.1647  -13.0684    2.4183 C   0  0  0  0  0  0  0  0  0  0  0  0
    1.5279  -12.9273    1.1735 C   0  0  0  0  0  0  0  0  0  0  0  0
    1.2064  -14.5563    2.6682 C   0  0  0  0  0  0  0  0  0  0  0  0
    2.3027  -15.2685    2.0565 C   0  0  0  0  0  0  0  0  0  0  0  0
    3.2375  -14.7247    1.5493 C   0  0  0  0  0  0  0  0  0  0  0  0
    2.8511  -13.4708    0.7637 C   0  0  0  0  0  0  0  0  0  0  0  0
  3  7  1  0
  7  8  1  0
 13 14  1  0
  1  2  2  0
  2  6  1  0
  5  6  2  0
  4  5  1  0
  3  4  2  0
  1  3  1  0
  8  9  2  0
  9 10  1  0
 10 11  2  0
 11 12  1  0
 12 13  2  0
  8 13  1  0
 14 15  2  0
 15 19  1  0
 18 19  2  0
 17 18  1  0
 16 17  2  0
 14 16  1  0
M  END

$$$$
No_4032-/export/home/yangzhenyu/potential_scad_32_flow//YTHDC2/2024-12-06-03-22-00/
     RDKit          3D

 17 19  0  0  0  0  0  0  0  0999 V2000
    1.1787   -8.0297    3.5154 C   0  0  0  0  0  0  0  0  0  0  0  0
    1.1048   -9.2215    3.2892 C   0  0  0  0  0  0  0  0  0  0  0  0
    1.0239   -9.7790    2.0239 C   0  0  0  0  0  0  0  0  0  0  0  0
    1.1393   -9.0211    0.9686 C   0  0  0  0  0  0  0  0  0  0  0  0
    1.4050   -7.6500    1.1251 C   0  0  0  0  0  0  0  0  0  0  0  0
    1.4868   -7.1041    2.3534 C   0  0  0  0  0  0  0  0  0  0  0  0
    0.9659  -10.1420    4.4543 C   0  0  0  0  0  0  0  0  0  0  0  0
    0.7774  -11.6757    3.9967 C   0  0  0  0  0  0  0  0  0  0  0  0
    0.7817  -12.0852    2.8372 C   0  0  0  0  0  0  0  0  0  0  0  0
    0.8831  -11.1165    1.7750 C   0  0  0  0  0  0  0  0  0  0  0  0
    0.6909  -13.3907    2.5823 C   0  0  0  0  0  0  0  0  0  0  0  0
    1.3944  -14.3498    3.1029 N   0  0  0  0  0  0  0  0  0  0  0  0
    1.1659  -15.6673    2.9734 C   0  0  0  0  0  0  0  0  0  0  0  0
    0.7828  -16.0265    1.8828 C   0  0  0  0  0  0  0  0  0  0  0  0
    0.1894  -15.1588    1.0032 C   0  0  0  0  0  0  0  0  0  0  0  0
    0.1913  -13.8759    1.3675 C   0  0  0  0  0  0  0  0  0  0  0  0
    1.1497   -9.4260   -0.3607 C   0  0  0  0  0  0  0  0  0  0  0  0
  9 11  1  0
  4 17  1  0
 11 12  2  0
 12 13  1  0
 13 14  2  0
 14 15  1  0
 15 16  2  0
 11 16  1  0
  1  2  2  0
  3  4  2  0
  4  5  1  0
  5  6  2  0
  1  6  1  0
  2  3  1  0
  3 10  1  0
  9 10  2  0
  8  9  1  0
  7  8  2  0
  2  7  1  0
M  END

$$$$
No_4033-/export/home/yangzhenyu/potential_scad_32_flow//YTHDC2/2024-12-06-03-22-00/
     RDKit          3D

 18 18  0  0  1  0  0  0  0  0999 V2000
    1.1787   -8.0297    3.5154 C   0  0  0  0  0  0  0  0  0  0  0  0
    1.0491   -6.8434    2.9820 C   0  0  0  0  0  0  0  0  0  0  0  0
    0.9905   -9.0774    2.6527 C   0  0  0  0  0  0  0  0  0  0  0  0
    0.7897   -8.9519    1.3691 C   0  0  0  0  0  0  0  0  0  0  0  0
    0.7018   -7.7198    0.7892 C   0  0  0  0  0  0  0  0  0  0  0  0
    0.8918   -6.5957    1.6117 C   0  0  0  0  0  0  0  0  0  0  0  0
    1.0711  -10.4814    3.2282 C   0  0  2  0  0  0  0  0  0  0  0  0
    2.1432  -11.0138    3.5962 C   0  0  0  0  0  0  0  0  0  0  0  0
   -0.0553  -11.2345    3.2841 C   0  0  0  0  0  0  0  0  0  0  0  0
   -1.2156  -10.5474    3.8659 C   0  0  0  0  0  0  0  0  0  0  0  0
   -2.4298  -10.5507    3.5126 C   0  0  0  0  0  0  0  0  0  0  0  0
   -3.3961   -9.7863    4.3078 C   0  0  0  0  0  0  0  0  0  0  0  0
   -0.2261  -12.3824    2.8373 O   0  0  0  0  0  0  0  0  0  0  0  0
   -3.1272   -8.3872    4.5224 C   0  0  0  0  0  0  0  0  0  0  0  0
   -2.9825   -7.9018    5.8553 C   0  0  0  0  0  0  0  0  0  0  0  0
    0.8923   -5.2755    1.1212 Cl  0  0  0  0  0  0  0  0  0  0  0  0
    2.2228  -11.5780    5.0273 O   0  0  0  0  0  0  0  0  0  0  0  0
   -2.3080   -8.4433    6.6773 C   0  0  0  0  0  0  0  0  0  0  0  0
  3  7  1  0
  7  8  1  6
  7  9  1  0
  9 10  1  0
 10 11  2  3
 11 12  1  0
  9 13  2  0
 12 14  1  0
 14 15  1  0
  6 16  1  0
  8 17  1  0
 15 18  1  0
  1  2  2  0
  2  6  1  0
  5  6  2  0
  4  5  1  0
  3  4  2  0
  1  3  1  0
M  END

$$$$
No_4034-/export/home/yangzhenyu/potential_scad_32_flow//YTHDC2/2024-12-06-03-22-00/
     RDKit          3D

 19 20  0  0  0  0  0  0  0  0999 V2000
    1.1787   -8.0297    3.5154 C   0  0  0  0  0  0  0  0  0  0  0  0
    1.1048   -9.2215    3.2892 C   0  0  0  0  0  0  0  0  0  0  0  0
    1.2339   -9.7611    2.0189 C   0  0  0  0  0  0  0  0  0  0  0  0
    1.3583   -9.0036    0.9764 C   0  0  0  0  0  0  0  0  0  0  0  0
    1.5996   -7.6362    1.1311 C   0  0  0  0  0  0  0  0  0  0  0  0
    1.4830   -7.0928    2.3626 C   0  0  0  0  0  0  0  0  0  0  0  0
    1.1171  -11.3311    1.8661 C   0  0  0  0  0  0  0  0  0  0  0  0
    0.5022  -11.6388    0.6531 C   0  0  0  0  0  0  0  0  0  0  0  0
   -0.4019  -11.0045    0.0890 C   0  0  0  0  0  0  0  0  0  0  0  0
   -1.0458  -11.4180   -1.0837 C   0  0  0  0  0  0  0  0  0  0  0  0
   -2.2045  -11.1746   -1.3389 C   0  0  0  0  0  0  0  0  0  0  0  0
   -2.8787  -10.1637   -0.5747 C   0  0  0  0  0  0  0  0  0  0  0  0
   -2.3285   -9.6796    0.5451 C   0  0  0  0  0  0  0  0  0  0  0  0
   -1.0934  -10.1187    0.9245 C   0  0  0  0  0  0  0  0  0  0  0  0
    1.5271   -5.6757    2.6806 C   0  0  0  0  0  0  0  0  0  0  0  0
    1.3490   -4.8483    1.8775 N   0  0  0  0  0  0  0  0  0  0  0  0
    0.5692   -3.6795    2.0564 C   0  0  0  0  0  0  0  0  0  0  0  0
    0.7317   -2.6466    1.6132 C   0  0  0  0  0  0  0  0  0  0  0  0
    1.0737   -1.5197    2.2323 C   0  0  0  0  0  0  0  0  0  0  0  0
  3  7  1  0
  7  8  1  0
  6 15  1  0
 15 16  1  0
 16 17  1  0
 17 18  1  0
 18 19  1  0
  8  9  1  0
  1  2  2  0
  2  3  1  0
  3  4  2  0
  4  5  1  0
  5  6  2  0
  1  6  1  0
  9 10  2  0
 10 11  1  0
 11 12  2  0
 12 13  1  0
 13 14  2  0
  9 14  1  0
M  END

$$$$
No_4035-/export/home/yangzhenyu/potential_scad_32_flow//YTHDC2/2024-12-06-03-22-00/
     RDKit          3D

 18 18  0  0  0  0  0  0  0  0999 V2000
    1.1787   -8.0297    3.5154 N   0  0  0  0  0  0  0  0  0  0  0  0
    1.0818   -9.0751    3.2053 C   0  0  0  0  0  0  0  0  0  0  0  0
    0.7576   -9.3725    1.9159 C   0  0  0  0  0  0  0  0  0  0  0  0
    0.8823   -8.4917    1.0547 C   0  0  0  0  0  0  0  0  0  0  0  0
    1.4631   -7.3107    1.2451 C   0  0  0  0  0  0  0  0  0  0  0  0
    1.6470   -6.9326    2.5669 C   0  0  0  0  0  0  0  0  0  0  0  0
    0.8237  -10.1305    4.2407 C   0  0  0  0  0  0  0  0  0  0  0  0
    1.7644  -11.1125    4.2479 O   0  0  0  0  0  0  0  0  0  0  0  0
   -0.3923  -10.4314    4.7016 O   0  0  0  0  0  0  0  0  0  0  0  0
    0.8566   -8.9093   -0.4136 C   0  0  0  0  0  0  0  0  0  0  0  0
   -0.4724   -9.1241   -0.7552 O   0  0  0  0  0  0  0  0  0  0  0  0
    1.5257   -8.6003   -1.3389 O   0  0  0  0  0  0  0  0  0  0  0  0
    1.8229   -5.6365    3.0294 C   0  0  0  0  0  0  0  0  0  0  0  0
    1.6040   -4.6078    2.1771 O   0  0  0  0  0  0  0  0  0  0  0  0
    2.0254   -5.3859    4.1882 O   0  0  0  0  0  0  0  0  0  0  0  0
    0.5154  -10.7928    1.5000 C   0  0  0  0  0  0  0  0  0  0  0  0
    1.6503  -11.6098    0.8530 C   0  0  0  0  0  0  0  0  0  0  0  0
    1.9796  -12.5904    1.2644 C   0  0  0  0  0  0  0  0  0  0  0  0
  2  7  1  0
  7  8  2  0
  7  9  1  0
  4 10  1  0
 10 11  2  0
 10 12  1  0
  6 13  1  0
 13 14  2  0
 13 15  1  0
  3 16  1  0
 16 17  1  0
 17 18  2  0
  1  2  2  0
  2  3  1  0
  3  4  2  0
  4  5  1  0
  5  6  2  0
  1  6  1  0
M  END

$$$$
No_4036-/export/home/yangzhenyu/potential_scad_32_flow//YTHDC2/2024-12-06-03-22-00/
     RDKit          3D

 20 21  0  0  0  0  0  0  0  0999 V2000
    1.1787   -8.0297    3.5154 C   0  0  0  0  0  0  0  0  0  0  0  0
    1.1048   -9.2215    3.2892 C   0  0  0  0  0  0  0  0  0  0  0  0
    1.2339   -9.7611    2.0189 C   0  0  0  0  0  0  0  0  0  0  0  0
    1.3583   -9.0036    0.9764 C   0  0  0  0  0  0  0  0  0  0  0  0
    1.5996   -7.6362    1.1311 C   0  0  0  0  0  0  0  0  0  0  0  0
    1.4830   -7.0928    2.3626 C   0  0  0  0  0  0  0  0  0  0  0  0
    1.5395   -5.7300    2.6182 C   0  0  0  0  0  0  0  0  0  0  0  0
    1.1969  -11.3760    1.8433 C   0  0  0  0  0  0  0  0  0  0  0  0
    0.2951  -11.9827    2.0623 O   0  0  0  0  0  0  0  0  0  0  0  0
    0.1729  -13.0728    1.9834 C   0  0  0  0  0  0  0  0  0  0  0  0
   -0.9379  -13.7732    1.7586 C   0  0  0  0  0  0  0  0  0  0  0  0
   -1.0044  -15.2346    1.8433 C   0  0  0  0  0  0  0  0  0  0  0  0
    0.1403  -15.9491    2.2183 C   0  0  0  0  0  0  0  0  0  0  0  0
    1.3844  -15.2755    2.5316 C   0  0  0  0  0  0  0  0  0  0  0  0
    1.4006  -13.8563    2.4392 C   0  0  0  0  0  0  0  0  0  0  0  0
    1.3005   -4.8118    1.6751 N   0  0  0  0  0  0  0  0  0  0  0  0
    1.7754   -5.1742    3.8150 O   0  0  0  0  0  0  0  0  0  0  0  0
    1.2297   -3.4516    1.7187 C   0  0  0  0  0  0  0  0  0  0  0  0
   -2.1134  -13.2157    1.4411 Cl  0  0  0  0  0  0  0  0  0  0  0  0
    2.3211  -11.6598    1.1699 O   0  0  0  0  0  0  0  0  0  0  0  0
  6  7  1  0
  3  8  1  0
  8  9  1  0
  9 10  1  0
  7 16  1  0
  7 17  2  0
 16 18  1  0
 11 19  1  0
  8 20  2  0
  1  2  2  0
  2  3  1  0
  3  4  2  0
  4  5  1  0
  5  6  2  0
  1  6  1  0
 10 11  2  0
 11 12  1  0
 12 13  2  0
 13 14  1  0
 14 15  2  0
 10 15  1  0
M  END

$$$$
No_4037-/export/home/yangzhenyu/potential_scad_32_flow//YTHDC2/2024-12-06-03-22-00/
     RDKit          3D

 19 21  0  0  0  0  0  0  0  0999 V2000
    1.1787   -8.0297    3.5154 C   0  0  0  0  0  0  0  0  0  0  0  0
    1.0491   -6.8434    2.9820 N   0  0  0  0  0  0  0  0  0  0  0  0
    0.1476   -8.8697    3.1493 C   0  0  0  0  0  0  0  0  0  0  0  0
   -0.7634   -8.3679    2.4311 C   0  0  0  0  0  0  0  0  0  0  0  0
   -0.7632   -7.1621    1.9640 C   0  0  0  0  0  0  0  0  0  0  0  0
   -1.9084   -6.7020    1.2604 C   0  0  0  0  0  0  0  0  0  0  0  0
    0.3217   -6.3241    2.2463 C   0  0  0  0  0  0  0  0  0  0  0  0
   -2.3901   -5.4270    1.4330 C   0  0  0  0  0  0  0  0  0  0  0  0
   -1.8164   -4.6381    2.5216 C   0  0  0  0  0  0  0  0  0  0  0  0
   -0.3227   -4.7949    2.7188 C   0  0  0  0  0  0  0  0  0  0  0  0
    0.4665   -4.0614    3.4453 C   0  0  0  0  0  0  0  0  0  0  0  0
    0.3881  -10.2849    3.5321 C   0  0  0  0  0  0  0  0  0  0  0  0
    1.5345  -10.8242    3.8997 C   0  0  0  0  0  0  0  0  0  0  0  0
    1.8990  -12.0222    3.3624 C   0  0  0  0  0  0  0  0  0  0  0  0
    0.7505  -12.8288    3.0579 C   0  0  0  0  0  0  0  0  0  0  0  0
   -0.4244  -12.3763    2.8583 C   0  0  0  0  0  0  0  0  0  0  0  0
   -0.6728  -11.0758    3.1334 C   0  0  0  0  0  0  0  0  0  0  0  0
    1.1865  -14.4008    2.8824 O   0  0  0  0  0  0  0  0  0  0  0  0
    2.1420  -14.6590    2.0894 C   0  0  0  0  0  0  0  0  0  0  0  0
 10 11  1  0
  3 12  1  0
 15 18  1  0
 18 19  1  0
  1  2  2  0
  2  7  1  0
  4  5  1  0
  3  4  2  0
  1  3  1  0
  5  6  2  0
  6  8  1  0
  8  9  2  0
  9 10  1  0
  7 10  2  0
  5  7  1  0
 12 13  2  0
 13 14  1  0
 14 15  2  0
 15 16  1  0
 16 17  2  0
 12 17  1  0
M  END

$$$$
No_4038-/export/home/yangzhenyu/potential_scad_32_flow//YTHDC2/2024-12-06-03-22-00/
     RDKit          3D

 18 19  0  0  0  0  0  0  0  0999 V2000
    1.1787   -8.0297    3.5154 C   0  0  0  0  0  0  0  0  0  0  0  0
    1.1048   -9.2215    3.2892 C   0  0  0  0  0  0  0  0  0  0  0  0
    1.3627  -10.1721    4.3044 C   0  0  0  0  0  0  0  0  0  0  0  0
    1.0682  -11.5187    4.0618 C   0  0  0  0  0  0  0  0  0  0  0  0
    0.6332  -11.9655    2.9682 C   0  0  0  0  0  0  0  0  0  0  0  0
    0.4776  -11.1308    1.9203 C   0  0  0  0  0  0  0  0  0  0  0  0
    0.7470   -9.8274    2.0368 C   0  0  0  0  0  0  0  0  0  0  0  0
    1.0387   -7.0301    2.5175 C   0  0  0  0  0  0  0  0  0  0  0  0
    0.9130   -7.5288    1.2013 C   0  0  0  0  0  0  0  0  0  0  0  0
    0.7893   -8.7979    0.9542 C   0  0  0  0  0  0  0  0  0  0  0  0
    0.5241   -9.2578   -0.2817 C   0  0  0  0  0  0  0  0  0  0  0  0
   -0.7560   -9.7391   -0.6285 F   0  0  0  0  0  0  0  0  0  0  0  0
    1.1543   -8.9599   -1.2035 F   0  0  0  0  0  0  0  0  0  0  0  0
    0.5038  -13.3745    2.6985 C   0  0  0  0  0  0  0  0  0  0  0  0
    1.4401  -14.2816    3.1891 N   0  0  0  0  0  0  0  0  0  0  0  0
    1.5738  -15.4781    2.7489 C   0  0  0  0  0  0  0  0  0  0  0  0
    2.6416  -15.8261    2.0657 F   0  0  0  0  0  0  0  0  0  0  0  0
    0.6988  -16.3892    3.0167 O   0  0  0  0  0  0  0  0  0  0  0  0
 10 11  1  0
 11 12  1  0
 11 13  1  0
  5 14  1  0
 14 15  1  0
 15 16  1  0
 16 17  1  0
 16 18  2  0
  2  3  1  0
  3  4  2  0
  4  5  1  0
  5  6  2  0
  6  7  1  0
  1  2  2  0
  2  7  1  0
  7 10  2  0
  9 10  1  0
  8  9  2  0
  1  8  1  0
M  END

$$$$
No_4039-/export/home/yangzhenyu/potential_scad_32_flow//YTHDC2/2024-12-06-03-22-00/
     RDKit          3D

 18 19  0  0  0  0  0  0  0  0999 V2000
    1.1787   -8.0297    3.5154 C   0  0  0  0  0  0  0  0  0  0  0  0
    1.0491   -6.8434    2.9820 C   0  0  0  0  0  0  0  0  0  0  0  0
    0.0950   -8.8404    3.2292 C   0  0  0  0  0  0  0  0  0  0  0  0
   -0.9173   -8.4596    2.5152 C   0  0  0  0  0  0  0  0  0  0  0  0
   -1.0331   -7.2162    2.0653 C   0  0  0  0  0  0  0  0  0  0  0  0
   -0.0105   -6.3168    2.3081 C   0  0  0  0  0  0  0  0  0  0  0  0
    0.1465  -10.2446    3.6981 C   0  0  0  0  0  0  0  0  0  0  0  0
   -1.0336  -10.8619    3.9439 C   0  0  0  0  0  0  0  0  0  0  0  0
   -2.1702  -10.4673    3.2991 C   0  0  0  0  0  0  0  0  0  0  0  0
   -3.3899  -11.1272    3.4065 C   0  0  0  0  0  0  0  0  0  0  0  0
   -2.1683   -9.3490    2.5232 C   0  0  0  0  0  0  0  0  0  0  0  0
   -0.0739   -4.9872    1.8080 C   0  0  0  0  0  0  0  0  0  0  0  0
   -0.8537   -4.1331    2.1917 C   0  0  0  0  0  0  0  0  0  0  0  0
   -2.0020   -4.2682    2.4651 C   0  0  0  0  0  0  0  0  0  0  0  0
   -0.3118   -2.7525    2.4662 C   0  0  0  0  0  0  0  0  0  0  0  0
   -3.3466  -12.4927    3.1737 C   0  0  0  0  0  0  0  0  0  0  0  0
   -2.3871  -13.1201    2.5234 C   0  0  0  0  0  0  0  0  0  0  0  0
   -4.4247  -13.2910    3.7654 C   0  0  0  0  0  0  0  0  0  0  0  0
  9 10  1  0
  6 12  1  0
 12 13  1  0
 13 14  2  0
 13 15  1  0
 10 16  1  0
 16 17  1  0
 16 18  1  0
  1  2  2  0
  2  6  1  0
  5  6  2  0
  4  5  1  0
  1  3  1  0
  3  4  2  0
  4 11  1  0
  9 11  2  0
  8  9  1  0
  7  8  2  0
  3  7  1  0
M  END

$$$$
No_4040-/export/home/yangzhenyu/potential_scad_32_flow//YTHDC2/2024-12-06-03-22-00/
     RDKit          3D

 18 20  0  0  0  0  0  0  0  0999 V2000
    1.1787   -8.0297    3.5154 C   0  0  0  0  0  0  0  0  0  0  0  0
    1.1048   -9.2215    3.2892 C   0  0  0  0  0  0  0  0  0  0  0  0
    1.2339   -9.7611    2.0189 C   0  0  0  0  0  0  0  0  0  0  0  0
    1.1954  -11.2312    1.8661 C   0  0  0  0  0  0  0  0  0  0  0  0
    1.5546  -12.1691    2.7931 C   0  0  0  0  0  0  0  0  0  0  0  0
    0.9527   -7.0669    2.3918 C   0  0  0  0  0  0  0  0  0  0  0  0
    1.0618   -7.6392    1.0692 C   0  0  0  0  0  0  0  0  0  0  0  0
    1.2060   -8.9530    0.8578 C   0  0  0  0  0  0  0  0  0  0  0  0
    1.5159  -13.5011    2.3738 C   0  0  0  0  0  0  0  0  0  0  0  0
    1.1409  -13.8990    1.1908 C   0  0  0  0  0  0  0  0  0  0  0  0
    0.9249  -13.0546    0.2183 C   0  0  0  0  0  0  0  0  0  0  0  0
    0.9227  -11.6707    0.5316 C   0  0  0  0  0  0  0  0  0  0  0  0
    1.0078   -5.6071    2.4628 C   0  0  0  0  0  0  0  0  0  0  0  0
    1.2033   -9.3963   -0.3819 C   0  0  0  0  0  0  0  0  0  0  0  0
    0.9005  -10.7986   -0.5745 N   0  0  0  0  0  0  0  0  0  0  0  0
    0.9587   -8.7220   -1.4222 O   0  0  0  0  0  0  0  0  0  0  0  0
    1.8086  -14.4491    3.4415 Cl  0  0  0  0  0  0  0  0  0  0  0  0
    1.8140   -5.0961    3.4628 C   0  0  0  0  0  0  0  0  0  0  0  0
  3  4  1  0
  6 13  1  0
  8 14  1  0
 12 15  1  0
 14 15  1  0
 14 16  2  0
  9 17  1  0
 13 18  1  0
  1  2  2  0
  2  3  1  0
  3  8  2  0
  7  8  1  0
  6  7  2  0
  1  6  1  0
  4  5  2  0
  5  9  1  0
  9 10  2  0
 10 11  1  0
 11 12  2  0
  4 12  1  0
M  END

$$$$
No_4041-/export/home/yangzhenyu/potential_scad_32_flow//YTHDC2/2024-12-06-03-22-00/
     RDKit          3D

 19 21  0  0  1  0  0  0  0  0999 V2000
    1.1787   -8.0297    3.5154 C   0  0  0  0  0  0  0  0  0  0  0  0
    1.1048   -9.2215    3.2892 C   0  0  0  0  0  0  0  0  0  0  0  0
    1.3627  -10.1721    4.3044 C   0  0  0  0  0  0  0  0  0  0  0  0
    1.0682  -11.5187    4.0618 C   0  0  0  0  0  0  0  0  0  0  0  0
    0.6332  -11.9655    2.9682 C   0  0  0  0  0  0  0  0  0  0  0  0
    0.4776  -11.1308    1.9203 C   0  0  0  0  0  0  0  0  0  0  0  0
    0.7470   -9.8274    2.0368 C   0  0  0  0  0  0  0  0  0  0  0  0
    1.0387   -7.0301    2.5175 C   0  0  0  0  0  0  0  0  0  0  0  0
    0.9130   -7.5288    1.2013 C   0  0  1  0  0  0  0  0  0  0  0  0
    1.0339   -6.5946    0.2140 C   0  0  0  0  0  0  0  0  0  0  0  0
    0.8501   -8.8374    0.9631 C   0  0  0  0  0  0  0  0  0  0  0  0
   -0.0474   -5.9829    0.0336 C   0  0  0  0  0  0  0  0  0  0  0  0
    0.4215  -13.3888    2.7436 C   0  0  0  0  0  0  0  0  0  0  0  0
   -0.7350  -13.9404    2.4636 C   0  0  0  0  0  0  0  0  0  0  0  0
   -0.7911  -15.3562    2.3873 C   0  0  0  0  0  0  0  0  0  0  0  0
    0.2929  -16.1671    2.3669 C   0  0  0  0  0  0  0  0  0  0  0  0
    1.5637  -15.6094    2.6125 C   0  0  0  0  0  0  0  0  0  0  0  0
    1.6500  -14.1987    2.8568 C   0  0  0  0  0  0  0  0  0  0  0  0
    0.9356   -9.4140   -0.2400 O   0  0  0  0  0  0  0  0  0  0  0  0
  1  2  1  0
  8  9  1  0
  9 10  1  6
  7 11  1  0
  9 11  1  0
 10 12  2  0
  5 13  1  0
 11 19  2  0
  1  8  1  0
  2  3  2  0
  3  4  1  0
  4  5  2  0
  5  6  1  0
  6  7  2  0
  2  7  1  0
 13 14  2  0
 14 15  1  0
 15 16  2  0
 16 17  1  0
 17 18  2  0
 13 18  1  0
M  END

$$$$
No_4042-/export/home/yangzhenyu/potential_scad_32_flow//YTHDC2/2024-12-06-03-22-00/
     RDKit          3D

 17 17  0  0  1  0  0  0  0  0999 V2000
    1.1787   -8.0297    3.5154 C   0  0  0  0  0  0  0  0  0  0  0  0
    1.1048   -9.2215    3.2892 C   0  0  0  0  0  0  0  0  0  0  0  0
    1.2339   -9.7611    2.0189 C   0  0  0  0  0  0  0  0  0  0  0  0
    1.3583   -9.0036    0.9764 C   0  0  0  0  0  0  0  0  0  0  0  0
    1.5996   -7.6362    1.1311 C   0  0  0  0  0  0  0  0  0  0  0  0
    1.4830   -7.0928    2.3626 C   0  0  0  0  0  0  0  0  0  0  0  0
    1.4898   -5.7274    2.6199 C   0  0  0  0  0  0  0  0  0  0  0  0
    1.1681  -11.2222    1.8390 C   0  0  0  0  0  0  0  0  0  0  0  0
    0.7145  -11.5870    0.5424 O   0  0  0  0  0  0  0  0  0  0  0  0
    1.6537  -12.0580    2.6183 N   0  0  0  0  0  0  0  0  0  0  0  0
    1.6651  -13.4392    2.3517 C   0  0  2  0  0  0  0  0  0  0  0  0
    2.7106  -14.1509    1.7548 C   0  0  0  0  0  0  0  0  0  0  0  0
    0.4572  -14.0711    2.5392 C   0  0  0  0  0  0  0  0  0  0  0  0
    0.4882  -15.5104    2.4801 C   0  0  0  0  0  0  0  0  0  0  0  0
   -0.6558  -16.2967    2.9281 C   0  0  0  0  0  0  0  0  0  0  0  0
   -1.9064  -15.8557    2.6155 C   0  0  0  0  0  0  0  0  0  0  0  0
   -2.1215  -14.7658    1.7603 C   0  0  0  0  0  0  0  0  0  0  0  0
  6  7  1  0
  3  8  1  0
  8  9  2  0
  8 10  1  0
 10 11  1  0
 11 12  1  6
 11 13  1  0
 13 14  2  3
 14 15  1  0
 15 16  2  3
 16 17  1  0
  1  2  2  0
  2  3  1  0
  3  4  2  0
  4  5  1  0
  5  6  2  0
  1  6  1  0
M  END

$$$$
No_4043-/export/home/yangzhenyu/potential_scad_32_flow//YTHDC2/2024-12-06-03-22-00/
     RDKit          3D

 19 19  0  0  1  0  0  0  0  0999 V2000
    1.1787   -8.0297    3.5154 C   0  0  0  0  0  0  0  0  0  0  0  0
    1.0491   -6.8434    2.9820 C   0  0  0  0  0  0  0  0  0  0  0  0
    0.9905   -9.0774    2.6527 C   0  0  0  0  0  0  0  0  0  0  0  0
    0.7897   -8.9519    1.3691 C   0  0  0  0  0  0  0  0  0  0  0  0
    0.7018   -7.7198    0.7892 C   0  0  0  0  0  0  0  0  0  0  0  0
    0.8918   -6.5957    1.6117 C   0  0  0  0  0  0  0  0  0  0  0  0
    1.0774  -10.6059    3.3145 C   0  0  0  0  0  0  0  0  0  0  0  0
    1.2215  -11.6205    2.4178 N   0  0  0  0  0  0  0  0  0  0  0  0
    1.0648  -12.6036    2.5490 C   0  0  0  0  0  0  0  0  0  0  0  0
    1.2882  -13.8338    1.7950 C   0  0  1  0  0  0  0  0  0  0  0  0
    2.0641  -13.6077    0.6775 C   0  0  0  0  0  0  0  0  0  0  0  0
    2.3153  -14.7274    2.6163 C   0  0  0  0  0  0  0  0  0  0  0  0
    1.1195  -10.7251    4.5215 O   0  0  0  0  0  0  0  0  0  0  0  0
    0.8045   -5.2899    1.0810 O   0  0  0  0  0  0  0  0  0  0  0  0
    2.7152  -15.9383    1.8955 C   0  0  0  0  0  0  0  0  0  0  0  0
    1.7382  -17.0755    2.2974 C   0  0  0  0  0  0  0  0  0  0  0  0
    2.3129  -18.3100    2.1679 O   0  0  0  0  0  0  0  0  0  0  0  0
    0.5611  -16.8727    2.5542 O   0  0  0  0  0  0  0  0  0  0  0  0
    0.3720   -4.2168    1.7954 C   0  0  0  0  0  0  0  0  0  0  0  0
  3  7  1  0
  7  8  1  0
  8  9  1  0
  9 10  1  0
 10 11  1  6
 10 12  1  0
  7 13  2  0
  6 14  1  0
 12 15  1  0
 15 16  1  0
 16 17  1  0
 16 18  2  0
 14 19  1  0
  1  2  2  0
  2  6  1  0
  5  6  2  0
  4  5  1  0
  3  4  2  0
  1  3  1  0
M  END

$$$$
No_4044-/export/home/yangzhenyu/potential_scad_32_flow//YTHDC2/2024-12-06-03-22-00/
     RDKit          3D

 18 19  0  0  0  0  0  0  0  0999 V2000
    1.1787   -8.0297    3.5154 O   0  0  0  0  0  0  0  0  0  0  0  0
    0.9969   -8.9689    3.0048 C   0  0  0  0  0  0  0  0  0  0  0  0
    0.9976   -8.9567    1.6341 C   0  0  0  0  0  0  0  0  0  0  0  0
    1.6062   -9.9071    0.9292 C   0  0  0  0  0  0  0  0  0  0  0  0
    2.1191  -10.9757    1.6503 C   0  0  0  0  0  0  0  0  0  0  0  0
    1.7235  -10.9586    3.1423 C   0  0  0  0  0  0  0  0  0  0  0  0
    1.3712   -9.9249    3.6869 C   0  0  0  0  0  0  0  0  0  0  0  0
    0.6340   -7.6258    0.9711 O   0  0  0  0  0  0  0  0  0  0  0  0
    2.2556  -12.2004    3.7351 C   0  0  0  0  0  0  0  0  0  0  0  0
    1.7143  -13.3676    3.0714 N   0  0  0  0  0  0  0  0  0  0  0  0
    0.4093  -13.7895    3.1127 C   0  0  0  0  0  0  0  0  0  0  0  0
    0.2512  -15.1492    2.7093 C   0  0  0  0  0  0  0  0  0  0  0  0
   -0.9081  -15.6363    2.6996 N   0  0  0  0  0  0  0  0  0  0  0  0
    1.3258  -15.8362    2.0122 C   0  0  0  0  0  0  0  0  0  0  0  0
    1.0517  -17.1849    1.6976 C   0  0  0  0  0  0  0  0  0  0  0  0
   -0.1574  -17.6769    1.9879 C   0  0  0  0  0  0  0  0  0  0  0  0
   -1.1348  -16.8966    2.5086 C   0  0  0  0  0  0  0  0  0  0  0  0
   -0.4777  -12.9678    3.3004 O   0  0  0  0  0  0  0  0  0  0  0  0
  1  2  1  0
  3  8  1  0
  6  9  1  0
  9 10  1  0
 10 11  1  0
 11 12  1  0
 11 18  2  0
  2  3  2  0
  3  4  1  0
  4  5  2  0
  5  6  1  0
  6  7  2  0
  2  7  1  0
 12 13  2  0
 13 17  1  0
 16 17  2  0
 15 16  1  0
 14 15  2  0
 12 14  1  0
M  END

$$$$
No_4045-/export/home/yangzhenyu/potential_scad_32_flow//YTHDC2/2024-12-06-03-22-00/
     RDKit          3D

 20 20  0  0  1  0  0  0  0  0999 V2000
    1.1787   -8.0297    3.5154 C   0  0  0  0  0  0  0  0  0  0  0  0
    1.0491   -6.8434    2.9820 C   0  0  0  0  0  0  0  0  0  0  0  0
    0.9905   -9.0774    2.6527 C   0  0  0  0  0  0  0  0  0  0  0  0
    0.7897   -8.9519    1.3691 C   0  0  0  0  0  0  0  0  0  0  0  0
    0.7018   -7.7198    0.7892 C   0  0  0  0  0  0  0  0  0  0  0  0
    0.8918   -6.5957    1.6117 C   0  0  0  0  0  0  0  0  0  0  0  0
    1.0774  -10.6059    3.3145 N   0  0  0  0  0  0  0  0  0  0  0  0
    2.1188  -11.0993    3.5491 C   0  0  0  0  0  0  0  0  0  0  0  0
    3.1264  -10.2925    4.2353 C   0  0  0  0  0  0  0  0  0  0  0  0
    2.7824   -9.8006    5.3438 O   0  0  0  0  0  0  0  0  0  0  0  0
    0.8143   -5.2925    1.1045 O   0  0  0  0  0  0  0  0  0  0  0  0
   -0.1756  -11.2043    3.3084 C   0  0  0  0  0  0  0  0  0  0  0  0
   -1.2534  -10.6350    3.8556 O   0  0  0  0  0  0  0  0  0  0  0  0
   -0.3112  -12.3237    2.4078 N   0  0  0  0  0  0  0  0  0  0  0  0
    0.7458  -12.8415    1.7508 C   0  0  2  0  0  0  0  0  0  0  0  0
    0.8222  -12.5319    0.4030 C   0  0  0  0  0  0  0  0  0  0  0  0
    0.8644  -14.3856    1.7544 C   0  0  0  0  0  0  0  0  0  0  0  0
    2.0618  -14.9702    1.8418 C   0  0  0  0  0  0  0  0  0  0  0  0
    2.2727  -16.3332    2.1987 N   0  0  0  0  0  0  0  0  0  0  0  0
    1.4839  -16.9286    2.4069 H   0  0  0  0  0  0  0  0  0  0  0  0
  3  7  1  0
  7  8  1  0
  8  9  1  0
  9 10  1  0
  6 11  1  0
  7 12  1  0
 12 13  2  0
 12 14  1  0
 14 15  1  0
 15 16  1  6
 15 17  1  0
 17 18  1  0
 18 19  2  0
  1  2  2  0
  2  6  1  0
  5  6  2  0
  4  5  1  0
  3  4  2  0
  1  3  1  0
 19 20  1  0
M  END

$$$$
No_4046-/export/home/yangzhenyu/potential_scad_32_flow//YTHDC2/2024-12-06-03-22-00/
     RDKit          3D

 18 19  0  0  0  0  0  0  0  0999 V2000
    1.1787   -8.0297    3.5154 C   0  0  0  0  0  0  0  0  0  0  0  0
    1.0491   -6.8434    2.9820 C   0  0  0  0  0  0  0  0  0  0  0  0
    0.9905   -9.0774    2.6527 C   0  0  0  0  0  0  0  0  0  0  0  0
    0.7897   -8.9519    1.3691 C   0  0  0  0  0  0  0  0  0  0  0  0
    0.6550  -10.0985    0.4848 C   0  0  0  0  0  0  0  0  0  0  0  0
    0.7459   -6.7421    1.4837 C   0  0  0  0  0  0  0  0  0  0  0  0
    0.6476   -7.7243    0.7621 C   0  0  0  0  0  0  0  0  0  0  0  0
    0.0253   -9.8237   -0.7710 O   0  0  0  0  0  0  0  0  0  0  0  0
    1.0107  -11.2718    0.6271 N   0  0  0  0  0  0  0  0  0  0  0  0
    1.7528  -11.7609    1.8399 C   0  0  0  0  0  0  0  0  0  0  0  0
    1.7493  -13.0748    2.0637 C   0  0  0  0  0  0  0  0  0  0  0  0
    1.9052  -14.0260    1.0466 C   0  0  0  0  0  0  0  0  0  0  0  0
    2.0321  -15.3330    1.4410 C   0  0  0  0  0  0  0  0  0  0  0  0
    1.9210  -15.6019    2.9166 C   0  0  0  0  0  0  0  0  0  0  0  0
    1.5441  -14.0789    3.4456 C   0  0  0  0  0  0  0  0  0  0  0  0
    1.3299   -5.5394    3.7683 I   0  0  0  0  0  0  0  0  0  0  0  0
    1.6695  -16.4979    3.7231 C   0  0  0  0  0  0  0  0  0  0  0  0
    0.9879  -17.5745    3.4220 N   0  0  0  0  0  0  0  0  0  0  0  0
  4  5  1  0
  5  8  2  0
  5  9  1  0
  9 10  2  3
 10 11  1  0
 11 12  1  0
 12 13  2  0
 13 14  1  0
 11 15  1  0
 14 15  2  0
  2 16  1  0
 14 17  1  0
 17 18  1  0
  1  2  2  0
  2  6  1  0
  6  7  2  0
  4  7  1  0
  3  4  2  0
  1  3  1  0
M  END

$$$$
No_4047-/export/home/yangzhenyu/potential_scad_32_flow//YTHDC2/2024-12-06-03-22-00/
     RDKit          3D

 18 19  0  0  0  0  0  0  0  0999 V2000
    1.1787   -8.0297    3.5154 C   0  0  0  0  0  0  0  0  0  0  0  0
    1.1048   -9.2215    3.2892 N   0  0  0  0  0  0  0  0  0  0  0  0
    1.0346   -9.7785    2.1176 C   0  0  0  0  0  0  0  0  0  0  0  0
    1.2597   -9.0826    1.0431 C   0  0  0  0  0  0  0  0  0  0  0  0
    1.5530   -7.7656    1.0977 C   0  0  0  0  0  0  0  0  0  0  0  0
    1.5300   -7.1323    2.3379 C   0  0  0  0  0  0  0  0  0  0  0  0
    0.8242  -11.2361    2.0332 C   0  0  0  0  0  0  0  0  0  0  0  0
    1.8435  -12.0374    2.2086 C   0  0  0  0  0  0  0  0  0  0  0  0
    1.6375  -13.4226    1.9752 C   0  0  0  0  0  0  0  0  0  0  0  0
    0.5057  -13.8785    1.5462 C   0  0  0  0  0  0  0  0  0  0  0  0
   -0.5338  -13.0832    1.2184 C   0  0  0  0  0  0  0  0  0  0  0  0
   -0.3806  -11.7100    1.5258 C   0  0  0  0  0  0  0  0  0  0  0  0
   -1.4369  -10.8248    1.2634 C   0  0  0  0  0  0  0  0  0  0  0  0
   -2.2914  -10.4501    2.2333 C   0  0  0  0  0  0  0  0  0  0  0  0
   -3.4105   -9.6574    2.1640 C   0  0  0  0  0  0  0  0  0  0  0  0
   -3.9059   -9.0952    3.2718 C   0  0  0  0  0  0  0  0  0  0  0  0
   -3.3547   -9.4249    4.5434 C   0  0  0  0  0  0  0  0  0  0  0  0
   -2.2478  -10.1605    4.7064 C   0  0  0  0  0  0  0  0  0  0  0  0
  3  7  1  0
 12 13  1  0
 13 14  2  3
 14 15  1  0
 15 16  2  3
 16 17  1  0
 17 18  1  0
  1  2  2  0
  2  3  1  0
  3  4  2  0
  4  5  1  0
  5  6  2  0
  1  6  1  0
  7  8  2  0
  8  9  1  0
  9 10  2  0
 10 11  1  0
 11 12  2  0
  7 12  1  0
M  END

$$$$
No_4048-/export/home/yangzhenyu/potential_scad_32_flow//YTHDC2/2024-12-06-03-22-00/
     RDKit          3D

 18 18  0  0  1  0  0  0  0  0999 V2000
    1.1787   -8.0297    3.5154 O   0  0  0  0  0  0  0  0  0  0  0  0
    0.9969   -8.9689    3.0048 C   0  0  1  0  0  0  0  0  0  0  0  0
    1.3055  -10.1056    3.6616 C   0  0  0  0  0  0  0  0  0  0  0  0
    2.1315  -10.4529    4.2438 C   0  0  0  0  0  0  0  0  0  0  0  0
   -0.0205   -8.7946    1.9507 C   0  0  0  0  0  0  0  0  0  0  0  0
   -0.5225   -7.8529    1.9614 C   0  0  0  0  0  0  0  0  0  0  0  0
   -0.9544   -7.1495    1.3827 C   0  0  0  0  0  0  0  0  0  0  0  0
   -1.0520   -7.5181   -0.0464 C   0  0  0  0  0  0  0  0  0  0  0  0
   -0.5470   -8.8187   -0.3838 C   0  0  0  0  0  0  0  0  0  0  0  0
    0.0939   -9.4824    0.7410 C   0  0  0  0  0  0  0  0  0  0  0  0
    0.6921  -10.6356    0.5100 C   0  0  0  0  0  0  0  0  0  0  0  0
   -0.0254  -11.8097    0.6181 O   0  0  0  0  0  0  0  0  0  0  0  0
    2.0618  -10.7575    0.4600 O   0  0  0  0  0  0  0  0  0  0  0  0
   -1.9057   -7.0030   -1.3565 C   0  0  0  0  0  0  0  0  0  0  0  0
   -2.0943   -5.7466   -1.2405 O   0  0  0  0  0  0  0  0  0  0  0  0
   -1.8291   -7.5227   -2.4841 O   0  0  0  0  0  0  0  0  0  0  0  0
    2.4118  -11.7856    4.8466 C   0  0  0  0  0  0  0  0  0  0  0  0
    2.2402  -12.7477    3.8231 C   0  0  0  0  0  0  0  0  0  0  0  0
  2  1  1  1
  2  3  1  0
  3  4  2  3
  2  5  1  0
 10 11  1  0
 11 12  2  0
 11 13  1  0
  8 14  1  0
 14 15  2  0
 14 16  1  0
  4 17  1  0
 17 18  2  0
  5  6  2  0
  6  7  1  0
  7  8  2  0
  8  9  1  0
  9 10  2  0
  5 10  1  0
M  END

$$$$
No_4049-/export/home/yangzhenyu/potential_scad_32_flow//YTHDC2/2024-12-06-03-22-00/
     RDKit          3D

 17 17  0  0  0  0  0  0  0  0999 V2000
    1.1787   -8.0297    3.5154 C   0  0  0  0  0  0  0  0  0  0  0  0
    1.1048   -9.2215    3.2892 C   0  0  0  0  0  0  0  0  0  0  0  0
    1.3627  -10.1721    4.3044 C   0  0  0  0  0  0  0  0  0  0  0  0
    1.0682  -11.5187    4.0618 C   0  0  0  0  0  0  0  0  0  0  0  0
    0.6332  -11.9655    2.9682 F   0  0  0  0  0  0  0  0  0  0  0  0
    1.0023   -7.1575    2.3407 C   0  0  0  0  0  0  0  0  0  0  0  0
    1.0206   -7.6120    1.1157 C   0  0  0  0  0  0  0  0  0  0  0  0
    1.1556   -8.8761    0.8447 C   0  0  0  0  0  0  0  0  0  0  0  0
    1.2267   -9.8062    1.9192 C   0  0  0  0  0  0  0  0  0  0  0  0
    1.1662   -9.4356   -0.5435 C   0  0  0  0  0  0  0  0  0  0  0  0
    0.1919  -10.0697   -0.9053 O   0  0  0  0  0  0  0  0  0  0  0  0
    1.8784   -8.9523   -1.4071 O   0  0  0  0  0  0  0  0  0  0  0  0
    1.2126  -12.3487    5.0022 O   0  0  0  0  0  0  0  0  0  0  0  0
    0.9945   -5.6341    2.5722 C   0  0  0  0  0  0  0  0  0  0  0  0
    1.6887   -5.0896    3.5087 C   0  0  0  0  0  0  0  0  0  0  0  0
    1.1176   -4.1236    4.1268 O   0  0  0  0  0  0  0  0  0  0  0  0
    2.6501   -5.5562    4.1079 O   0  0  0  0  0  0  0  0  0  0  0  0
  2  3  1  0
  3  4  2  3
  4  5  1  0
  8 10  1  0
 10 11  2  0
 10 12  1  0
  4 13  1  0
  6 14  1  0
 14 15  1  0
 15 16  2  0
 15 17  1  0
  1  2  2  0
  2  9  1  0
  8  9  2  0
  7  8  1  0
  6  7  2  0
  1  6  1  0
M  END

$$$$
No_4050-/export/home/yangzhenyu/potential_scad_32_flow//YTHDC2/2024-12-06-03-22-00/
     RDKit          3D

 19 19  0  0  0  0  0  0  0  0999 V2000
    1.1787   -8.0297    3.5154 N   0  0  0  0  0  0  0  0  0  0  0  0
    0.8669   -7.0905    2.8589 C   0  0  0  0  0  0  0  0  0  0  0  0
    1.0447   -7.3244    1.4123 C   0  0  0  0  0  0  0  0  0  0  0  0
    1.3746   -8.4389    1.0864 C   0  0  0  0  0  0  0  0  0  0  0  0
    1.8493   -9.4093    1.8124 C   0  0  0  0  0  0  0  0  0  0  0  0
    1.7421   -9.2119    3.1541 C   0  0  0  0  0  0  0  0  0  0  0  0
    2.0083  -10.3048    4.0591 C   0  0  0  0  0  0  0  0  0  0  0  0
    1.2724  -11.3673    4.2581 C   0  0  0  0  0  0  0  0  0  0  0  0
    1.7174  -12.5691    3.8333 C   0  0  0  0  0  0  0  0  0  0  0  0
    0.6533  -13.4947    3.2632 C   0  0  0  0  0  0  0  0  0  0  0  0
   -0.3254  -12.8555    2.6146 O   0  0  0  0  0  0  0  0  0  0  0  0
    0.9016  -14.7533    3.1272 O   0  0  0  0  0  0  0  0  0  0  0  0
    1.6414   -8.6090   -0.4032 C   0  0  0  0  0  0  0  0  0  0  0  0
    0.6211   -8.7650   -1.0964 O   0  0  0  0  0  0  0  0  0  0  0  0
    2.8192   -8.5965   -1.0172 O   0  0  0  0  0  0  0  0  0  0  0  0
    2.4317  -10.6585    1.3565 C   0  0  0  0  0  0  0  0  0  0  0  0
    0.5404   -5.8400    3.3503 C   0  0  0  0  0  0  0  0  0  0  0  0
    1.5697   -4.7828    3.4884 C   0  0  0  0  0  0  0  0  0  0  0  0
    0.9458   -3.4985    3.8136 Cl  0  0  0  0  0  0  0  0  0  0  0  0
  6  7  1  0
  7  8  1  0
  8  9  1  0
  9 10  1  0
 10 11  1  0
 10 12  2  0
  4 13  1  0
 13 14  2  0
 13 15  1  0
  5 16  1  0
  2 17  1  0
 17 18  1  0
 18 19  1  0
  1  2  2  0
  2  3  1  0
  3  4  2  0
  4  5  1  0
  5  6  2  0
  1  6  1  0
M  END

$$$$
No_4051-/export/home/yangzhenyu/potential_scad_32_flow//YTHDC2/2024-12-06-03-22-00/
     RDKit          3D

 21 22  0  0  0  0  0  0  0  0999 V2000
    1.1787   -8.0297    3.5154 C   0  0  0  0  0  0  0  0  0  0  0  0
    1.1048   -9.2215    3.2892 C   0  0  0  0  0  0  0  0  0  0  0  0
    1.3627  -10.1721    4.3044 C   0  0  0  0  0  0  0  0  0  0  0  0
    1.0682  -11.5187    4.0618 C   0  0  0  0  0  0  0  0  0  0  0  0
    0.6332  -11.9655    2.9682 C   0  0  0  0  0  0  0  0  0  0  0  0
    0.4776  -11.1308    1.9203 C   0  0  0  0  0  0  0  0  0  0  0  0
    0.7470   -9.8274    2.0368 C   0  0  0  0  0  0  0  0  0  0  0  0
    0.5535   -7.1314    2.6861 C   0  0  0  0  0  0  0  0  0  0  0  0
    0.2950   -7.6000    1.3275 C   0  0  0  0  0  0  0  0  0  0  0  0
    0.2692   -8.8631    1.0973 C   0  0  0  0  0  0  0  0  0  0  0  0
   -0.0513   -6.7125    0.4242 C   0  0  0  0  0  0  0  0  0  0  0  0
   -0.6670   -7.1291   -0.6460 O   0  0  0  0  0  0  0  0  0  0  0  0
    0.0420   -5.3301    0.5252 Br  0  0  0  0  0  0  0  0  0  0  0  0
    0.4967  -13.3926    2.7293 C   0  0  0  0  0  0  0  0  0  0  0  0
    1.4466  -14.3065    3.1345 C   0  0  0  0  0  0  0  0  0  0  0  0
    1.5389  -15.5515    2.5492 C   0  0  0  0  0  0  0  0  0  0  0  0
    2.5798  -15.7831    1.8471 C   0  0  0  0  0  0  0  0  0  0  0  0
    2.8949  -17.1602    1.7188 N   0  0  0  0  0  0  0  0  0  0  0  0
    0.4915  -16.3371    2.9108 N   0  0  0  0  0  0  0  0  0  0  0  0
    2.3130  -17.8551    2.1645 H   0  0  0  0  0  0  0  0  0  0  0  0
    0.4353  -17.2888    2.5774 H   0  0  0  0  0  0  0  0  0  0  0  0
  9 11  1  0
 11 12  2  0
 11 13  1  0
  5 14  1  0
 14 15  1  0
 15 16  1  0
 16 17  1  0
 17 18  2  0
 16 19  2  0
  2  3  1  0
  3  4  2  0
  4  5  1  0
  5  6  2  0
  6  7  1  0
  1  2  2  0
  2  7  1  0
  7 10  2  0
  9 10  1  0
  8  9  2  0
  1  8  1  0
 18 20  1  0
 19 21  1  0
M  END

$$$$
No_4052-/export/home/yangzhenyu/potential_scad_32_flow//YTHDC2/2024-12-06-03-22-00/
     RDKit          3D

 18 19  0  0  1  0  0  0  0  0999 V2000
    1.1787   -8.0297    3.5154 C   0  0  0  0  0  0  0  0  0  0  0  0
    1.1048   -9.2215    3.2892 C   0  0  0  0  0  0  0  0  0  0  0  0
    1.2339   -9.7611    2.0189 C   0  0  1  0  0  0  0  0  0  0  0  0
    1.1954  -11.2312    1.8661 C   0  0  0  0  0  0  0  0  0  0  0  0
    1.5546  -12.1691    2.7931 C   0  0  0  0  0  0  0  0  0  0  0  0
    0.5849   -7.0929    2.5729 C   0  0  2  0  0  0  0  0  0  0  0  0
    0.5567   -7.6699    1.1955 C   0  0  0  0  0  0  0  0  0  0  0  0
    0.7903   -8.9699    0.9209 C   0  0  0  0  0  0  0  0  0  0  0  0
    1.5521  -13.4960    2.3485 C   0  0  0  0  0  0  0  0  0  0  0  0
    1.2403  -13.8919    1.1557 C   0  0  0  0  0  0  0  0  0  0  0  0
    1.0311  -12.9707    0.1488 C   0  0  0  0  0  0  0  0  0  0  0  0
    0.9678  -11.6394    0.4949 C   0  0  0  0  0  0  0  0  0  0  0  0
    0.6235   -5.6335    2.6368 C   0  0  0  0  0  0  0  0  0  0  0  0
    0.3286   -6.8520    0.1792 O   0  0  0  0  0  0  0  0  0  0  0  0
   -0.5946   -5.0169    2.5569 C   0  0  0  0  0  0  0  0  0  0  0  0
   -0.6237   -3.5602    2.4675 C   0  0  0  0  0  0  0  0  0  0  0  0
    0.5926   -2.9077    2.6811 C   0  0  0  0  0  0  0  0  0  0  0  0
    1.8054   -3.5740    2.9254 C   0  0  0  0  0  0  0  0  0  0  0  0
  1  2  1  0
  3  4  1  1
  6  7  1  0
  3  8  1  0
  7  8  1  0
  6 13  1  6
  7 14  2  0
 13 15  1  0
 15 16  2  3
 16 17  1  0
 17 18  2  0
  1  6  1  0
  2  3  1  0
  4  5  2  0
  5  9  1  0
  9 10  2  0
 10 11  1  0
 11 12  2  0
  4 12  1  0
M  END

$$$$
No_4053-/export/home/yangzhenyu/potential_scad_32_flow//YTHDC2/2024-12-06-03-22-00/
     RDKit          3D

 18 19  0  0  0  0  0  0  0  0999 V2000
    1.1787   -8.0297    3.5154 C   0  0  0  0  0  0  0  0  0  0  0  0
    1.1048   -9.2215    3.2892 C   0  0  0  0  0  0  0  0  0  0  0  0
    1.3627  -10.1721    4.3044 C   0  0  0  0  0  0  0  0  0  0  0  0
    1.0682  -11.5187    4.0618 C   0  0  0  0  0  0  0  0  0  0  0  0
    0.6332  -11.9655    2.9682 C   0  0  0  0  0  0  0  0  0  0  0  0
    0.4776  -11.1308    1.9203 C   0  0  0  0  0  0  0  0  0  0  0  0
    0.7470   -9.8274    2.0368 C   0  0  0  0  0  0  0  0  0  0  0  0
    0.5536   -7.1314    2.6860 C   0  0  0  0  0  0  0  0  0  0  0  0
    0.2951   -7.6000    1.3275 C   0  0  0  0  0  0  0  0  0  0  0  0
    0.2693   -8.8631    1.0973 C   0  0  0  0  0  0  0  0  0  0  0  0
   -0.0069   -6.7081    0.3888 C   0  0  0  0  0  0  0  0  0  0  0  0
   -1.3264   -6.4522    0.2332 C   0  0  0  0  0  0  0  0  0  0  0  0
   -2.1606   -6.9089    0.8682 C   0  0  0  0  0  0  0  0  0  0  0  0
    0.4716  -13.6055    2.7156 O   0  0  0  0  0  0  0  0  0  0  0  0
    0.8910  -14.0871    1.6685 C   0  0  0  0  0  0  0  0  0  0  0  0
   -1.5521   -5.4924   -0.9663 C   0  0  0  0  0  0  0  0  0  0  0  0
   -2.8633   -5.1859   -1.3267 C   0  0  0  0  0  0  0  0  0  0  0  0
   -3.8726   -5.7725   -0.5318 C   0  0  0  0  0  0  0  0  0  0  0  0
  9 11  1  0
 11 12  1  0
 12 13  2  0
  5 14  1  0
 14 15  1  0
 12 16  1  0
 16 17  2  3
 17 18  1  0
  2  3  1  0
  3  4  2  0
  4  5  1  0
  5  6  2  0
  6  7  1  0
  1  2  2  0
  2  7  1  0
  7 10  2  0
  9 10  1  0
  8  9  2  0
  1  8  1  0
M  END

$$$$
No_4054-/export/home/yangzhenyu/potential_scad_32_flow//YTHDC2/2024-12-06-03-22-00/
     RDKit          3D

 19 20  0  0  0  0  0  0  0  0999 V2000
    1.1787   -8.0297    3.5154 C   0  0  0  0  0  0  0  0  0  0  0  0
    1.1048   -9.2215    3.2892 C   0  0  0  0  0  0  0  0  0  0  0  0
    1.3627  -10.1721    4.3044 C   0  0  0  0  0  0  0  0  0  0  0  0
    1.0682  -11.5187    4.0618 C   0  0  0  0  0  0  0  0  0  0  0  0
    0.6332  -11.9655    2.9682 C   0  0  0  0  0  0  0  0  0  0  0  0
    0.4776  -11.1308    1.9203 C   0  0  0  0  0  0  0  0  0  0  0  0
    0.7470   -9.8274    2.0368 C   0  0  0  0  0  0  0  0  0  0  0  0
    0.5535   -7.1314    2.6861 O   0  0  0  0  0  0  0  0  0  0  0  0
    0.3433  -13.3587    2.7316 C   0  0  0  0  0  0  0  0  0  0  0  0
   -0.7984  -13.8839    2.3403 Cl  0  0  0  0  0  0  0  0  0  0  0  0
    1.5771  -14.2562    2.9346 C   0  0  0  0  0  0  0  0  0  0  0  0
    1.7250  -15.4335    2.0460 C   0  0  0  0  0  0  0  0  0  0  0  0
    2.1513  -15.1477    0.9808 C   0  0  0  0  0  0  0  0  0  0  0  0
    1.5595  -16.7084    2.5060 C   0  0  0  0  0  0  0  0  0  0  0  0
    1.7387  -17.6344    1.4258 C   0  0  0  0  0  0  0  0  0  0  0  0
    2.3289  -15.9489    0.0565 C   0  0  0  0  0  0  0  0  0  0  0  0
    2.0961  -17.3045    0.2936 C   0  0  0  0  0  0  0  0  0  0  0  0
    0.6875   -9.0286    0.9338 C   0  0  0  0  0  0  0  0  0  0  0  0
   -0.4451   -8.8589    0.2635 O   0  0  0  0  0  0  0  0  0  0  0  0
  1  2  1  0
  1  8  2  0
  5  9  1  0
  9 10  1  0
  9 11  1  0
 11 12  1  0
  7 18  1  0
 18 19  1  0
  2  3  2  0
  3  4  1  0
  4  5  2  0
  5  6  1  0
  6  7  2  0
  2  7  1  0
 12 13  2  0
 13 16  1  0
 16 17  2  0
 15 17  1  0
 14 15  2  0
 12 14  1  0
M  END

$$$$
No_4055-/export/home/yangzhenyu/potential_scad_32_flow//YTHDC2/2024-12-06-03-22-00/
     RDKit          3D

 16 17  0  0  0  0  0  0  0  0999 V2000
    1.1787   -8.0297    3.5154 C   0  0  0  0  0  0  0  0  0  0  0  0
    1.0491   -6.8434    2.9820 C   0  0  0  0  0  0  0  0  0  0  0  0
    0.0950   -8.8404    3.2292 C   0  0  0  0  0  0  0  0  0  0  0  0
   -0.9173   -8.4596    2.5152 C   0  0  0  0  0  0  0  0  0  0  0  0
   -1.0331   -7.2162    2.0653 C   0  0  0  0  0  0  0  0  0  0  0  0
   -0.0105   -6.3168    2.3081 C   0  0  0  0  0  0  0  0  0  0  0  0
    0.1465  -10.2446    3.6981 C   0  0  0  0  0  0  0  0  0  0  0  0
    0.1907  -11.3369    2.8651 C   0  0  0  0  0  0  0  0  0  0  0  0
    0.7661  -12.5788    3.2923 C   0  0  0  0  0  0  0  0  0  0  0  0
    0.7707  -13.6301    2.4861 C   0  0  0  0  0  0  0  0  0  0  0  0
    0.3777  -13.6646    1.3267 C   0  0  0  0  0  0  0  0  0  0  0  0
    0.0152  -12.4888    0.6832 C   0  0  0  0  0  0  0  0  0  0  0  0
   -0.0711  -11.3179    1.4748 C   0  0  0  0  0  0  0  0  0  0  0  0
    1.2798  -14.9667    3.0137 C   0  0  0  0  0  0  0  0  0  0  0  0
    0.4864  -15.8640    3.5176 C   0  0  0  0  0  0  0  0  0  0  0  0
    1.0802  -17.0797    4.0082 O   0  0  0  0  0  0  0  0  0  0  0  0
  3  7  1  0
  7  8  1  0
 10 14  1  0
 14 15  1  0
 15 16  2  0
  1  2  2  0
  2  6  1  0
  5  6  2  0
  4  5  1  0
  3  4  2  0
  1  3  1  0
  8  9  2  0
  9 10  1  0
 10 11  2  0
 11 12  1  0
 12 13  2  0
  8 13  1  0
M  END

$$$$
No_4056-/export/home/yangzhenyu/potential_scad_32_flow//YTHDC2/2024-12-06-03-22-00/
     RDKit          3D

 19 20  0  0  0  0  0  0  0  0999 V2000
    1.1787   -8.0297    3.5154 C   0  0  0  0  0  0  0  0  0  0  0  0
    1.1048   -9.2215    3.2892 C   0  0  0  0  0  0  0  0  0  0  0  0
    1.2339   -9.7611    2.0189 C   0  0  0  0  0  0  0  0  0  0  0  0
    1.3583   -9.0036    0.9764 C   0  0  0  0  0  0  0  0  0  0  0  0
    1.5996   -7.6362    1.1311 C   0  0  0  0  0  0  0  0  0  0  0  0
    1.4830   -7.0928    2.3626 C   0  0  0  0  0  0  0  0  0  0  0  0
    1.1008  -11.2372    1.8542 C   0  0  0  0  0  0  0  0  0  0  0  0
    0.5178  -11.9759    2.3445 C   0  0  0  0  0  0  0  0  0  0  0  0
    0.4575  -13.3705    2.1281 C   0  0  0  0  0  0  0  0  0  0  0  0
    1.1632  -14.1013    2.0451 C   0  0  0  0  0  0  0  0  0  0  0  0
    2.4646  -13.5566    1.4445 C   0  0  0  0  0  0  0  0  0  0  0  0
    1.2467  -15.5603    2.2927 C   0  0  0  0  0  0  0  0  0  0  0  0
    0.3854  -15.9779    3.1650 C   0  0  0  0  0  0  0  0  0  0  0  0
    0.8497  -17.0338    4.0763 C   0  0  0  0  0  0  0  0  0  0  0  0
    2.1077  -17.6971    3.7104 C   0  0  0  0  0  0  0  0  0  0  0  0
    2.9431  -17.4091    2.7528 C   0  0  0  0  0  0  0  0  0  0  0  0
    2.5546  -16.2098    2.0544 C   0  0  0  0  0  0  0  0  0  0  0  0
    1.5692   -5.4747    2.6768 Br  0  0  0  0  0  0  0  0  0  0  0  0
    1.5122   -9.4695   -0.3652 C   0  0  0  0  0  0  0  0  0  0  0  0
  3  7  1  0
  7  8  2  3
  8  9  1  0
  9 10  2  3
 10 11  1  0
 10 12  1  0
  6 18  1  0
  4 19  1  0
 12 13  2  0
 13 14  1  0
 14 15  2  0
 15 16  1  0
 16 17  2  0
 12 17  1  0
  1  2  2  0
  2  3  1  0
  3  4  2  0
  4  5  1  0
  5  6  2  0
  1  6  1  0
M  END

$$$$
No_4057-/export/home/yangzhenyu/potential_scad_32_flow//YTHDC2/2024-12-06-03-22-00/
     RDKit          3D

 20 21  0  0  0  0  0  0  0  0999 V2000
    1.1787   -8.0297    3.5154 C   0  0  0  0  0  0  0  0  0  0  0  0
    1.1048   -9.2215    3.2892 C   0  0  0  0  0  0  0  0  0  0  0  0
    1.3627  -10.1721    4.3044 C   0  0  0  0  0  0  0  0  0  0  0  0
    1.0682  -11.5187    4.0618 C   0  0  0  0  0  0  0  0  0  0  0  0
    0.6332  -11.9655    2.9682 C   0  0  0  0  0  0  0  0  0  0  0  0
    0.4776  -11.1308    1.9203 C   0  0  0  0  0  0  0  0  0  0  0  0
    0.7470   -9.8274    2.0368 C   0  0  0  0  0  0  0  0  0  0  0  0
    1.8805   -7.1616    3.5539 N   0  0  0  0  0  0  0  0  0  0  0  0
    0.3723  -13.5674    2.7947 C   0  0  0  0  0  0  0  0  0  0  0  0
   -0.6751  -13.9402    2.4607 C   0  0  0  0  0  0  0  0  0  0  0  0
    1.5996  -14.4008    2.8590 C   0  0  0  0  0  0  0  0  0  0  0  0
    2.8364  -14.0447    2.8595 C   0  0  0  0  0  0  0  0  0  0  0  0
    1.0977  -15.7120    2.5940 C   0  0  0  0  0  0  0  0  0  0  0  0
   -0.9222  -15.0884    2.1687 C   0  0  0  0  0  0  0  0  0  0  0  0
   -2.2021  -15.5778    1.8433 C   0  0  0  0  0  0  0  0  0  0  0  0
    2.2996  -16.5687    2.8118 C   0  0  0  0  0  0  0  0  0  0  0  0
    0.0986  -15.9948    1.9547 C   0  0  0  0  0  0  0  0  0  0  0  0
   -0.2672   -7.5048    3.1874 N   0  0  0  0  0  0  0  0  0  0  0  0
    0.8677   -8.9566    0.9315 C   0  0  0  0  0  0  0  0  0  0  0  0
    2.8756   -7.3194    3.6241 H   0  0  0  0  0  0  0  0  0  0  0  0
  1  2  1  0
  1  8  2  0
  5  9  1  0
 11 12  1  0
 14 15  1  0
 13 16  1  0
  1 18  1  0
  7 19  1  0
  2  3  2  0
  3  4  1  0
  4  5  2  0
  5  6  1  0
  6  7  2  0
  2  7  1  0
  9 10  2  0
 10 14  1  0
 14 17  2  0
 13 17  1  0
 11 13  2  0
  9 11  1  0
  8 20  1  0
M  END

$$$$
No_4058-/export/home/yangzhenyu/potential_scad_32_flow//YTHDC2/2024-12-06-03-22-00/
     RDKit          3D

 18 18  0  0  1  0  0  0  0  0999 V2000
    1.1787   -8.0297    3.5154 C   0  0  0  0  0  0  0  0  0  0  0  0
    1.0491   -6.8434    2.9820 C   0  0  0  0  0  0  0  0  0  0  0  0
    0.9905   -9.0774    2.6527 C   0  0  0  0  0  0  0  0  0  0  0  0
    0.7897   -8.9519    1.3691 C   0  0  0  0  0  0  0  0  0  0  0  0
    0.7018   -7.7198    0.7892 C   0  0  0  0  0  0  0  0  0  0  0  0
    0.8918   -6.5957    1.6117 C   0  0  0  0  0  0  0  0  0  0  0  0
    1.0998  -10.4710    3.2437 C   0  0  1  0  0  0  0  0  0  0  0  0
    2.1917  -10.8879    3.7399 C   0  0  0  0  0  0  0  0  0  0  0  0
    0.8983   -5.2566    1.2088 O   0  0  0  0  0  0  0  0  0  0  0  0
   -0.0200  -11.2248    3.3627 C   0  0  0  0  0  0  0  0  0  0  0  0
   -1.1466  -10.5565    3.9418 O   0  0  0  0  0  0  0  0  0  0  0  0
   -0.1380  -12.5298    3.4076 N   0  0  0  0  0  0  0  0  0  0  0  0
    2.4580  -10.4623    5.1635 O   0  0  0  0  0  0  0  0  0  0  0  0
   -0.1971  -13.1930    2.3790 C   0  0  0  0  0  0  0  0  0  0  0  0
    0.1989  -14.1507    2.3646 C   0  0  0  0  0  0  0  0  0  0  0  0
    0.3301  -15.1736    1.2315 C   0  0  2  0  0  0  0  0  0  0  0  0
   -0.3780  -14.6701    0.1283 Cl  0  0  0  0  0  0  0  0  0  0  0  0
    0.1149  -16.5414    1.5320 C   0  0  0  0  0  0  0  0  0  0  0  0
  1  2  1  0
  3  4  1  0
  2  6  1  0
  5  6  1  0
  3  7  1  0
  7  8  1  1
  6  9  2  0
  7 10  1  0
 10 11  2  0
 10 12  1  0
  8 13  1  0
 12 14  1  0
 14 15  2  3
 15 16  1  0
 16 17  1  0
 16 18  1  1
  1  3  1  0
  4  5  1  0
M  END

$$$$
No_4059-/export/home/yangzhenyu/potential_scad_32_flow//YTHDC2/2024-12-06-03-22-00/
     RDKit          3D

 20 22  0  0  1  0  0  0  0  0999 V2000
    1.1787   -8.0297    3.5154 N   0  0  0  0  0  0  0  0  0  0  0  0
    1.0818   -9.0751    3.2053 C   0  0  0  0  0  0  0  0  0  0  0  0
    0.7576   -9.3725    1.9159 C   0  0  0  0  0  0  0  0  0  0  0  0
    1.2780   -8.6457    1.1231 C   0  0  1  0  0  0  0  0  0  0  0  0
    1.3858   -9.0589   -0.3613 C   0  0  0  0  0  0  0  0  0  0  0  0
    1.4059   -7.2326    2.1581 C   0  0  0  0  0  0  0  0  0  0  0  0
    2.5487   -8.8944   -0.8365 O   0  0  0  0  0  0  0  0  0  0  0  0
    0.4039   -9.1393   -0.8462 O   0  0  0  0  0  0  0  0  0  0  0  0
    0.5747   -9.9245    4.4159 C   0  0  0  0  0  0  0  0  0  0  0  0
    0.2952  -11.3042    3.7784 C   0  0  0  0  0  0  0  0  0  0  0  0
    0.2804  -11.6747    2.6648 C   0  0  0  0  0  0  0  0  0  0  0  0
    0.6624  -10.8379    1.6573 C   0  0  0  0  0  0  0  0  0  0  0  0
    0.0136  -13.1074    2.3646 C   0  0  0  0  0  0  0  0  0  0  0  0
    0.6738  -14.0456    2.4124 C   0  0  0  0  0  0  0  0  0  0  0  0
    0.2696  -15.3336    2.0834 C   0  0  0  0  0  0  0  0  0  0  0  0
   -0.8651  -15.5393    1.5341 C   0  0  0  0  0  0  0  0  0  0  0  0
   -1.7148  -14.5639    1.4431 C   0  0  0  0  0  0  0  0  0  0  0  0
   -1.3146  -13.2270    1.7812 C   0  0  0  0  0  0  0  0  0  0  0  0
    2.0510  -13.9683    3.0262 F   0  0  0  0  0  0  0  0  0  0  0  0
   -2.9566  -14.6825    0.7307 O   0  0  0  0  0  0  0  0  0  0  0  0
  1  2  1  0
  3  4  1  0
  4  5  1  6
  1  6  1  0
  4  6  1  0
  5  7  1  0
  5  8  2  0
 11 13  1  0
 14 19  1  0
 17 20  1  0
 13 14  2  0
 14 15  1  0
 15 16  2  0
 16 17  1  0
 17 18  2  0
 13 18  1  0
  2  3  2  0
  3 12  1  0
 11 12  2  0
 10 11  1  0
  9 10  2  0
  2  9  1  0
M  END

$$$$
No_4060-/export/home/yangzhenyu/potential_scad_32_flow//YTHDC2/2024-12-06-03-22-00/
     RDKit          3D

 14 15  0  0  1  0  0  0  0  0999 V2000
    1.1787   -8.0297    3.5154 C   0  0  0  0  0  0  0  0  0  0  0  0
    1.0491   -6.8434    2.9820 C   0  0  0  0  0  0  0  0  0  0  0  0
    0.9905   -9.0774    2.6527 C   0  0  0  0  0  0  0  0  0  0  0  0
    0.7897   -8.9519    1.3691 C   0  0  0  0  0  0  0  0  0  0  0  0
    0.7018   -7.7198    0.7892 C   0  0  0  0  0  0  0  0  0  0  0  0
    0.8918   -6.5957    1.6117 C   0  0  0  0  0  0  0  0  0  0  0  0
    1.0711  -10.4814    3.2282 C   0  0  2  0  0  0  0  0  0  0  0  0
    2.1432  -11.0138    3.5962 N   0  0  0  0  0  0  0  0  0  0  0  0
    0.0242  -11.2588    3.2421 C   0  0  0  0  0  0  0  0  0  0  0  0
    0.3273  -12.6679    3.3528 N   0  0  0  0  0  0  0  0  0  0  0  0
    1.7232  -12.4355    3.8177 C   0  0  0  0  0  0  0  0  0  0  0  0
    0.8306   -5.2906    1.0971 N   0  0  0  0  0  0  0  0  0  0  0  0
   -1.3544  -11.0793    2.8916 N   0  0  0  0  0  0  0  0  0  0  0  0
    1.2474   -4.2567    1.7608 O   0  0  0  0  0  0  0  0  0  0  0  0
  7  3  1  6
  7  8  1  0
  7  9  1  0
  9 10  2  0
  8 11  1  0
 10 11  1  0
  6 12  1  0
  9 13  1  0
 12 14  2  0
  1  2  2  0
  2  6  1  0
  5  6  2  0
  4  5  1  0
  3  4  2  0
  1  3  1  0
M  END

$$$$
No_4061-/export/home/yangzhenyu/potential_scad_32_flow//YTHDC2/2024-12-06-03-22-00/
     RDKit          3D

 19 19  0  0  0  0  0  0  0  0999 V2000
    1.1787   -8.0297    3.5154 C   0  0  0  0  0  0  0  0  0  0  0  0
    1.0491   -6.8434    2.9820 C   0  0  0  0  0  0  0  0  0  0  0  0
    0.9905   -9.0774    2.6527 C   0  0  0  0  0  0  0  0  0  0  0  0
    0.7897   -8.9519    1.3691 C   0  0  0  0  0  0  0  0  0  0  0  0
    0.7018   -7.7198    0.7892 C   0  0  0  0  0  0  0  0  0  0  0  0
    0.8918   -6.5957    1.6117 C   0  0  0  0  0  0  0  0  0  0  0  0
    1.0998  -10.4710    3.2437 C   0  0  0  0  0  0  0  0  0  0  0  0
    1.3102  -11.5554    2.5214 C   0  0  0  0  0  0  0  0  0  0  0  0
    1.4257  -12.8124    3.1919 C   0  0  0  0  0  0  0  0  0  0  0  0
    0.9222  -13.9339    2.5039 C   0  0  0  0  0  0  0  0  0  0  0  0
   -0.1904  -14.0081    1.9344 C   0  0  0  0  0  0  0  0  0  0  0  0
    0.8519   -5.2583    1.2471 C   0  0  0  0  0  0  0  0  0  0  0  0
   -1.1980  -13.6890    2.5175 N   0  0  0  0  0  0  0  0  0  0  0  0
    1.8883  -15.0566    2.5015 C   0  0  0  0  0  0  0  0  0  0  0  0
    3.0587  -15.0136    2.0514 N   0  0  0  0  0  0  0  0  0  0  0  0
    1.4767  -16.1536    3.2278 O   0  0  0  0  0  0  0  0  0  0  0  0
    0.1905   -4.2937    2.0201 O   0  0  0  0  0  0  0  0  0  0  0  0
    0.9199   -3.2075    2.4359 C   0  0  0  0  0  0  0  0  0  0  0  0
   -0.2934  -14.2490    0.6415 O   0  0  0  0  0  0  0  0  0  0  0  0
  3  7  1  0
  7  8  2  3
  8  9  1  0
  9 10  1  0
 10 11  1  0
  6 12  1  0
 11 13  1  0
 10 14  1  0
 14 15  1  0
 14 16  2  0
 12 17  1  0
 17 18  1  0
 11 19  2  0
  1  2  2  0
  2  6  1  0
  5  6  2  0
  4  5  1  0
  3  4  2  0
  1  3  1  0
M  END

$$$$
No_4062-/export/home/yangzhenyu/potential_scad_32_flow//YTHDC2/2024-12-06-03-22-00/
     RDKit          3D

 17 17  0  0  0  0  0  0  0  0999 V2000
    1.1787   -8.0297    3.5154 O   0  0  0  0  0  0  0  0  0  0  0  0
    0.9969   -8.9689    3.0048 C   0  0  0  0  0  0  0  0  0  0  0  0
    1.3055  -10.1056    3.6616 C   0  0  0  0  0  0  0  0  0  0  0  0
    1.5709  -11.1115    3.2016 C   0  0  0  0  0  0  0  0  0  0  0  0
    1.6332  -11.2629    1.7349 C   0  0  0  0  0  0  0  0  0  0  0  0
    1.4617  -10.1742    0.9691 C   0  0  0  0  0  0  0  0  0  0  0  0
    1.1252   -9.0006    1.6051 C   0  0  0  0  0  0  0  0  0  0  0  0
    0.8275   -7.7749    1.0285 C   0  0  0  0  0  0  0  0  0  0  0  0
    1.3414   -6.7053    1.3717 O   0  0  0  0  0  0  0  0  0  0  0  0
   -0.3444   -7.6222    0.3611 O   0  0  0  0  0  0  0  0  0  0  0  0
    1.9077  -12.4216    3.8043 C   0  0  0  0  0  0  0  0  0  0  0  0
    1.5029  -13.6671    3.0327 O   0  0  0  0  0  0  0  0  0  0  0  0
    2.1498  -14.6495    2.6483 C   0  0  0  0  0  0  0  0  0  0  0  0
    1.6491  -15.8424    2.4016 C   0  0  0  0  0  0  0  0  0  0  0  0
    2.4277  -16.9003    2.0431 O   0  0  0  0  0  0  0  0  0  0  0  0
    0.5377  -16.1921    2.9928 O   0  0  0  0  0  0  0  0  0  0  0  0
    2.0618  -18.1389    2.1170 C   0  0  0  0  0  0  0  0  0  0  0  0
  1  2  1  0
  7  8  1  0
  8  9  1  0
  8 10  2  0
  4 11  1  0
 11 12  1  0
 12 13  1  0
 13 14  1  0
 14 15  1  0
 14 16  2  0
 15 17  1  0
  2  3  2  0
  3  4  1  0
  4  5  2  0
  5  6  1  0
  6  7  2  0
  2  7  1  0
M  END

$$$$
No_4063-/export/home/yangzhenyu/potential_scad_32_flow//YTHDC2/2024-12-06-03-22-00/
     RDKit          3D

 18 19  0  0  0  0  0  0  0  0999 V2000
    1.1787   -8.0297    3.5154 C   0  0  0  0  0  0  0  0  0  0  0  0
    1.1048   -9.2215    3.2892 C   0  0  0  0  0  0  0  0  0  0  0  0
    1.2339   -9.7611    2.0189 C   0  0  0  0  0  0  0  0  0  0  0  0
    1.3583   -9.0036    0.9764 C   0  0  0  0  0  0  0  0  0  0  0  0
    1.5996   -7.6362    1.1311 C   0  0  0  0  0  0  0  0  0  0  0  0
    1.4830   -7.0928    2.3626 C   0  0  0  0  0  0  0  0  0  0  0  0
    1.4898   -5.7274    2.6199 C   0  0  0  0  0  0  0  0  0  0  0  0
    1.1882  -11.3736    1.8424 C   0  0  0  0  0  0  0  0  0  0  0  0
    1.7911  -12.1283    2.5447 C   0  0  0  0  0  0  0  0  0  0  0  0
    1.6235  -13.4929    2.1108 C   0  0  0  0  0  0  0  0  0  0  0  0
    0.9130  -13.8662    1.0879 C   0  0  0  0  0  0  0  0  0  0  0  0
    0.2981  -12.8588    0.2798 C   0  0  0  0  0  0  0  0  0  0  0  0
    0.4407  -11.5560    0.6364 C   0  0  0  0  0  0  0  0  0  0  0  0
    1.2457   -4.8685    1.6168 I   0  0  0  0  0  0  0  0  0  0  0  0
    2.2707  -14.5046    2.9503 C   0  0  0  0  0  0  0  0  0  0  0  0
    1.4746  -15.6793    3.1864 N   0  0  0  0  0  0  0  0  0  0  0  0
    1.9203  -16.9186    2.8875 C   0  0  0  0  0  0  0  0  0  0  0  0
    1.4298  -18.0798    3.2388 C   0  0  0  0  0  0  0  0  0  0  0  0
  6  7  1  0
  3  8  1  0
  7 14  1  0
 10 15  1  0
 15 16  1  0
 16 17  1  0
 17 18  1  0
  1  2  2  0
  2  3  1  0
  3  4  2  0
  4  5  1  0
  5  6  2  0
  1  6  1  0
  8  9  2  0
  9 10  1  0
 10 11  2  0
 11 12  1  0
 12 13  2  0
  8 13  1  0
M  END

$$$$
No_4064-/export/home/yangzhenyu/potential_scad_32_flow//YTHDC2/2024-12-06-03-22-00/
     RDKit          3D

 16 16  0  0  0  0  0  0  0  0999 V2000
    1.1787   -8.0297    3.5154 C   0  0  0  0  0  0  0  0  0  0  0  0
    1.0491   -6.8434    2.9820 C   0  0  0  0  0  0  0  0  0  0  0  0
    0.9905   -9.0774    2.6527 C   0  0  0  0  0  0  0  0  0  0  0  0
    0.7897   -8.9519    1.3691 C   0  0  0  0  0  0  0  0  0  0  0  0
    0.6550  -10.0985    0.4848 C   0  0  0  0  0  0  0  0  0  0  0  0
    0.7849   -6.5836    1.6043 C   0  0  0  0  0  0  0  0  0  0  0  0
    0.6652   -7.6671    0.8008 C   0  0  0  0  0  0  0  0  0  0  0  0
    1.2441  -11.1828    0.5777 O   0  0  0  0  0  0  0  0  0  0  0  0
   -0.2030  -10.0131   -0.5296 O   0  0  0  0  0  0  0  0  0  0  0  0
    1.2540  -10.6178    3.2990 C   0  0  0  0  0  0  0  0  0  0  0  0
    2.5850  -10.9091    3.6333 C   0  0  0  0  0  0  0  0  0  0  0  0
    0.2131  -11.3222    3.5981 C   0  0  0  0  0  0  0  0  0  0  0  0
    2.5626  -12.0364    4.4740 O   0  0  0  0  0  0  0  0  0  0  0  0
    0.7159   -5.2732    1.0926 O   0  0  0  0  0  0  0  0  0  0  0  0
    1.2405   -4.2060    1.7880 C   0  0  0  0  0  0  0  0  0  0  0  0
   -0.8893  -10.8080    4.1852 O   0  0  0  0  0  0  0  0  0  0  0  0
  4  5  1  0
  5  8  1  0
  5  9  2  0
  3 10  1  0
 10 11  1  0
 10 12  1  0
 11 13  1  0
  6 14  1  0
 14 15  1  0
 12 16  1  0
  1  2  2  0
  2  6  1  0
  6  7  2  0
  4  7  1  0
  3  4  2  0
  1  3  1  0
M  END

$$$$
No_4065-/export/home/yangzhenyu/potential_scad_32_flow//YTHDC2/2024-12-06-03-22-00/
     RDKit          3D

 17 17  0  0  1  0  0  0  0  0999 V2000
    1.1787   -8.0297    3.5154 C   0  0  0  0  0  0  0  0  0  0  0  0
    1.0491   -6.8434    2.9820 O   0  0  0  0  0  0  0  0  0  0  0  0
   -0.0075   -8.7761    3.2545 C   0  0  0  0  0  0  0  0  0  0  0  0
   -0.1756   -9.2452    2.3665 C   0  0  1  0  0  0  0  0  0  0  0  0
   -0.9380   -8.6551    1.4862 C   0  0  2  0  0  0  0  0  0  0  0  0
   -0.7283   -8.8050    0.1179 C   0  0  0  0  0  0  0  0  0  0  0  0
   -1.5143   -8.2094   -0.8127 C   0  0  0  0  0  0  0  0  0  0  0  0
   -2.3683   -7.2084   -0.4422 C   0  0  0  0  0  0  0  0  0  0  0  0
   -2.5020   -6.8816    0.8808 C   0  0  0  0  0  0  0  0  0  0  0  0
   -1.7820   -7.5491    1.8251 C   0  0  0  0  0  0  0  0  0  0  0  0
    0.5451  -10.4310    2.0131 C   0  0  0  0  0  0  0  0  0  0  0  0
    1.7148  -10.4065    1.2053 C   0  0  0  0  0  0  0  0  0  0  0  0
    2.2608  -11.5293    0.7907 O   0  0  0  0  0  0  0  0  0  0  0  0
    2.5065   -9.3797    1.1283 O   0  0  0  0  0  0  0  0  0  0  0  0
   -3.1214   -6.5382   -1.3796 O   0  0  0  0  0  0  0  0  0  0  0  0
   -2.0165   -7.2450    3.1815 O   0  0  0  0  0  0  0  0  0  0  0  0
    1.9481   -5.6672    2.7503 C   0  0  0  0  0  0  0  0  0  0  0  0
  1  2  1  0
  1  3  1  0
  4  3  1  6
  4  5  1  0
  5  6  1  6
  7  8  1  0
  5 10  1  0
  9 10  1  0
  4 11  1  0
 11 12  1  0
 12 13  2  0
 12 14  1  0
  8 15  1  0
 10 16  2  0
  2 17  1  0
  6  7  1  0
  8  9  1  0
M  END

$$$$
No_4066-/export/home/yangzhenyu/potential_scad_32_flow//YTHDC2/2024-12-06-03-22-00/
     RDKit          3D

 19 21  0  0  0  0  0  0  0  0999 V2000
    1.1787   -8.0297    3.5154 C   0  0  0  0  0  0  0  0  0  0  0  0
    1.1048   -9.2215    3.2892 C   0  0  0  0  0  0  0  0  0  0  0  0
    1.3627  -10.1721    4.3044 C   0  0  0  0  0  0  0  0  0  0  0  0
    1.0682  -11.5187    4.0618 C   0  0  0  0  0  0  0  0  0  0  0  0
    0.6332  -11.9655    2.9682 C   0  0  0  0  0  0  0  0  0  0  0  0
    0.4776  -11.1308    1.9203 C   0  0  0  0  0  0  0  0  0  0  0  0
    0.7470   -9.8274    2.0368 C   0  0  0  0  0  0  0  0  0  0  0  0
    0.5535   -7.1314    2.6861 C   0  0  0  0  0  0  0  0  0  0  0  0
    0.2950   -7.6000    1.3275 C   0  0  0  0  0  0  0  0  0  0  0  0
    0.2693   -8.8631    1.0973 C   0  0  0  0  0  0  0  0  0  0  0  0
    0.4787  -13.3960    2.7088 C   0  0  0  0  0  0  0  0  0  0  0  0
   -0.7335  -13.8737    2.3241 N   0  0  0  0  0  0  0  0  0  0  0  0
    1.2499  -14.3505    3.2870 C   0  0  0  0  0  0  0  0  0  0  0  0
    1.0858  -15.7169    2.9546 C   0  0  0  0  0  0  0  0  0  0  0  0
    0.0255  -16.1237    2.4114 C   0  0  0  0  0  0  0  0  0  0  0  0
   -0.8844  -15.1374    2.0267 C   0  0  0  0  0  0  0  0  0  0  0  0
   -0.1204   -9.2587   -0.2047 C   0  0  0  0  0  0  0  0  0  0  0  0
   -1.3891   -9.7258   -0.3886 O   0  0  0  0  0  0  0  0  0  0  0  0
    0.6896   -9.0725   -1.2413 O   0  0  0  0  0  0  0  0  0  0  0  0
  5 11  1  0
 10 17  1  0
 17 18  2  0
 17 19  1  0
  2  3  1  0
  3  4  2  0
  4  5  1  0
  5  6  2  0
  6  7  1  0
  1  2  2  0
  2  7  1  0
  7 10  2  0
  9 10  1  0
  8  9  2  0
  1  8  1  0
 11 12  2  0
 12 16  1  0
 15 16  2  0
 14 15  1  0
 13 14  2  0
 11 13  1  0
M  END

$$$$
No_4067-/export/home/yangzhenyu/potential_scad_32_flow//YTHDC2/2024-12-06-03-22-00/
     RDKit          3D

 17 19  0  0  0  0  0  0  0  0999 V2000
    1.1787   -8.0297    3.5154 C   0  0  0  0  0  0  0  0  0  0  0  0
    1.1048   -9.2215    3.2892 C   0  0  0  0  0  0  0  0  0  0  0  0
    1.3627  -10.1721    4.3044 C   0  0  0  0  0  0  0  0  0  0  0  0
    1.0682  -11.5187    4.0618 C   0  0  0  0  0  0  0  0  0  0  0  0
    0.6332  -11.9655    2.9682 C   0  0  0  0  0  0  0  0  0  0  0  0
    0.4776  -11.1308    1.9203 C   0  0  0  0  0  0  0  0  0  0  0  0
    0.7470   -9.8274    2.0368 C   0  0  0  0  0  0  0  0  0  0  0  0
    1.0387   -7.0301    2.5175 C   0  0  0  0  0  0  0  0  0  0  0  0
    0.9130   -7.5288    1.2013 C   0  0  0  0  0  0  0  0  0  0  0  0
    0.7893   -8.7979    0.9542 C   0  0  0  0  0  0  0  0  0  0  0  0
    0.5241   -9.2578   -0.2817 O   0  0  0  0  0  0  0  0  0  0  0  0
    0.4481  -13.3709    2.6894 C   0  0  0  0  0  0  0  0  0  0  0  0
    0.8561  -13.9867    1.7475 C   0  0  0  0  0  0  0  0  0  0  0  0
    1.3479  -15.2799    1.8252 C   0  0  0  0  0  0  0  0  0  0  0  0
    0.8060  -16.1057    2.8133 C   0  0  0  0  0  0  0  0  0  0  0  0
    0.3714  -15.4696    4.0005 C   0  0  0  0  0  0  0  0  0  0  0  0
    0.2191  -14.1070    3.9590 C   0  0  0  0  0  0  0  0  0  0  0  0
  1  2  1  0
  8  9  1  0
  7 10  1  0
  9 10  1  0
 10 11  2  0
  5 12  1  0
  1  8  1  0
 12 13  2  0
 13 14  1  0
 14 15  2  0
 15 16  1  0
 16 17  2  0
 12 17  1  0
  2  3  2  0
  3  4  1  0
  4  5  2  0
  5  6  1  0
  6  7  2  0
  2  7  1  0
M  END

$$$$
No_4068-/export/home/yangzhenyu/potential_scad_32_flow//YTHDC2/2024-12-06-03-22-00/
     RDKit          3D

 20 20  0  0  1  0  0  0  0  0999 V2000
    1.1787   -8.0297    3.5154 C   0  0  0  0  0  0  0  0  0  0  0  0
    1.0491   -6.8434    2.9820 C   0  0  0  0  0  0  0  0  0  0  0  0
    1.9985   -8.9840    2.8958 C   0  0  2  0  0  0  0  0  0  0  0  0
    1.7297   -9.2108    1.6335 C   0  0  0  0  0  0  0  0  0  0  0  0
    1.7343   -8.0566    0.8408 C   0  0  0  0  0  0  0  0  0  0  0  0
    1.4996   -6.5076    2.0364 C   0  0  0  0  0  0  0  0  0  0  0  0
    1.7100   -7.2746    0.9665 C   0  0  0  0  0  0  0  0  0  0  0  0
    1.9007   -8.6780   -0.5989 C   0  0  0  0  0  0  0  0  0  0  0  0
    2.5200   -9.8001   -0.8494 O   0  0  0  0  0  0  0  0  0  0  0  0
    1.3397   -8.2024   -1.6517 O   0  0  0  0  0  0  0  0  0  0  0  0
    1.1450   -4.7335    1.7835 O   0  0  0  0  0  0  0  0  0  0  0  0
    2.4831  -10.0877    3.6584 C   0  0  0  0  0  0  0  0  0  0  0  0
    1.9352  -11.0402    4.1939 N   0  0  0  0  0  0  0  0  0  0  0  0
    0.5964  -11.1146    3.7586 C   0  0  2  0  0  0  0  0  0  0  0  0
   -0.4426  -10.4051    4.5314 C   0  0  0  0  0  0  0  0  0  0  0  0
   -0.3479   -9.7635    5.4574 C   0  0  0  0  0  0  0  0  0  0  0  0
   -1.7816  -10.8046    4.0194 F   0  0  0  0  0  0  0  0  0  0  0  0
    0.1689  -12.5611    3.5396 C   0  0  0  0  0  0  0  0  0  0  0  0
    1.0435  -13.5292    3.6420 N   0  0  0  0  0  0  0  0  0  0  0  0
    0.8012  -14.8052    3.0477 C   0  0  0  0  0  0  0  0  0  0  0  0
  1  2  1  0
  3  1  1  1
  3  4  1  0
  4  5  1  0
  2  6  2  0
  5  7  1  0
  6  7  1  0
  5  8  1  0
  8  9  2  0
  8 10  1  0
  6 11  1  0
  3 12  1  0
 12 13  2  3
 13 14  1  0
 14 15  1  0
 15 16  2  0
 15 17  1  0
 14 18  1  1
 18 19  1  0
 19 20  1  0
M  END

$$$$
No_4069-/export/home/yangzhenyu/potential_scad_32_flow//YTHDC2/2024-12-06-03-22-00/
     RDKit          3D

 19 20  0  0  1  0  0  0  0  0999 V2000
    1.1787   -8.0297    3.5154 C   0  0  0  0  0  0  0  0  0  0  0  0
    1.1048   -9.2215    3.2892 C   0  0  0  0  0  0  0  0  0  0  0  0
    1.2339   -9.7611    2.0189 C   0  0  1  0  0  0  0  0  0  0  0  0
    1.1954  -11.2312    1.8661 C   0  0  0  0  0  0  0  0  0  0  0  0
    1.5546  -12.1691    2.7931 C   0  0  0  0  0  0  0  0  0  0  0  0
    0.9527   -7.0669    2.3918 C   0  0  2  0  0  0  0  0  0  0  0  0
    1.0618   -7.6392    1.0692 C   0  0  0  0  0  0  0  0  0  0  0  0
    1.2060   -8.9530    0.8578 C   0  0  0  0  0  0  0  0  0  0  0  0
    1.5159  -13.5011    2.3738 C   0  0  0  0  0  0  0  0  0  0  0  0
    1.1409  -13.8990    1.1908 C   0  0  0  0  0  0  0  0  0  0  0  0
    0.9249  -13.0546    0.2183 C   0  0  0  0  0  0  0  0  0  0  0  0
    0.9227  -11.6707    0.5316 C   0  0  0  0  0  0  0  0  0  0  0  0
    1.0078   -5.6071    2.4628 C   0  0  0  0  0  0  0  0  0  0  0  0
    1.2033   -9.3963   -0.3819 O   0  0  0  0  0  0  0  0  0  0  0  0
    0.3283   -4.9184    1.6281 C   0  0  0  0  0  0  0  0  0  0  0  0
   -0.7616   -5.0916    1.2016 C   0  0  0  0  0  0  0  0  0  0  0  0
   -1.4772   -4.2843    0.2902 C   0  0  0  0  0  0  0  0  0  0  0  0
   -1.0314   -2.9672    0.1154 C   0  0  0  0  0  0  0  0  0  0  0  0
    0.1650   -2.5948    0.6726 C   0  0  0  0  0  0  0  0  0  0  0  0
  1  2  1  0
  3  4  1  6
  6  7  1  0
  3  8  1  0
  7  8  1  0
  6 13  1  6
  8 14  2  0
 13 15  1  0
 15 16  2  3
 16 17  1  0
 17 18  2  3
 18 19  1  0
  2  3  1  0
  1  6  1  0
  4  5  2  0
  5  9  1  0
  9 10  2  0
 10 11  1  0
 11 12  2  0
  4 12  1  0
M  END

$$$$
No_4070-/export/home/yangzhenyu/potential_scad_32_flow//YTHDC2/2024-12-06-03-22-00/
     RDKit          3D

 20 20  0  0  1  0  0  0  0  0999 V2000
    1.1787   -8.0297    3.5154 O   0  0  0  0  0  0  0  0  0  0  0  0
    0.6747   -7.4019    2.7838 C   0  0  0  0  0  0  0  0  0  0  0  0
    0.5570   -6.0797    2.8560 C   0  0  0  0  0  0  0  0  0  0  0  0
   -0.2158   -5.3007    2.0284 C   0  0  0  0  0  0  0  0  0  0  0  0
   -0.8260   -5.9169    1.0290 C   0  0  0  0  0  0  0  0  0  0  0  0
   -0.6925   -7.2407    0.8216 C   0  0  0  0  0  0  0  0  0  0  0  0
    0.1645   -8.0156    1.6621 C   0  0  0  0  0  0  0  0  0  0  0  0
    0.4049   -9.3434    1.4877 C   0  0  2  0  0  0  0  0  0  0  0  0
    1.4848   -9.6364    0.5257 C   0  0  0  0  0  0  0  0  0  0  0  0
    1.9880  -10.8099    0.3816 O   0  0  0  0  0  0  0  0  0  0  0  0
    2.2014   -8.6386   -0.2111 N   0  0  0  0  0  0  0  0  0  0  0  0
   -0.3714   -3.8725    2.2751 Cl  0  0  0  0  0  0  0  0  0  0  0  0
   -0.2598  -10.3202    1.8593 C   0  0  0  0  0  0  0  0  0  0  0  0
   -0.1781  -10.6469    3.1473 C   0  0  0  0  0  0  0  0  0  0  0  0
    0.8216  -11.4580    3.6650 C   0  0  0  0  0  0  0  0  0  0  0  0
    0.7514  -12.7845    3.3996 C   0  0  0  0  0  0  0  0  0  0  0  0
   -0.4170  -13.3524    3.2371 C   0  0  0  0  0  0  0  0  0  0  0  0
   -0.4738  -14.8173    2.9141 C   0  0  0  0  0  0  0  0  0  0  0  0
   -1.5828  -15.4276    2.5832 C   0  0  0  0  0  0  0  0  0  0  0  0
   -1.4480  -16.8789    2.4348 C   0  0  0  0  0  0  0  0  0  0  0  0
  1  2  1  0
  7  8  1  0
  8  9  1  0
  9 10  2  0
  9 11  1  0
  4 12  1  0
  8 13  1  6
 13 14  1  0
 14 15  1  0
 15 16  1  0
 16 17  2  3
 17 18  1  0
 18 19  2  3
 19 20  1  0
  2  3  2  0
  3  4  1  0
  4  5  2  0
  5  6  1  0
  6  7  2  0
  2  7  1  0
M  END

$$$$
No_4071-/export/home/yangzhenyu/potential_scad_32_flow//YTHDC2/2024-12-06-03-22-00/
     RDKit          3D

 17 18  0  0  0  0  0  0  0  0999 V2000
    1.1787   -8.0297    3.5154 C   0  0  0  0  0  0  0  0  0  0  0  0
    1.0491   -6.8434    2.9820 C   0  0  0  0  0  0  0  0  0  0  0  0
    0.9905   -9.0774    2.6527 C   0  0  0  0  0  0  0  0  0  0  0  0
    0.7897   -8.9519    1.3691 C   0  0  0  0  0  0  0  0  0  0  0  0
    0.7018   -7.7198    0.7892 C   0  0  0  0  0  0  0  0  0  0  0  0
    0.8918   -6.5957    1.6117 C   0  0  0  0  0  0  0  0  0  0  0  0
    1.0998  -10.4710    3.2437 C   0  0  0  0  0  0  0  0  0  0  0  0
    0.0472  -11.2546    3.3963 C   0  0  0  0  0  0  0  0  0  0  0  0
    0.1622  -12.5732    3.4140 C   0  0  0  0  0  0  0  0  0  0  0  0
    1.4182  -13.1957    3.4048 C   0  0  0  0  0  0  0  0  0  0  0  0
    2.5550  -12.3947    3.0877 C   0  0  0  0  0  0  0  0  0  0  0  0
    2.4166  -11.0849    2.9699 C   0  0  0  0  0  0  0  0  0  0  0  0
    0.8571   -5.2495    1.2086 O   0  0  0  0  0  0  0  0  0  0  0  0
    1.4152  -14.5596    3.3708 O   0  0  0  0  0  0  0  0  0  0  0  0
    0.4376  -15.3815    3.0013 C   0  0  0  0  0  0  0  0  0  0  0  0
    0.1726  -15.3844    1.7687 C   0  0  0  0  0  0  0  0  0  0  0  0
    1.1329  -15.4561    0.8475 C   0  0  0  0  0  0  0  0  0  0  0  0
  1  2  1  0
  3  4  1  0
  2  6  1  0
  5  6  1  0
  3  7  1  0
  6 13  2  0
 10 14  1  0
 14 15  1  0
 15 16  1  0
 16 17  1  0
  1  3  1  0
  4  5  1  0
  7  8  2  0
  8  9  1  0
  9 10  2  0
 10 11  1  0
 11 12  2  0
  7 12  1  0
M  END

$$$$
No_4072-/export/home/yangzhenyu/potential_scad_32_flow//YTHDC2/2024-12-06-03-22-00/
     RDKit          3D

 18 18  0  0  0  0  0  0  0  0999 V2000
    1.1787   -8.0297    3.5154 C   0  0  0  0  0  0  0  0  0  0  0  0
    1.1048   -9.2215    3.2892 C   0  0  0  0  0  0  0  0  0  0  0  0
    1.2339   -9.7611    2.0189 C   0  0  0  0  0  0  0  0  0  0  0  0
    1.1954  -11.2312    1.8661 C   0  0  0  0  0  0  0  0  0  0  0  0
    1.5546  -12.1691    2.7931 C   0  0  0  0  0  0  0  0  0  0  0  0
    0.9527   -7.0669    2.3918 C   0  0  0  0  0  0  0  0  0  0  0  0
    1.0618   -7.6392    1.0692 C   0  0  0  0  0  0  0  0  0  0  0  0
    1.2060   -8.9530    0.8578 C   0  0  0  0  0  0  0  0  0  0  0  0
    1.5159  -13.5011    2.3738 P   0  0  0  0  0  0  0  0  0  0  0  0
    2.5177  -14.0132    1.4297 O   0  0  0  0  0  0  0  0  0  0  0  0
    1.5734  -14.5045    3.6282 O   0  0  0  0  0  0  0  0  0  0  0  0
    0.1787  -13.7676    1.7484 O   0  0  0  0  0  0  0  0  0  0  0  0
    1.7493   -9.2781   -0.2680 C   0  0  0  0  0  0  0  0  0  0  0  0
    1.4240   -8.7347   -1.4207 O   0  0  0  0  0  0  0  0  0  0  0  0
    2.6124  -10.1649   -0.4655 O   0  0  0  0  0  0  0  0  0  0  0  0
    0.9808   -5.6232    2.5570 C   0  0  0  0  0  0  0  0  0  0  0  0
    1.7158   -5.1144    3.5122 O   0  0  0  0  0  0  0  0  0  0  0  0
    0.3021   -4.8952    1.7810 O   0  0  0  0  0  0  0  0  0  0  0  0
  3  4  1  0
  4  5  1  0
  5  9  1  0
  9 10  1  0
  9 11  1  0
  9 12  2  0
  8 13  1  0
 13 14  1  0
 13 15  2  0
  6 16  1  0
 16 17  1  0
 16 18  2  0
  1  2  2  0
  2  3  1  0
  3  8  2  0
  7  8  1  0
  6  7  2  0
  1  6  1  0
M  END

$$$$
No_4073-/export/home/yangzhenyu/potential_scad_32_flow//YTHDC2/2024-12-06-03-22-00/
     RDKit          3D

 19 21  0  0  0  0  0  0  0  0999 V2000
    1.1787   -8.0297    3.5154 C   0  0  0  0  0  0  0  0  0  0  0  0
    1.1048   -9.2215    3.2892 C   0  0  0  0  0  0  0  0  0  0  0  0
    1.2339   -9.7611    2.0189 C   0  0  0  0  0  0  0  0  0  0  0  0
    1.1954  -11.2312    1.8661 C   0  0  0  0  0  0  0  0  0  0  0  0
    1.5546  -12.1691    2.7931 C   0  0  0  0  0  0  0  0  0  0  0  0
    0.9527   -7.0669    2.3918 C   0  0  0  0  0  0  0  0  0  0  0  0
    1.0618   -7.6392    1.0692 C   0  0  0  0  0  0  0  0  0  0  0  0
    1.2060   -8.9530    0.8578 C   0  0  0  0  0  0  0  0  0  0  0  0
    1.5110  -13.5006    2.3856 C   0  0  0  0  0  0  0  0  0  0  0  0
    1.1461  -13.9087    1.2014 C   0  0  0  0  0  0  0  0  0  0  0  0
    0.9324  -13.0660    0.2177 C   0  0  0  0  0  0  0  0  0  0  0  0
    0.9275  -11.6786    0.5224 C   0  0  0  0  0  0  0  0  0  0  0  0
    1.0249   -5.4090    2.5055 C   0  0  0  0  0  0  0  0  0  0  0  0
    1.9100  -14.4144    3.4308 O   0  0  0  0  0  0  0  0  0  0  0  0
    0.4427   -4.8359    1.5994 C   0  0  0  0  0  0  0  0  0  0  0  0
    0.0401   -3.6180    1.9424 C   0  0  0  0  0  0  0  0  0  0  0  0
    0.6376   -2.9472    3.1097 C   0  0  0  0  0  0  0  0  0  0  0  0
    1.3431   -3.7315    4.0343 C   0  0  0  0  0  0  0  0  0  0  0  0
    1.5675   -5.0668    3.7456 C   0  0  0  0  0  0  0  0  0  0  0  0
  3  4  1  0
  6 13  1  0
  9 14  1  0
 13 15  2  0
 15 16  1  0
 16 17  2  0
 17 18  1  0
 18 19  2  0
 13 19  1  0
  1  2  2  0
  2  3  1  0
  3  8  2  0
  7  8  1  0
  6  7  2  0
  1  6  1  0
  4  5  2  0
  5  9  1  0
  9 10  2  0
 10 11  1  0
 11 12  2  0
  4 12  1  0
M  END

$$$$
No_4074-/export/home/yangzhenyu/potential_scad_32_flow//YTHDC2/2024-12-06-03-22-00/
     RDKit          3D

 18 18  0  0  0  0  0  0  0  0999 V2000
    1.1787   -8.0297    3.5154 C   0  0  0  0  0  0  0  0  0  0  0  0
    1.1048   -9.2215    3.2892 C   0  0  0  0  0  0  0  0  0  0  0  0
    1.2339   -9.7611    2.0189 C   0  0  0  0  0  0  0  0  0  0  0  0
    1.3583   -9.0036    0.9764 C   0  0  0  0  0  0  0  0  0  0  0  0
    1.5996   -7.6362    1.1311 C   0  0  0  0  0  0  0  0  0  0  0  0
    1.4830   -7.0928    2.3626 C   0  0  0  0  0  0  0  0  0  0  0  0
    1.1008  -11.2372    1.8542 C   0  0  0  0  0  0  0  0  0  0  0  0
    0.5178  -11.9759    2.3445 C   0  0  0  0  0  0  0  0  0  0  0  0
   -0.4557  -11.5167    3.4352 C   0  0  0  0  0  0  0  0  0  0  0  0
    0.2605  -13.4149    2.0553 C   0  0  0  0  0  0  0  0  0  0  0  0
    1.3575  -14.2791    2.5715 C   0  0  0  0  0  0  0  0  0  0  0  0
    1.5953  -15.4071    2.1147 C   0  0  0  0  0  0  0  0  0  0  0  0
    2.8418  -15.9220    2.1329 C   0  0  0  0  0  0  0  0  0  0  0  0
    1.5729   -5.6658    2.6309 Cl  0  0  0  0  0  0  0  0  0  0  0  0
    2.8743  -17.3862    2.2140 O   0  0  0  0  0  0  0  0  0  0  0  0
    3.9242  -15.3398    2.0239 O   0  0  0  0  0  0  0  0  0  0  0  0
    1.6145   -9.4747   -0.3210 C   0  0  0  0  0  0  0  0  0  0  0  0
    2.5868   -9.7415   -0.7814 O   0  0  0  0  0  0  0  0  0  0  0  0
  3  7  1  0
  7  8  2  3
  8  9  1  0
  8 10  1  0
 10 11  1  0
 11 12  1  0
 12 13  1  0
  6 14  1  0
 13 15  2  0
 13 16  1  0
  4 17  1  0
 17 18  2  0
  1  2  2  0
  2  3  1  0
  3  4  2  0
  4  5  1  0
  5  6  2  0
  1  6  1  0
M  END

$$$$
No_4075-/export/home/yangzhenyu/potential_scad_32_flow//YTHDC2/2024-12-06-03-22-00/
     RDKit          3D

 20 20  0  0  0  0  0  0  0  0999 V2000
    1.1787   -8.0297    3.5154 O   0  0  0  0  0  0  0  0  0  0  0  0
    0.9969   -8.9689    3.0048 C   0  0  0  0  0  0  0  0  0  0  0  0
    1.3055  -10.1056    3.6616 C   0  0  0  0  0  0  0  0  0  0  0  0
    1.1249  -11.3503    3.0941 C   0  0  0  0  0  0  0  0  0  0  0  0
    0.6932  -11.4484    1.8586 C   0  0  0  0  0  0  0  0  0  0  0  0
    0.5498  -10.3736    1.0579 C   0  0  0  0  0  0  0  0  0  0  0  0
    0.7643   -9.1185    1.6383 C   0  0  0  0  0  0  0  0  0  0  0  0
    0.4151   -7.8542    1.0784 C   0  0  0  0  0  0  0  0  0  0  0  0
    1.2617   -6.9597    0.8839 O   0  0  0  0  0  0  0  0  0  0  0  0
   -0.7681   -7.5590    0.5014 N   0  0  0  0  0  0  0  0  0  0  0  0
    1.2347  -12.6434    3.8278 C   0  0  0  0  0  0  0  0  0  0  0  0
    0.4216  -13.7417    3.2213 N   0  0  0  0  0  0  0  0  0  0  0  0
    1.2470  -14.8817    3.1316 C   0  0  0  0  0  0  0  0  0  0  0  0
    0.5628  -16.1054    2.8333 O   0  0  0  0  0  0  0  0  0  0  0  0
    2.6376  -14.9275    2.4965 C   0  0  0  0  0  0  0  0  0  0  0  0
   -1.8966   -8.4302    0.8249 C   0  0  0  0  0  0  0  0  0  0  0  0
   -2.8577   -7.9655    1.6077 C   0  0  0  0  0  0  0  0  0  0  0  0
   -3.1755   -8.5508    2.6635 C   0  0  0  0  0  0  0  0  0  0  0  0
   -3.0681  -10.0564    2.6598 C   0  0  0  0  0  0  0  0  0  0  0  0
   -3.3784  -10.9184    3.8277 C   0  0  0  0  0  0  0  0  0  0  0  0
  1  2  1  0
  7  8  1  0
  8  9  2  0
  8 10  1  0
  4 11  1  0
 11 12  1  0
 12 13  1  0
 13 14  2  0
 13 15  1  0
 10 16  1  0
 16 17  1  0
 17 18  2  3
 18 19  1  0
 19 20  1  0
  2  3  2  0
  3  4  1  0
  4  5  2  0
  5  6  1  0
  6  7  2  0
  2  7  1  0
M  END

$$$$
No_4076-/export/home/yangzhenyu/potential_scad_32_flow//YTHDC2/2024-12-06-03-22-00/
     RDKit          3D

 18 19  0  0  0  0  0  0  0  0999 V2000
    1.1787   -8.0297    3.5154 C   0  0  0  0  0  0  0  0  0  0  0  0
    1.0491   -6.8434    2.9820 C   0  0  0  0  0  0  0  0  0  0  0  0
    0.0950   -8.8404    3.2292 C   0  0  0  0  0  0  0  0  0  0  0  0
   -0.9173   -8.4596    2.5152 C   0  0  0  0  0  0  0  0  0  0  0  0
   -0.8043   -7.0775    2.1508 C   0  0  0  0  0  0  0  0  0  0  0  0
    0.0928   -6.2803    2.3573 C   0  0  0  0  0  0  0  0  0  0  0  0
    0.1757  -10.3800    3.7014 C   0  0  0  0  0  0  0  0  0  0  0  0
   -1.0216  -11.0516    3.5753 C   0  0  0  0  0  0  0  0  0  0  0  0
   -0.8576  -12.4568    3.8045 C   0  0  0  0  0  0  0  0  0  0  0  0
   -0.2709  -13.1275    2.8288 C   0  0  0  0  0  0  0  0  0  0  0  0
    1.0834  -12.6505    2.3953 C   0  0  0  0  0  0  0  0  0  0  0  0
    1.2142  -11.1260    2.7776 C   0  0  0  0  0  0  0  0  0  0  0  0
    2.0375  -13.2063    1.8372 C   0  0  0  0  0  0  0  0  0  0  0  0
    0.1432   -4.8991    1.9553 Cl  0  0  0  0  0  0  0  0  0  0  0  0
    2.3612  -12.7754    0.6363 O   0  0  0  0  0  0  0  0  0  0  0  0
    2.5550  -14.3453    2.1910 O   0  0  0  0  0  0  0  0  0  0  0  0
   -2.1088   -6.5904    1.5230 C   0  0  0  0  0  0  0  0  0  0  0  0
   -2.3497   -6.7584    0.4315 I   0  0  0  0  0  0  0  0  0  0  0  0
  3  7  1  0
 11 13  1  0
  6 14  1  0
 13 15  2  0
 13 16  1  0
  5 17  1  0
 17 18  1  0
  1  2  2  0
  2  6  1  0
  5  6  2  0
  4  5  1  0
  3  4  2  0
  1  3  1  0
  7  8  2  0
  8  9  1  0
  9 10  2  0
 10 11  1  0
 11 12  2  0
  7 12  1  0
M  END

$$$$
No_4077-/export/home/yangzhenyu/potential_scad_32_flow//YTHDC2/2024-12-06-03-22-00/
     RDKit          3D

 18 20  0  0  1  0  0  0  0  0999 V2000
    1.1787   -8.0297    3.5154 Br  0  0  0  0  0  0  0  0  0  0  0  0
    0.6076   -7.9037    2.4936 C   0  0  2  0  0  0  0  0  0  0  0  0
    0.2555   -6.7588    1.9130 C   0  0  0  0  0  0  0  0  0  0  0  0
    1.2300   -5.6917    1.9359 C   0  0  0  0  0  0  0  0  0  0  0  0
    0.9206   -4.3397    2.2084 C   0  0  0  0  0  0  0  0  0  0  0  0
   -0.4113   -4.0552    1.8302 C   0  0  0  0  0  0  0  0  0  0  0  0
   -1.4087   -4.9685    1.7740 C   0  0  0  0  0  0  0  0  0  0  0  0
   -1.1205   -6.3063    1.7503 C   0  0  0  0  0  0  0  0  0  0  0  0
   -0.3871   -8.9839    1.9735 C   0  0  0  0  0  0  0  0  0  0  0  0
    0.0010  -10.1063    1.8255 C   0  0  0  0  0  0  0  0  0  0  0  0
   -0.8204  -11.2026    1.5364 C   0  0  0  0  0  0  0  0  0  0  0  0
   -2.0975  -10.9520    1.1122 C   0  0  0  0  0  0  0  0  0  0  0  0
   -2.5683   -9.7368    1.1527 C   0  0  0  0  0  0  0  0  0  0  0  0
   -1.7428   -8.6880    1.6148 C   0  0  0  0  0  0  0  0  0  0  0  0
   -2.0000   -7.2813    1.5709 N   0  0  0  0  0  0  0  0  0  0  0  0
   -0.3152  -12.5797    1.3970 C   0  0  0  0  0  0  0  0  0  0  0  0
   -0.8429  -13.5012    0.7067 C   0  0  0  0  0  0  0  0  0  0  0  0
   -0.3958  -14.8536    0.8110 C   0  0  0  0  0  0  0  0  0  0  0  0
  2  1  1  1
  2  3  1  0
  2  9  1  0
  8 15  1  0
 14 15  1  0
 11 16  1  0
 16 17  2  3
 17 18  1  0
  3  4  2  0
  4  5  1  0
  5  6  2  0
  6  7  1  0
  7  8  2  0
  3  8  1  0
  9 10  2  0
 10 11  1  0
 11 12  2  0
 12 13  1  0
 13 14  2  0
  9 14  1  0
M  END

$$$$
No_4078-/export/home/yangzhenyu/potential_scad_32_flow//YTHDC2/2024-12-06-03-22-00/
     RDKit          3D

 19 20  0  0  1  0  0  0  0  0999 V2000
    1.1787   -8.0297    3.5154 C   0  0  0  0  0  0  0  0  0  0  0  0
    1.0491   -6.8434    2.9820 C   0  0  0  0  0  0  0  0  0  0  0  0
    0.9905   -9.0774    2.6527 C   0  0  0  0  0  0  0  0  0  0  0  0
    0.7897   -8.9519    1.3691 C   0  0  0  0  0  0  0  0  0  0  0  0
    0.7018   -7.7198    0.7892 C   0  0  0  0  0  0  0  0  0  0  0  0
    0.8918   -6.5957    1.6117 C   0  0  0  0  0  0  0  0  0  0  0  0
    1.0998  -10.4710    3.2437 C   0  0  2  0  0  0  0  0  0  0  0  0
    2.1917  -10.8879    3.7399 C   0  0  0  0  0  0  0  0  0  0  0  0
    0.8983   -5.2566    1.2088 O   0  0  0  0  0  0  0  0  0  0  0  0
    0.4942  -11.5082    2.3990 C   0  0  0  0  0  0  0  0  0  0  0  0
   -0.8624  -11.6477    2.6981 C   0  0  2  0  0  0  0  0  0  0  0  0
   -1.4297  -10.7852    3.7251 C   0  0  0  0  0  0  0  0  0  0  0  0
   -1.6745  -12.5449    2.2068 C   0  0  0  0  0  0  0  0  0  0  0  0
   -1.2826  -13.5597    1.4839 C   0  0  0  0  0  0  0  0  0  0  0  0
   -0.4528  -14.5162    1.9209 C   0  0  0  0  0  0  0  0  0  0  0  0
    0.1836  -15.4591    1.3208 C   0  0  0  0  0  0  0  0  0  0  0  0
    0.0071  -15.5370   -0.0555 C   0  0  0  0  0  0  0  0  0  0  0  0
   -0.6768  -14.5838   -0.7034 C   0  0  0  0  0  0  0  0  0  0  0  0
   -1.2738  -13.5743   -0.0199 C   0  0  0  0  0  0  0  0  0  0  0  0
  1  2  1  0
  3  4  1  0
  2  6  1  0
  5  6  1  0
  3  7  1  0
  7  8  1  6
  6  9  2  0
  7 10  1  0
 10 11  1  0
 11 12  1  1
 11 13  1  0
 13 14  1  0
  1  3  1  0
  4  5  1  0
 14 15  2  0
 15 16  1  0
 16 17  2  0
 17 18  1  0
 18 19  2  0
 14 19  1  0
M  END

$$$$
No_4079-/export/home/yangzhenyu/potential_scad_32_flow//YTHDC2/2024-12-06-03-22-00/
     RDKit          3D

 18 19  0  0  0  0  0  0  0  0999 V2000
    1.1787   -8.0297    3.5154 C   0  0  0  0  0  0  0  0  0  0  0  0
    1.1048   -9.2215    3.2892 C   0  0  0  0  0  0  0  0  0  0  0  0
    1.2339   -9.7611    2.0189 C   0  0  0  0  0  0  0  0  0  0  0  0
    1.3583   -9.0036    0.9764 C   0  0  0  0  0  0  0  0  0  0  0  0
    1.5996   -7.6362    1.1311 C   0  0  0  0  0  0  0  0  0  0  0  0
    1.4830   -7.0928    2.3626 C   0  0  0  0  0  0  0  0  0  0  0  0
    1.4898   -5.7274    2.6199 C   0  0  0  0  0  0  0  0  0  0  0  0
    1.1882  -11.3736    1.8424 C   0  0  0  0  0  0  0  0  0  0  0  0
    0.2883  -11.9819    2.0702 C   0  0  0  0  0  0  0  0  0  0  0  0
    0.4271  -13.3696    2.3969 C   0  0  0  0  0  0  0  0  0  0  0  0
    1.6249  -14.0114    2.0746 C   0  0  0  0  0  0  0  0  0  0  0  0
    2.7425  -13.1695    1.6233 C   0  0  0  0  0  0  0  0  0  0  0  0
    2.5104  -11.8628    1.4306 C   0  0  0  0  0  0  0  0  0  0  0  0
    0.6715   -4.9877    2.7357 O   0  0  0  0  0  0  0  0  0  0  0  0
    2.0227  -15.6620    2.3759 F   0  0  0  0  0  0  0  0  0  0  0  0
    1.6057   -9.4757   -0.3343 O   0  0  0  0  0  0  0  0  0  0  0  0
    2.6716   -5.1513    2.9019 O   0  0  0  0  0  0  0  0  0  0  0  0
   -1.0200  -11.6123    2.4908 O   0  0  0  0  0  0  0  0  0  0  0  0
  6  7  1  0
  3  8  1  0
  7 14  2  0
 11 15  1  0
  4 16  1  0
  7 17  1  0
  9 18  1  0
  1  2  2  0
  2  3  1  0
  3  4  2  0
  4  5  1  0
  5  6  2  0
  1  6  1  0
  8  9  2  0
  9 10  1  0
 10 11  2  0
 11 12  1  0
 12 13  2  0
  8 13  1  0
M  END

$$$$
No_4080-/export/home/yangzhenyu/potential_scad_32_flow//YTHDC2/2024-12-06-03-22-00/
     RDKit          3D

 20 20  0  0  1  0  0  0  0  0999 V2000
    1.1787   -8.0297    3.5154 F   0  0  0  0  0  0  0  0  0  0  0  0
    0.5277   -7.9922    2.7193 C   0  0  1  0  0  0  0  0  0  0  0  0
    0.3243   -6.6787    2.2086 C   0  0  0  0  0  0  0  0  0  0  0  0
   -0.7600   -6.4338    1.4514 O   0  0  0  0  0  0  0  0  0  0  0  0
    0.8020   -5.5617    2.7732 Br  0  0  0  0  0  0  0  0  0  0  0  0
    1.0639   -8.8374    1.4967 C   0  0  2  0  0  0  0  0  0  0  0  0
    1.2242  -10.0914    1.6662 C   0  0  0  0  0  0  0  0  0  0  0  0
    1.2617  -10.8909    0.5743 C   0  0  0  0  0  0  0  0  0  0  0  0
    1.4143  -12.2926    0.9058 C   0  0  0  0  0  0  0  0  0  0  0  0
    1.5475  -12.8592    2.1700 C   0  0  0  0  0  0  0  0  0  0  0  0
    1.6147  -11.9941    3.2110 C   0  0  0  0  0  0  0  0  0  0  0  0
    1.4337  -10.6540    3.0688 C   0  0  0  0  0  0  0  0  0  0  0  0
    1.8241  -14.2202    2.3644 C   0  0  0  0  0  0  0  0  0  0  0  0
    0.9291  -14.9040    3.0564 O   0  0  0  0  0  0  0  0  0  0  0  0
    2.8473  -14.7890    1.9277 O   0  0  0  0  0  0  0  0  0  0  0  0
    1.4259   -8.1450    0.3538 C   0  0  0  0  0  0  0  0  0  0  0  0
    2.8074   -7.7181    0.1709 O   0  0  0  0  0  0  0  0  0  0  0  0
    0.7714   -8.1883   -0.6762 O   0  0  0  0  0  0  0  0  0  0  0  0
    0.6724  -16.2156    2.9131 C   0  0  0  0  0  0  0  0  0  0  0  0
   -0.1090  -16.5985    2.0095 C   0  0  0  0  0  0  0  0  0  0  0  0
  2  1  1  1
  2  3  1  0
  3  4  2  0
  3  5  1  0
  2  6  1  0
  6  7  1  0
 10 13  1  0
 13 14  1  0
 13 15  2  0
  6 16  1  1
 16 17  1  0
 16 18  2  0
 14 19  1  0
 19 20  1  0
  7  8  2  0
  8  9  1  0
  9 10  2  0
 10 11  1  0
 11 12  2  0
  7 12  1  0
M  END

$$$$
No_4081-/export/home/yangzhenyu/potential_scad_32_flow//YTHDC2/2024-12-06-03-22-00/
     RDKit          3D

 18 20  0  0  1  0  0  0  0  0999 V2000
    1.1787   -8.0297    3.5154 C   0  0  0  0  0  0  0  0  0  0  0  0
    1.0491   -6.8434    2.9820 O   0  0  0  0  0  0  0  0  0  0  0  0
   -0.0075   -8.7761    3.2545 C   0  0  0  0  0  0  0  0  0  0  0  0
   -1.0447   -7.9958    3.1459 C   0  0  1  0  0  0  0  0  0  0  0  0
   -1.0412   -6.8082    2.5456 C   0  0  1  0  0  0  0  0  0  0  0  0
   -2.2058   -6.1186    2.5631 C   0  0  0  0  0  0  0  0  0  0  0  0
    0.2093   -6.1052    2.6620 C   0  0  2  0  0  0  0  0  0  0  0  0
   -3.3884   -6.8143    2.7285 C   0  0  0  0  0  0  0  0  0  0  0  0
   -3.4824   -8.0221    3.1348 C   0  0  0  0  0  0  0  0  0  0  0  0
   -2.3096   -8.7227    3.3996 C   0  0  0  0  0  0  0  0  0  0  0  0
    0.4837   -4.8784    2.1661 C   0  0  2  0  0  0  0  0  0  0  0  0
    0.9726   -3.8762    2.6407 C   0  0  0  0  0  0  0  0  0  0  0  0
    1.6714   -4.0027    3.7406 O   0  0  0  0  0  0  0  0  0  0  0  0
    1.0871   -2.5878    2.1356 N   0  0  0  0  0  0  0  0  0  0  0  0
   -0.2909   -4.5877    0.9400 C   0  0  0  0  0  0  0  0  0  0  0  0
   -2.3720   -9.9659    3.9406 O   0  0  0  0  0  0  0  0  0  0  0  0
   -0.4236   -3.6671    0.2916 C   0  0  0  0  0  0  0  0  0  0  0  0
    0.3267   -2.4241    0.9149 C   0  0  0  0  0  0  0  0  0  0  0  0
  1  2  1  0
  1  3  1  0
  4  3  1  6
  4  5  1  0
  7  2  1  6
  5  7  1  0
  6  8  1  0
  4 10  1  0
  9 10  1  0
  7 11  1  0
 11 12  1  0
 12 13  2  0
 12 14  1  0
 11 15  1  1
 10 16  2  0
 17 18  1  0
 15 17  1  0
 14 18  1  0
  5  6  1  1
  8  9  1  0
M  END

$$$$
No_4082-/export/home/yangzhenyu/potential_scad_32_flow//YTHDC2/2024-12-06-03-22-00/
     RDKit          3D

 17 17  0  0  1  0  0  0  0  0999 V2000
    1.1787   -8.0297    3.5154 C   0  0  0  0  0  0  0  0  0  0  0  0
    1.0491   -6.8434    2.9820 C   0  0  0  0  0  0  0  0  0  0  0  0
    1.9985   -8.9840    2.8958 C   0  0  2  0  0  0  0  0  0  0  0  0
    1.7297   -9.2108    1.6335 C   0  0  0  0  0  0  0  0  0  0  0  0
    1.7343   -8.0566    0.8408 C   0  0  2  0  0  0  0  0  0  0  0  0
    1.0269   -6.8892    1.4456 C   0  0  0  0  0  0  0  0  0  0  0  0
    1.7596   -8.0979   -0.4723 S   0  0  0  0  0  0  0  0  0  0  0  0
    0.6869   -8.1180   -1.0589 C   0  0  0  0  0  0  0  0  0  0  0  0
    3.0043   -8.3709   -1.1324 O   0  0  0  0  0  0  0  0  0  0  0  0
    1.9407  -10.3689    3.5839 C   0  0  0  0  0  0  0  0  0  0  0  0
    2.4039  -10.4203    4.7287 N   0  0  0  0  0  0  0  0  0  0  0  0
    1.2979  -11.3826    3.1808 O   0  0  0  0  0  0  0  0  0  0  0  0
   -0.3842   -8.7566   -1.2316 O   0  0  0  0  0  0  0  0  0  0  0  0
    3.1192  -11.6349    5.2007 C   0  0  0  0  0  0  0  0  0  0  0  0
    4.6094  -11.5293    4.7260 C   0  0  0  0  0  0  0  0  0  0  0  0
    0.9122   -5.6250    3.5148 C   0  0  0  0  0  0  0  0  0  0  0  0
    0.0729   -4.7189    3.1959 C   0  0  0  0  0  0  0  0  0  0  0  0
  1  2  1  0
  1  3  1  0
  3  4  1  0
  5  4  1  6
  2  6  1  0
  5  6  1  0
  5  7  1  0
  7  8  1  1
  7  9  2  0
  3 10  1  1
 10 11  1  0
 10 12  2  0
  8 13  2  0
 11 14  1  0
 14 15  1  0
  2 16  1  0
 16 17  1  0
M  END

$$$$
No_4083-/export/home/yangzhenyu/potential_scad_32_flow//YTHDC2/2024-12-06-03-22-00/
     RDKit          3D

 18 18  0  0  0  0  0  0  0  0999 V2000
    1.1787   -8.0297    3.5154 C   0  0  0  0  0  0  0  0  0  0  0  0
    1.1048   -9.2215    3.2892 C   0  0  0  0  0  0  0  0  0  0  0  0
    1.3627  -10.1721    4.3044 C   0  0  0  0  0  0  0  0  0  0  0  0
    1.7354  -11.4730    3.9023 C   0  0  0  0  0  0  0  0  0  0  0  0
    1.8080  -11.8127    2.7216 C   0  0  0  0  0  0  0  0  0  0  0  0
    1.5854  -11.0021    1.7249 C   0  0  0  0  0  0  0  0  0  0  0  0
    1.3573   -9.7389    1.9287 C   0  0  0  0  0  0  0  0  0  0  0  0
    1.2865   -8.8078    0.9161 C   0  0  0  0  0  0  0  0  0  0  0  0
    1.6845   -9.1638   -0.2896 C   0  0  0  0  0  0  0  0  0  0  0  0
    2.8611   -9.7120   -0.5522 O   0  0  0  0  0  0  0  0  0  0  0  0
    1.0038   -8.9122   -1.3119 O   0  0  0  0  0  0  0  0  0  0  0  0
    2.0511  -13.2453    2.4126 N   0  0  0  0  0  0  0  0  0  0  0  0
    2.3087   -7.1893    3.6725 O   0  0  0  0  0  0  0  0  0  0  0  0
    0.0211   -7.3642    3.5517 O   0  0  0  0  0  0  0  0  0  0  0  0
    1.3245  -14.1820    1.8605 C   0  0  0  0  0  0  0  0  0  0  0  0
    0.2349  -13.7154    1.2954 O   0  0  0  0  0  0  0  0  0  0  0  0
    1.7414  -15.4550    1.8257 C   0  0  0  0  0  0  0  0  0  0  0  0
    0.9661  -16.3866    1.3400 C   0  0  0  0  0  0  0  0  0  0  0  0
  1  2  1  0
  7  8  1  0
  8  9  1  0
  9 10  1  0
  9 11  2  0
  5 12  1  0
  1 13  2  0
  1 14  1  0
 12 15  1  0
 15 16  2  0
 15 17  1  0
 17 18  1  0
  2  3  2  0
  3  4  1  0
  4  5  2  0
  5  6  1  0
  6  7  2  0
  2  7  1  0
M  END

$$$$
No_4084-/export/home/yangzhenyu/potential_scad_32_flow//YTHDC2/2024-12-06-03-22-00/
     RDKit          3D

 18 19  0  0  0  0  0  0  0  0999 V2000
    1.1787   -8.0297    3.5154 C   0  0  0  0  0  0  0  0  0  0  0  0
    1.1048   -9.2215    3.2892 C   0  0  0  0  0  0  0  0  0  0  0  0
    1.3627  -10.1721    4.3044 C   0  0  0  0  0  0  0  0  0  0  0  0
    1.7354  -11.4730    3.9023 C   0  0  0  0  0  0  0  0  0  0  0  0
    1.8080  -11.8127    2.7216 C   0  0  0  0  0  0  0  0  0  0  0  0
    1.5854  -11.0021    1.7249 C   0  0  0  0  0  0  0  0  0  0  0  0
    1.3573   -9.7389    1.9287 C   0  0  0  0  0  0  0  0  0  0  0  0
    1.1102   -8.8712    0.9017 C   0  0  0  0  0  0  0  0  0  0  0  0
    0.5299   -7.6926    1.0325 C   0  0  0  0  0  0  0  0  0  0  0  0
    0.7526   -7.0802    2.3301 C   0  0  0  0  0  0  0  0  0  0  0  0
    2.0528  -13.2563    2.4302 C   0  0  0  0  0  0  0  0  0  0  0  0
    2.3796  -13.7498    1.3110 O   0  0  0  0  0  0  0  0  0  0  0  0
    2.0564  -14.1750    3.4022 Cl  0  0  0  0  0  0  0  0  0  0  0  0
    0.5962   -5.7111    2.5522 C   0  0  0  0  0  0  0  0  0  0  0  0
    1.0360   -4.8372    1.6555 C   0  0  0  0  0  0  0  0  0  0  0  0
    1.7410   -3.6223    2.0541 C   0  0  0  0  0  0  0  0  0  0  0  0
    1.0878   -9.3205   -0.4442 C   0  0  0  0  0  0  0  0  0  0  0  0
    0.8099   -8.7036   -1.3877 O   0  0  0  0  0  0  0  0  0  0  0  0
  5 11  1  0
 11 12  2  0
 11 13  1  0
 10 14  1  0
 14 15  1  0
 15 16  1  0
  8 17  1  0
 17 18  2  0
  1  2  2  0
  7  8  2  0
  8  9  1  0
  9 10  2  0
  1 10  1  0
  2  3  1  0
  3  4  2  0
  4  5  1  0
  5  6  2  0
  6  7  1  0
  2  7  1  0
M  END

$$$$
No_4085-/export/home/yangzhenyu/potential_scad_32_flow//YTHDC2/2024-12-06-03-22-00/
     RDKit          3D

 19 19  0  0  0  0  0  0  0  0999 V2000
    1.1787   -8.0297    3.5154 C   0  0  0  0  0  0  0  0  0  0  0  0
    1.0491   -6.8434    2.9820 C   0  0  0  0  0  0  0  0  0  0  0  0
    1.9985   -8.9840    2.8958 C   0  0  0  0  0  0  0  0  0  0  0  0
    1.9135  -10.3404    3.6266 C   0  0  0  0  0  0  0  0  0  0  0  0
    1.3291  -11.3908    3.0222 N   0  0  0  0  0  0  0  0  0  0  0  0
    1.7430   -5.7618    3.3349 O   0  0  0  0  0  0  0  0  0  0  0  0
    1.3607  -12.5831    3.6841 C   0  0  0  0  0  0  0  0  0  0  0  0
    0.6935  -13.6314    2.8554 C   0  0  0  0  0  0  0  0  0  0  0  0
    1.1894  -13.9240    1.8106 C   0  0  0  0  0  0  0  0  0  0  0  0
    0.9305  -14.9287    1.0520 C   0  0  0  0  0  0  0  0  0  0  0  0
   -0.0095  -15.6479    1.5269 C   0  0  0  0  0  0  0  0  0  0  0  0
   -0.4252  -15.6039    2.8138 C   0  0  0  0  0  0  0  0  0  0  0  0
   -0.0531  -14.5427    3.6225 C   0  0  0  0  0  0  0  0  0  0  0  0
    0.3498   -6.5702    1.8785 O   0  0  0  0  0  0  0  0  0  0  0  0
    2.8224  -10.5189    4.6086 O   0  0  0  0  0  0  0  0  0  0  0  0
   -1.3710  -16.5463    3.4600 Cl  0  0  0  0  0  0  0  0  0  0  0  0
    2.3607  -12.9198    1.0824 O   0  0  0  0  0  0  0  0  0  0  0  0
   -0.4276  -16.8402    0.7570 N   0  0  0  0  0  0  0  0  0  0  0  0
   -0.1628  -17.1284   -0.2582 C   0  0  0  0  0  0  0  0  0  0  0  0
  1  2  1  0
  1  3  1  0
  3  4  1  0
  4  5  1  0
  2  6  1  0
  5  7  1  0
  7  8  1  0
  2 14  2  0
  4 15  2  0
 12 16  1  0
  9 17  1  0
 11 18  1  0
 18 19  1  0
  8  9  2  0
  9 10  1  0
 10 11  2  0
 11 12  1  0
 12 13  2  0
  8 13  1  0
M  END

$$$$
No_4086-/export/home/yangzhenyu/potential_scad_32_flow//YTHDC2/2024-12-06-03-22-00/
     RDKit          3D

 18 19  0  0  1  0  0  0  0  0999 V2000
    1.1787   -8.0297    3.5154 C   0  0  0  0  0  0  0  0  0  0  0  0
    1.1048   -9.2215    3.2892 C   0  0  0  0  0  0  0  0  0  0  0  0
    1.0239   -9.7790    2.0239 C   0  0  0  0  0  0  0  0  0  0  0  0
    1.0632  -11.2393    1.8978 C   0  0  1  0  0  0  0  0  0  0  0  0
    1.2664   -7.1133    2.3309 C   0  0  0  0  0  0  0  0  0  0  0  0
    1.2080   -7.6832    1.0760 C   0  0  0  0  0  0  0  0  0  0  0  0
    1.1535   -8.9837    0.8897 C   0  0  0  0  0  0  0  0  0  0  0  0
    0.7389  -11.7401    0.6551 C   0  0  0  0  0  0  0  0  0  0  0  0
    0.2563  -11.0892   -0.2743 C   0  0  0  0  0  0  0  0  0  0  0  0
    0.5269   -9.6128   -0.2828 C   0  0  0  0  0  0  0  0  0  0  0  0
    1.4572  -11.9629    2.9195 C   0  0  0  0  0  0  0  0  0  0  0  0
    1.8569  -11.7257    4.0402 C   0  0  0  0  0  0  0  0  0  0  0  0
    1.5171  -13.5077    2.6629 C   0  0  0  0  0  0  0  0  0  0  0  0
    0.8312  -14.3184    3.3912 C   0  0  0  0  0  0  0  0  0  0  0  0
    1.2431  -15.7324    2.9858 C   0  0  0  0  0  0  0  0  0  0  0  0
    0.3223   -8.9449   -1.3383 O   0  0  0  0  0  0  0  0  0  0  0  0
    2.3047  -16.2334    2.3651 C   0  0  0  0  0  0  0  0  0  0  0  0
    0.5169  -16.8076    3.7092 C   0  0  0  0  0  0  0  0  0  0  0  0
  3  4  1  0
  4  8  1  0
  7 10  1  0
  9 10  1  0
  4 11  1  6
 11 12  2  0
 11 13  1  0
 13 14  2  3
 14 15  1  0
 10 16  2  0
 15 17  1  0
 15 18  1  0
  8  9  1  0
  1  2  2  0
  2  3  1  0
  3  7  2  0
  6  7  1  0
  5  6  2  0
  1  5  1  0
M  END

$$$$
No_4087-/export/home/yangzhenyu/potential_scad_32_flow//YTHDC2/2024-12-06-03-22-00/
     RDKit          3D

 16 17  0  0  1  0  0  0  0  0999 V2000
    1.1787   -8.0297    3.5154 C   0  0  0  0  0  0  0  0  0  0  0  0
    1.0491   -6.8434    2.9820 C   0  0  0  0  0  0  0  0  0  0  0  0
    0.0950   -8.8404    3.2292 C   0  0  0  0  0  0  0  0  0  0  0  0
   -0.9173   -8.4596    2.5152 C   0  0  0  0  0  0  0  0  0  0  0  0
   -1.0331   -7.2162    2.0653 C   0  0  0  0  0  0  0  0  0  0  0  0
   -0.0105   -6.3168    2.3081 C   0  0  0  0  0  0  0  0  0  0  0  0
    0.1150   -4.9910    1.8495 C   0  0  2  0  0  0  0  0  0  0  0  0
   -0.1376   -4.7952    0.5550 C   0  0  0  0  0  0  0  0  0  0  0  0
   -0.2146   -3.3857    0.2341 C   0  0  0  0  0  0  0  0  0  0  0  0
    0.4473   -2.4574    0.8723 C   0  0  2  0  0  0  0  0  0  0  0  0
    0.7907   -2.6741    2.1866 C   0  0  0  0  0  0  0  0  0  0  0  0
    0.6797   -3.9846    2.6856 C   0  0  0  0  0  0  0  0  0  0  0  0
    0.1655  -10.2559    3.7266 Cl  0  0  0  0  0  0  0  0  0  0  0  0
    1.1038   -4.2679    3.9503 O   0  0  0  0  0  0  0  0  0  0  0  0
    0.4834   -1.1006    0.3868 Cl  0  0  0  0  0  0  0  0  0  0  0  0
   -2.0815   -9.2497    2.4524 F   0  0  0  0  0  0  0  0  0  0  0  0
  7  6  1  6
  7  8  1  0
  9 10  1  0
  7 12  1  0
 11 12  1  0
  3 13  1  0
 12 14  2  0
 10 15  1  1
  4 16  1  0
  8  9  1  0
 10 11  1  0
  1  2  2  0
  2  6  1  0
  5  6  2  0
  4  5  1  0
  3  4  2  0
  1  3  1  0
M  END

$$$$
No_4088-/export/home/yangzhenyu/potential_scad_32_flow//YTHDC2/2024-12-06-03-22-00/
     RDKit          3D

 19 20  0  0  0  0  0  0  0  0999 V2000
    1.1787   -8.0297    3.5154 C   0  0  0  0  0  0  0  0  0  0  0  0
    1.0491   -6.8434    2.9820 C   0  0  0  0  0  0  0  0  0  0  0  0
    0.9905   -9.0774    2.6527 C   0  0  0  0  0  0  0  0  0  0  0  0
    1.1655  -10.4663    3.1286 C   0  0  0  0  0  0  0  0  0  0  0  0
    1.2197  -11.4898    2.5831 C   0  0  0  0  0  0  0  0  0  0  0  0
    1.5411  -12.7330    3.1052 C   0  0  0  0  0  0  0  0  0  0  0  0
    0.9153   -6.2878    2.0417 C   0  0  0  0  0  0  0  0  0  0  0  0
    0.6620   -7.3309    0.9678 C   0  0  0  0  0  0  0  0  0  0  0  0
    0.7220   -8.7362    1.2745 C   0  0  0  0  0  0  0  0  0  0  0  0
    1.1071  -13.8557    2.5199 C   0  0  0  0  0  0  0  0  0  0  0  0
    1.4931  -15.1593    3.1888 C   0  0  0  0  0  0  0  0  0  0  0  0
    0.8617  -16.3074    2.7467 C   0  0  0  0  0  0  0  0  0  0  0  0
    1.4205  -17.4703    2.7016 C   0  0  0  0  0  0  0  0  0  0  0  0
    1.0392  -18.5974    2.9883 C   0  0  0  0  0  0  0  0  0  0  0  0
   -0.3116  -18.8061    3.1883 C   0  0  0  0  0  0  0  0  0  0  0  0
   -1.0883  -17.6713    3.3226 C   0  0  0  0  0  0  0  0  0  0  0  0
   -0.5304  -16.3851    3.1547 C   0  0  0  0  0  0  0  0  0  0  0  0
    0.6086   -9.6222    0.3156 C   0  0  0  0  0  0  0  0  0  0  0  0
    0.2453   -9.2094   -0.8662 C   0  0  0  0  0  0  0  0  0  0  0  0
  3  4  1  0
  4  5  2  3
  5  6  1  0
  6 10  2  3
 10 11  1  0
 11 12  1  0
  9 18  1  0
 18 19  1  0
 12 13  2  0
 13 14  1  0
 14 15  2  0
 15 16  1  0
 16 17  2  0
 12 17  1  0
  1  2  2  0
  2  7  1  0
  7  8  2  0
  8  9  1  0
  3  9  2  0
  1  3  1  0
M  END

$$$$
No_4089-/export/home/yangzhenyu/potential_scad_32_flow//YTHDC2/2024-12-06-03-22-00/
     RDKit          3D

 18 19  0  0  0  0  0  0  0  0999 V2000
    1.1787   -8.0297    3.5154 C   0  0  0  0  0  0  0  0  0  0  0  0
    1.1048   -9.2215    3.2892 C   0  0  0  0  0  0  0  0  0  0  0  0
    1.3627  -10.1721    4.3044 C   0  0  0  0  0  0  0  0  0  0  0  0
    1.0682  -11.5187    4.0618 C   0  0  0  0  0  0  0  0  0  0  0  0
    0.6332  -11.9655    2.9682 C   0  0  0  0  0  0  0  0  0  0  0  0
    0.4776  -11.1308    1.9203 C   0  0  0  0  0  0  0  0  0  0  0  0
    0.7470   -9.8274    2.0368 C   0  0  0  0  0  0  0  0  0  0  0  0
    0.5535   -7.1314    2.6861 C   0  0  0  0  0  0  0  0  0  0  0  0
    0.2950   -7.6000    1.3276 C   0  0  0  0  0  0  0  0  0  0  0  0
    0.2692   -8.8631    1.0973 C   0  0  0  0  0  0  0  0  0  0  0  0
   -0.0070   -6.7080    0.3888 C   0  0  0  0  0  0  0  0  0  0  0  0
   -1.3264   -6.4521    0.2332 O   0  0  0  0  0  0  0  0  0  0  0  0
    0.4851  -13.3883    2.7225 C   0  0  0  0  0  0  0  0  0  0  0  0
    0.7982  -14.0126    1.8455 C   0  0  0  0  0  0  0  0  0  0  0  0
    2.0723  -13.8949    1.2070 C   0  0  0  0  0  0  0  0  0  0  0  0
    0.1406  -15.0428    1.1349 C   0  0  0  0  0  0  0  0  0  0  0  0
    0.5217  -15.6983    0.1266 C   0  0  0  0  0  0  0  0  0  0  0  0
    1.0048  -14.8490   -0.9004 C   0  0  0  0  0  0  0  0  0  0  0  0
  9 11  1  0
 11 12  2  0
  5 13  1  0
 13 14  1  0
 14 15  1  0
 14 16  1  0
 16 17  1  0
 17 18  1  0
  2  3  1  0
  3  4  2  0
  4  5  1  0
  5  6  2  0
  6  7  1  0
  1  2  2  0
  2  7  1  0
  7 10  2  0
  9 10  1  0
  8  9  2  0
  1  8  1  0
M  END

$$$$
No_4090-/export/home/yangzhenyu/potential_scad_32_flow//YTHDC2/2024-12-06-03-22-00/
     RDKit          3D

 20 21  0  0  1  0  0  0  0  0999 V2000
    1.1787   -8.0297    3.5154 C   0  0  0  0  0  0  0  0  0  0  0  0
    1.0491   -6.8434    2.9820 C   0  0  0  0  0  0  0  0  0  0  0  0
    0.9905   -9.0774    2.6527 C   0  0  0  0  0  0  0  0  0  0  0  0
    0.7897   -8.9519    1.3691 C   0  0  0  0  0  0  0  0  0  0  0  0
    0.7018   -7.7198    0.7892 C   0  0  0  0  0  0  0  0  0  0  0  0
    0.8918   -6.5957    1.6117 C   0  0  0  0  0  0  0  0  0  0  0  0
    1.0998  -10.4710    3.2437 C   0  0  2  0  0  0  0  0  0  0  0  0
    2.1917  -10.8879    3.7399 C   0  0  0  0  0  0  0  0  0  0  0  0
    0.8624   -5.2493    1.2482 C   0  0  0  0  0  0  0  0  0  0  0  0
    0.4931  -11.5180    2.4119 C   0  0  0  0  0  0  0  0  0  0  0  0
    1.1937  -12.4551    1.9649 C   0  0  0  0  0  0  0  0  0  0  0  0
    1.1448  -13.6909    2.3721 C   0  0  0  0  0  0  0  0  0  0  0  0
    1.2514  -14.6691    1.9034 O   0  0  0  0  0  0  0  0  0  0  0  0
    0.9111  -13.8278    3.8337 O   0  0  0  0  0  0  0  0  0  0  0  0
    1.5880   -4.3446    1.8848 C   0  0  0  0  0  0  0  0  0  0  0  0
    1.4526   -2.9437    1.4426 N   0  0  0  0  0  0  0  0  0  0  0  0
    2.2789  -11.0724    5.1554 O   0  0  0  0  0  0  0  0  0  0  0  0
    3.4863  -10.6487    3.3926 O   0  0  0  0  0  0  0  0  0  0  0  0
    0.7430   -2.8995    0.3479 C   0  0  0  0  0  0  0  0  0  0  0  0
    0.1346   -4.3298    0.2844 N   0  0  0  0  0  0  0  0  0  0  0  0
  3  7  1  0
  7  8  1  0
  6  9  1  0
  7 10  1  6
 10 11  1  0
 11 12  1  0
 12 13  2  0
 12 14  1  0
  9 15  2  0
 15 16  1  0
  8 17  1  0
  8 18  2  0
 16 19  2  0
  9 20  1  0
 19 20  1  0
  1  2  2  0
  2  6  1  0
  5  6  2  0
  4  5  1  0
  3  4  2  0
  1  3  1  0
M  END

$$$$
No_4091-/export/home/yangzhenyu/potential_scad_32_flow//YTHDC2/2024-12-06-03-22-00/
     RDKit          3D

 20 21  0  0  0  0  0  0  0  0999 V2000
    1.1787   -8.0297    3.5154 C   0  0  0  0  0  0  0  0  0  0  0  0
    1.1048   -9.2215    3.2892 C   0  0  0  0  0  0  0  0  0  0  0  0
    1.4683  -10.2314    4.1915 C   0  0  0  0  0  0  0  0  0  0  0  0
    0.8445   -6.9865    2.5175 C   0  0  0  0  0  0  0  0  0  0  0  0
    0.3587   -7.3973    1.3953 C   0  0  0  0  0  0  0  0  0  0  0  0
    0.1901   -8.6971    1.0711 C   0  0  0  0  0  0  0  0  0  0  0  0
    0.5759   -9.6648    1.9442 C   0  0  0  0  0  0  0  0  0  0  0  0
    2.7055  -10.5235    4.4262 N   0  0  0  0  0  0  0  0  0  0  0  0
    0.4965  -10.9387    4.7782 N   0  0  0  0  0  0  0  0  0  0  0  0
   -0.2002   -9.1477   -0.1697 C   0  0  0  0  0  0  0  0  0  0  0  0
   -1.1334  -10.1745   -0.1930 C   0  0  0  0  0  0  0  0  0  0  0  0
   -0.8653  -11.2199    0.6277 C   0  0  0  0  0  0  0  0  0  0  0  0
   -0.0249  -10.9307    1.8136 C   0  0  0  0  0  0  0  0  0  0  0  0
    1.1982   -5.5870    2.7920 Cl  0  0  0  0  0  0  0  0  0  0  0  0
   -1.6885  -10.5264   -1.4558 C   0  0  0  0  0  0  0  0  0  0  0  0
   -1.4492   -9.8320   -2.6102 O   0  0  0  0  0  0  0  0  0  0  0  0
   -2.5917  -11.4587   -1.5065 N   0  0  0  0  0  0  0  0  0  0  0  0
   -3.3171  -11.7306   -2.7334 C   0  0  0  0  0  0  0  0  0  0  0  0
   -4.1927  -12.7488   -2.5224 C   0  0  0  0  0  0  0  0  0  0  0  0
    3.4422  -10.0049    3.9697 H   0  0  0  0  0  0  0  0  0  0  0  0
  2  3  1  0
  3  8  2  0
  3  9  1  0
  4 14  1  0
 11 15  1  0
 15 16  2  0
 15 17  1  0
 17 18  1  0
 18 19  1  0
  1  2  2  0
  2  7  1  0
  5  6  1  0
  4  5  2  0
  1  4  1  0
  6  7  2  0
  7 13  1  0
 12 13  2  0
 11 12  1  0
 10 11  2  0
  6 10  1  0
  8 20  1  0
M  END

$$$$
No_4092-/export/home/yangzhenyu/potential_scad_32_flow//YTHDC2/2024-12-06-03-22-00/
     RDKit          3D

 19 19  0  0  0  0  0  0  0  0999 V2000
    1.1787   -8.0297    3.5154 C   0  0  0  0  0  0  0  0  0  0  0  0
    1.0491   -6.8434    2.9820 C   0  0  0  0  0  0  0  0  0  0  0  0
    0.9905   -9.0774    2.6527 C   0  0  0  0  0  0  0  0  0  0  0  0
    0.7897   -8.9519    1.3691 C   0  0  0  0  0  0  0  0  0  0  0  0
    0.7018   -7.7198    0.7892 C   0  0  0  0  0  0  0  0  0  0  0  0
    0.8918   -6.5957    1.6117 C   0  0  0  0  0  0  0  0  0  0  0  0
    1.0711  -10.4814    3.2282 C   0  0  0  0  0  0  0  0  0  0  0  0
    1.1227  -11.5770    2.4616 C   0  0  0  0  0  0  0  0  0  0  0  0
    1.1500  -12.9052    3.0782 C   0  0  0  0  0  0  0  0  0  0  0  0
    1.8689  -13.5339    3.4230 C   0  0  0  0  0  0  0  0  0  0  0  0
    3.2105  -13.1742    2.9919 C   0  0  0  0  0  0  0  0  0  0  0  0
    0.8503   -5.2778    1.1564 O   0  0  0  0  0  0  0  0  0  0  0  0
    1.1505   -4.2165    1.9008 C   0  0  0  0  0  0  0  0  0  0  0  0
    3.4490  -13.7040    1.7995 C   0  0  0  0  0  0  0  0  0  0  0  0
    3.2551  -15.0566    1.4937 O   0  0  0  0  0  0  0  0  0  0  0  0
    3.3514  -13.1318    0.6527 O   0  0  0  0  0  0  0  0  0  0  0  0
    0.6539   -3.2288    1.5367 C   0  0  0  0  0  0  0  0  0  0  0  0
   -0.0608   -3.0728    0.3493 C   0  0  0  0  0  0  0  0  0  0  0  0
   -0.1211   -2.4678    2.6698 C   0  0  0  0  0  0  0  0  0  0  0  0
  3  7  1  0
  7  8  2  3
  8  9  1  0
  9 10  2  3
 10 11  1  0
  6 12  1  0
 12 13  1  0
 11 14  1  0
 14 15  1  0
 14 16  2  0
 13 17  1  0
 17 18  1  0
 17 19  1  0
  1  2  2  0
  2  6  1  0
  5  6  2  0
  4  5  1  0
  3  4  2  0
  1  3  1  0
M  END

$$$$
No_4093-/export/home/yangzhenyu/potential_scad_32_flow//YTHDC2/2024-12-06-03-22-00/
     RDKit          3D

 10 10  0  0  0  0  0  0  0  0999 V2000
    1.1787   -8.0297    3.5154 C   0  0  0  0  0  0  0  0  0  0  0  0
    1.1048   -9.2215    3.2892 C   0  0  0  0  0  0  0  0  0  0  0  0
    1.2339   -9.7611    2.0189 C   0  0  0  0  0  0  0  0  0  0  0  0
    1.4306   -8.9466    1.1170 C   0  0  0  0  0  0  0  0  0  0  0  0
    1.7533   -9.5159   -0.2897 C   0  0  0  0  0  0  0  0  0  0  0  0
    1.4215   -7.0791    2.4025 C   0  0  0  0  0  0  0  0  0  0  0  0
    1.5409   -7.5780    1.1516 C   0  0  0  0  0  0  0  0  0  0  0  0
    2.0997   -8.7639   -1.2659 O   0  0  0  0  0  0  0  0  0  0  0  0
    1.5597  -10.8106   -0.4632 O   0  0  0  0  0  0  0  0  0  0  0  0
    0.9901  -10.1809    4.4072 C   0  0  0  0  0  0  0  0  0  0  0  0
  4  5  1  0
  5  8  2  0
  5  9  1  0
  2 10  1  0
  1  2  2  0
  2  3  1  0
  3  4  2  0
  4  7  1  0
  6  7  2  0
  1  6  1  0
M  END

$$$$
No_4094-/export/home/yangzhenyu/potential_scad_32_flow//YTHDC2/2024-12-06-03-22-00/
     RDKit          3D

 13 14  0  0  0  0  0  0  0  0999 V2000
    1.1787   -8.0297    3.5154 C   0  0  0  0  0  0  0  0  0  0  0  0
    1.1048   -9.2215    3.2892 C   0  0  0  0  0  0  0  0  0  0  0  0
    1.3627  -10.1721    4.3044 C   0  0  0  0  0  0  0  0  0  0  0  0
    1.0682  -11.5187    4.0618 C   0  0  0  0  0  0  0  0  0  0  0  0
    0.6332  -11.9655    2.9682 C   0  0  0  0  0  0  0  0  0  0  0  0
    0.4776  -11.1308    1.9203 C   0  0  0  0  0  0  0  0  0  0  0  0
    0.7470   -9.8274    2.0368 C   0  0  0  0  0  0  0  0  0  0  0  0
    0.5536   -7.1314    2.6861 N   0  0  0  0  0  0  0  0  0  0  0  0
    0.3069   -7.6119    1.3920 C   0  0  0  0  0  0  0  0  0  0  0  0
    0.2579   -8.8240    1.1187 C   0  0  0  0  0  0  0  0  0  0  0  0
    0.4765  -13.3941    2.7003 C   0  0  0  0  0  0  0  0  0  0  0  0
    1.3617  -14.3251    3.1270 C   0  0  0  0  0  0  0  0  0  0  0  0
    1.4973  -15.5553    2.5488 C   0  0  0  0  0  0  0  0  0  0  0  0
  5 11  1  0
 11 12  1  0
 12 13  1  0
  2  3  1  0
  3  4  2  0
  4  5  1  0
  5  6  2  0
  6  7  1  0
  1  2  2  0
  2  7  1  0
  7 10  2  0
  9 10  1  0
  8  9  2  0
  1  8  1  0
M  END

$$$$
No_4095-/export/home/yangzhenyu/potential_scad_32_flow//YTHDC2/2024-12-06-03-22-00/
     RDKit          3D

 18 20  0  0  0  0  0  0  0  0999 V2000
    1.1787   -8.0297    3.5154 N   0  0  0  0  0  0  0  0  0  0  0  0
    1.0818   -9.0751    3.2053 C   0  0  0  0  0  0  0  0  0  0  0  0
    0.7576   -9.3725    1.9159 C   0  0  0  0  0  0  0  0  0  0  0  0
    0.8823   -8.4917    1.0547 C   0  0  0  0  0  0  0  0  0  0  0  0
    1.4631   -7.3107    1.2451 C   0  0  0  0  0  0  0  0  0  0  0  0
    1.6470   -6.9326    2.5669 C   0  0  0  0  0  0  0  0  0  0  0  0
    0.8237  -10.1305    4.2407 C   0  0  0  0  0  0  0  0  0  0  0  0
    0.5683  -11.4514    3.6849 C   0  0  0  0  0  0  0  0  0  0  0  0
    0.4031  -11.7395    2.5410 C   0  0  0  0  0  0  0  0  0  0  0  0
    0.5649  -10.7352    1.5387 C   0  0  0  0  0  0  0  0  0  0  0  0
    0.1823  -13.1159    2.0493 C   0  0  0  0  0  0  0  0  0  0  0  0
    1.1461  -13.9835    2.2904 C   0  0  0  0  0  0  0  0  0  0  0  0
    0.9990  -15.2912    1.8147 C   0  0  0  0  0  0  0  0  0  0  0  0
   -0.0407  -15.6826    1.2013 C   0  0  0  0  0  0  0  0  0  0  0  0
   -1.0751  -14.8214    1.0335 C   0  0  0  0  0  0  0  0  0  0  0  0
   -0.9022  -13.5105    1.4025 C   0  0  0  0  0  0  0  0  0  0  0  0
    1.8024   -5.5973    3.0228 C   0  0  0  0  0  0  0  0  0  0  0  0
    0.8851   -8.7303   -0.4187 C   0  0  0  0  0  0  0  0  0  0  0  0
  9 11  1  0
  6 17  1  0
  4 18  1  0
 11 12  2  0
 12 13  1  0
 13 14  2  0
 14 15  1  0
 15 16  2  0
 11 16  1  0
  1  2  2  0
  3  4  2  0
  4  5  1  0
  5  6  2  0
  1  6  1  0
  2  3  1  0
  3 10  1  0
  9 10  2  0
  8  9  1  0
  7  8  2  0
  2  7  1  0
M  END

$$$$
No_4096-/export/home/yangzhenyu/potential_scad_32_flow//YTHDC2/2024-12-06-03-22-00/
     RDKit          3D

 17 18  0  0  0  0  0  0  0  0999 V2000
    1.1787   -8.0297    3.5154 C   0  0  0  0  0  0  0  0  0  0  0  0
    1.0491   -6.8434    2.9820 C   0  0  0  0  0  0  0  0  0  0  0  0
    0.9905   -9.0774    2.6527 C   0  0  0  0  0  0  0  0  0  0  0  0
    0.7897   -8.9519    1.3691 C   0  0  0  0  0  0  0  0  0  0  0  0
    0.7018   -7.7198    0.7892 C   0  0  0  0  0  0  0  0  0  0  0  0
    0.8918   -6.5957    1.6117 C   0  0  0  0  0  0  0  0  0  0  0  0
    1.0998  -10.4710    3.2437 C   0  0  0  0  0  0  0  0  0  0  0  0
    1.3102  -11.5554    2.5214 C   0  0  0  0  0  0  0  0  0  0  0  0
    1.4257  -12.8124    3.1919 C   0  0  0  0  0  0  0  0  0  0  0  0
    0.9222  -13.9339    2.5039 C   0  0  0  0  0  0  0  0  0  0  0  0
    1.2953  -15.2608    3.1588 C   0  0  0  0  0  0  0  0  0  0  0  0
    0.8538   -5.2538    1.2443 O   0  0  0  0  0  0  0  0  0  0  0  0
    0.9526  -16.4069    2.5673 C   0  0  0  0  0  0  0  0  0  0  0  0
    0.2111  -16.4687    1.4875 C   0  0  0  0  0  0  0  0  0  0  0  0
   -0.1160  -15.3725    0.8395 C   0  0  0  0  0  0  0  0  0  0  0  0
    0.1575  -14.1331    1.3065 C   0  0  0  0  0  0  0  0  0  0  0  0
   -0.1855  -13.0521    0.6230 C   0  0  0  0  0  0  0  0  0  0  0  0
  1  2  1  0
  3  4  1  0
  2  6  1  0
  5  6  1  0
  3  7  1  0
  7  8  2  3
  8  9  1  0
  9 10  1  0
  6 12  2  0
 16 17  1  0
  1  3  1  0
  4  5  1  0
 10 11  2  0
 11 13  1  0
 13 14  2  0
 14 15  1  0
 15 16  2  0
 10 16  1  0
M  END

$$$$
No_4097-/export/home/yangzhenyu/potential_scad_32_flow//YTHDC2/2024-12-06-03-22-00/
     RDKit          3D

 20 20  0  0  1  0  0  0  0  0999 V2000
    1.1787   -8.0297    3.5154 O   0  0  0  0  0  0  0  0  0  0  0  0
    0.9969   -8.9689    3.0048 C   0  0  1  0  0  0  0  0  0  0  0  0
    0.9976   -8.9567    1.6341 C   0  0  2  0  0  0  0  0  0  0  0  0
    1.6062   -9.9071    0.9292 C   0  0  0  0  0  0  0  0  0  0  0  0
    2.1191  -10.9757    1.6503 C   0  0  0  0  0  0  0  0  0  0  0  0
    2.1177  -10.9891    3.0403 C   0  0  0  0  0  0  0  0  0  0  0  0
    1.5441   -9.8905    3.6897 C   0  0  0  0  0  0  0  0  0  0  0  0
    0.5010   -7.8164    1.0436 C   0  0  0  0  0  0  0  0  0  0  0  0
   -0.3627   -7.9721    0.1048 O   0  0  0  0  0  0  0  0  0  0  0  0
    0.5009   -6.5330    1.4237 N   0  0  0  0  0  0  0  0  0  0  0  0
    1.6890   -5.9820    2.1613 C   0  0  0  0  0  0  0  0  0  0  0  0
    1.1485   -4.9642    3.0669 C   0  0  0  0  0  0  0  0  0  0  0  0
    1.6017  -10.1102    5.0270 O   0  0  0  0  0  0  0  0  0  0  0  0
    0.6724   -3.7476    2.6354 C   0  0  0  0  0  0  0  0  0  0  0  0
    1.2958   -3.0572    1.7737 C   0  0  0  0  0  0  0  0  0  0  0  0
    0.7120   -2.7172    0.6465 C   0  0  0  0  0  0  0  0  0  0  0  0
    1.0441   -1.6052   -0.0444 C   0  0  0  0  0  0  0  0  0  0  0  0
    0.0199   -0.6673   -0.4257 C   0  0  0  0  0  0  0  0  0  0  0  0
   -0.9508   -1.0954   -1.3722 C   0  0  0  0  0  0  0  0  0  0  0  0
   -1.6525   -0.0754   -2.0576 C   0  0  0  0  0  0  0  0  0  0  0  0
  2  1  1  1
  2  3  1  0
  4  5  1  0
  2  7  1  0
  6  7  1  0
  3  8  1  1
  8  9  2  0
  8 10  1  0
 10 11  1  0
 11 12  1  0
  7 13  2  0
 12 14  1  0
 14 15  1  0
 15 16  1  0
 16 17  1  0
 17 18  1  0
 18 19  1  0
 19 20  1  0
  3  4  1  0
  5  6  1  0
M  END

$$$$
No_4098-/export/home/yangzhenyu/potential_scad_32_flow//YTHDC2/2024-12-06-03-22-00/
     RDKit          3D

 19 20  0  0  1  0  0  0  0  0999 V2000
    1.1787   -8.0297    3.5154 C   0  0  0  0  0  0  0  0  0  0  0  0
    1.0491   -6.8434    2.9820 C   0  0  0  0  0  0  0  0  0  0  0  0
    0.9905   -9.0774    2.6527 C   0  0  0  0  0  0  0  0  0  0  0  0
    0.7897   -8.9519    1.3691 C   0  0  0  0  0  0  0  0  0  0  0  0
    0.7018   -7.7198    0.7892 C   0  0  0  0  0  0  0  0  0  0  0  0
    0.8918   -6.5957    1.6117 C   0  0  0  0  0  0  0  0  0  0  0  0
    1.0600  -10.5680    3.3321 C   0  0  2  0  0  0  0  0  0  0  0  0
    2.1422  -11.0089    3.6867 C   0  0  0  0  0  0  0  0  0  0  0  0
    0.8986   -5.2530    1.1685 O   0  0  0  0  0  0  0  0  0  0  0  0
    0.3651  -11.5290    2.4693 C   0  0  0  0  0  0  0  0  0  0  0  0
    1.0511  -12.4440    1.9489 C   0  0  1  0  0  0  0  0  0  0  0  0
    2.3488  -12.8441    2.4614 C   0  0  1  0  0  0  0  0  0  0  0  0
    2.8228  -12.0737    3.4425 N   0  0  0  0  0  0  0  0  0  0  0  0
    2.7522  -14.1241    2.3011 N   0  0  0  0  0  0  0  0  0  0  0  0
    2.7582  -10.2378    4.8098 O   0  0  0  0  0  0  0  0  0  0  0  0
    0.4532  -13.5253    1.1432 C   0  0  0  0  0  0  0  0  0  0  0  0
   -0.6482  -13.1187    0.4155 C   0  0  0  0  0  0  0  0  0  0  0  0
   -0.6198  -12.3775   -0.6549 C   0  0  0  0  0  0  0  0  0  0  0  0
   -1.7379  -12.1718   -1.4079 C   0  0  0  0  0  0  0  0  0  0  0  0
  1  2  1  0
  3  4  1  0
  2  6  1  0
  5  6  1  0
  7  3  1  6
  7  8  1  0
  6  9  2  0
  7 10  1  0
 11 12  1  0
  8 13  1  0
 12 13  1  0
  8 15  2  0
 11 16  1  1
 16 17  1  0
 17 18  1  0
 18 19  2  0
 12 14  1  1
 10 11  1  0
  1  3  1  0
  4  5  1  0
M  END

$$$$
No_4099-/export/home/yangzhenyu/potential_scad_32_flow//YTHDC2/2024-12-06-03-22-00/
     RDKit          3D

 13 12  0  0  1  0  0  0  0  0999 V2000
    1.1787   -8.0297    3.5154 F   0  0  0  0  0  0  0  0  0  0  0  0
    0.9085   -8.9213    2.9287 C   0  0  1  0  0  0  0  0  0  0  0  0
    0.9042   -8.7651    1.6474 C   0  0  2  0  0  0  0  0  0  0  0  0
    0.9379   -7.5533    1.0368 C   0  0  0  0  0  0  0  0  0  0  0  0
    1.5969  -10.1344    3.4162 C   0  0  0  0  0  0  0  0  0  0  0  0
    1.8061  -10.3913    4.5450 C   0  0  0  0  0  0  0  0  0  0  0  0
    0.3975   -9.6993    0.7911 C   0  0  0  0  0  0  0  0  0  0  0  0
    1.1794  -10.3127   -0.0994 C   0  0  0  0  0  0  0  0  0  0  0  0
    1.3854  -11.4677   -0.0207 O   0  0  0  0  0  0  0  0  0  0  0  0
    1.8180   -7.3405    0.0388 O   0  0  0  0  0  0  0  0  0  0  0  0
    0.6226   -6.3122    1.7983 O   0  0  0  0  0  0  0  0  0  0  0  0
    2.5189  -11.7068    4.8687 C   0  0  0  0  0  0  0  0  0  0  0  0
    1.9617   -9.5115   -0.8726 O   0  0  0  0  0  0  0  0  0  0  0  0
  2  1  1  1
  2  3  1  0
  3  4  1  0
  2  5  1  0
  5  6  2  3
  3  7  1  1
  7  8  1  0
  8  9  1  0
  4 10  2  0
  4 11  1  0
  6 12  1  0
  8 13  2  0
M  END

$$$$
No_4100-/export/home/yangzhenyu/potential_scad_32_flow//YTHDC2/2024-12-06-03-22-00/
     RDKit          3D

 18 19  0  0  1  0  0  0  0  0999 V2000
    1.1787   -8.0297    3.5154 C   0  0  0  0  0  0  0  0  0  0  0  0
    1.1048   -9.2215    3.2892 C   0  0  0  0  0  0  0  0  0  0  0  0
    1.2339   -9.7611    2.0189 C   0  0  0  0  0  0  0  0  0  0  0  0
    1.1954  -11.2312    1.8661 C   0  0  0  0  0  0  0  0  0  0  0  0
    1.2996  -11.5815    0.5387 C   0  0  0  0  0  0  0  0  0  0  0  0
    0.9270   -7.0442    2.4967 C   0  0  0  0  0  0  0  0  0  0  0  0
    0.9803   -7.6034    1.0978 C   0  0  0  0  0  0  0  0  0  0  0  0
    1.1096   -8.9244    0.8670 C   0  0  0  0  0  0  0  0  0  0  0  0
    1.0761  -11.9547    2.9012 C   0  0  0  0  0  0  0  0  0  0  0  0
    1.0992  -13.3196    2.5936 C   0  0  0  0  0  0  0  0  0  0  0  0
    1.1687  -13.9042    1.4254 C   0  0  0  0  0  0  0  0  0  0  0  0
    1.2869  -13.0055    0.3687 C   0  0  0  0  0  0  0  0  0  0  0  0
    1.0014   -5.4302    2.6838 C   0  0  2  0  0  0  0  0  0  0  0  0
    1.7685   -5.0540    3.5632 N   0  0  0  0  0  0  0  0  0  0  0  0
    0.1703   -4.8101    2.0069 C   0  0  0  0  0  0  0  0  0  0  0  0
    0.6043   -3.5249    1.6565 O   0  0  0  0  0  0  0  0  0  0  0  0
   -1.1671   -5.0573    1.8673 O   0  0  0  0  0  0  0  0  0  0  0  0
    1.0203  -14.2928    3.6911 O   0  0  0  0  0  0  0  0  0  0  0  0
  3  4  1  0
  6 13  1  0
 13 14  1  1
 13 15  1  0
 15 16  2  0
 15 17  1  0
 10 18  1  0
  4  5  2  0
  5 12  1  0
 11 12  2  0
 10 11  1  0
  9 10  2  0
  4  9  1  0
  1  2  2  0
  2  3  1  0
  3  8  2  0
  7  8  1  0
  6  7  2  0
  1  6  1  0
M  END

$$$$
No_4101-/export/home/yangzhenyu/potential_scad_32_flow//YTHDC2/2024-12-06-03-22-00/
     RDKit          3D

 19 21  0  0  1  0  0  0  0  0999 V2000
    1.1787   -8.0297    3.5154 C   0  0  0  0  0  0  0  0  0  0  0  0
    1.0491   -6.8434    2.9820 C   0  0  0  0  0  0  0  0  0  0  0  0
    1.9985   -8.9840    2.8958 C   0  0  1  0  0  0  0  0  0  0  0  0
    1.9135  -10.3404    3.6266 C   0  0  0  0  0  0  0  0  0  0  0  0
    1.3291  -11.3908    3.0222 C   0  0  0  0  0  0  0  0  0  0  0  0
    1.0344  -11.3281    1.7959 C   0  0  0  0  0  0  0  0  0  0  0  0
    1.7340   -5.8103    3.4001 C   0  0  0  0  0  0  0  0  0  0  0  0
    1.5022  -10.4226    0.9061 C   0  0  0  0  0  0  0  0  0  0  0  0
    1.7249   -9.0882    1.5094 C   0  0  0  0  0  0  0  0  0  0  0  0
    1.8088   -8.1032    0.6257 O   0  0  0  0  0  0  0  0  0  0  0  0
    1.4925   -4.5739    2.6772 N   0  0  0  0  0  0  0  0  0  0  0  0
    1.0834  -12.4826    3.7614 C   0  0  0  0  0  0  0  0  0  0  0  0
    0.9309  -13.7033    2.8900 C   0  0  2  0  0  0  0  0  0  0  0  0
   -0.1634  -14.2848    2.6904 C   0  0  0  0  0  0  0  0  0  0  0  0
   -0.0996  -15.5493    1.9150 C   0  0  0  0  0  0  0  0  0  0  0  0
    1.4648  -15.9129    2.0721 C   0  0  0  0  0  0  0  0  0  0  0  0
    2.0769  -14.7165    2.6806 C   0  0  0  0  0  0  0  0  0  0  0  0
    0.5167   -4.5587    1.8604 C   0  0  0  0  0  0  0  0  0  0  0  0
    0.2870   -6.1117    1.9075 C   0  0  0  0  0  0  0  0  0  0  0  0
  1  2  1  0
  3  1  1  1
  3  4  1  0
  4  5  1  0
  5  6  1  0
  2  7  1  0
  6  8  1  0
  3  9  1  0
  8  9  1  0
  9 10  2  0
  7 11  1  0
  5 12  1  0
 13 12  1  1
 13 14  1  0
 14 15  2  0
 15 16  1  0
 13 17  1  0
 16 17  1  0
 11 18  2  0
  2 19  1  0
 18 19  1  0
M  END

$$$$
No_4102-/export/home/yangzhenyu/potential_scad_32_flow//YTHDC2/2024-12-06-03-22-00/
     RDKit          3D

 19 20  0  0  0  0  0  0  0  0999 V2000
    1.1787   -8.0297    3.5154 C   0  0  0  0  0  0  0  0  0  0  0  0
    1.1048   -9.2215    3.2892 Cl  0  0  0  0  0  0  0  0  0  0  0  0
    2.0534   -7.0960    2.7571 C   0  0  0  0  0  0  0  0  0  0  0  0
    1.1155   -6.3990    1.7806 N   0  0  0  0  0  0  0  0  0  0  0  0
   -0.0408   -6.0330    1.9222 C   0  0  0  0  0  0  0  0  0  0  0  0
   -0.7248   -6.7966    2.8659 C   0  0  0  0  0  0  0  0  0  0  0  0
   -0.2315   -7.7569    3.5822 C   0  0  0  0  0  0  0  0  0  0  0  0
   -0.5499   -4.9718    1.2603 C   0  0  0  0  0  0  0  0  0  0  0  0
   -0.0625   -3.7955    1.1796 C   0  0  0  0  0  0  0  0  0  0  0  0
   -0.6366   -2.8663    0.4754 C   0  0  0  0  0  0  0  0  0  0  0  0
   -1.6770   -3.1274   -0.4199 C   0  0  0  0  0  0  0  0  0  0  0  0
   -2.2491   -4.2663   -0.3700 C   0  0  0  0  0  0  0  0  0  0  0  0
   -1.6896   -5.3423    0.4128 C   0  0  0  0  0  0  0  0  0  0  0  0
   -2.2915   -2.1198   -1.1908 O   0  0  0  0  0  0  0  0  0  0  0  0
   -3.2628   -4.5902   -1.1920 C   0  0  0  0  0  0  0  0  0  0  0  0
   -3.2045   -5.3127   -2.2866 N   0  0  0  0  0  0  0  0  0  0  0  0
   -2.2426   -4.9444   -3.2005 C   0  0  0  0  0  0  0  0  0  0  0  0
   -2.0337   -3.9655   -3.7478 C   0  0  0  0  0  0  0  0  0  0  0  0
   -2.5778   -3.5926   -4.9097 C   0  0  0  0  0  0  0  0  0  0  0  0
  1  2  1  0
  5  8  1  0
 11 14  1  0
 12 15  1  0
 15 16  1  0
 16 17  1  0
 17 18  1  0
 18 19  2  0
  8  9  2  0
  9 10  1  0
 10 11  2  0
 11 12  1  0
 12 13  2  0
  8 13  1  0
  1  3  2  0
  3  4  1  0
  4  5  2  0
  5  6  1  0
  6  7  2  0
  1  7  1  0
M  END

$$$$
No_4103-/export/home/yangzhenyu/potential_scad_32_flow//YTHDC2/2024-12-06-03-22-00/
     RDKit          3D

 18 19  0  0  0  0  0  0  0  0999 V2000
    1.1787   -8.0297    3.5154 C   0  0  0  0  0  0  0  0  0  0  0  0
    1.0491   -6.8434    2.9820 C   0  0  0  0  0  0  0  0  0  0  0  0
    1.9985   -8.9840    2.8958 C   0  0  0  0  0  0  0  0  0  0  0  0
    1.9135  -10.3404    3.6266 C   0  0  0  0  0  0  0  0  0  0  0  0
    0.7479  -10.9191    3.7202 C   0  0  0  0  0  0  0  0  0  0  0  0
    1.8085   -5.7988    3.2380 C   0  0  0  0  0  0  0  0  0  0  0  0
    0.6998  -12.3189    3.4968 C   0  0  0  0  0  0  0  0  0  0  0  0
   -0.2265  -12.7751    2.6305 C   0  0  0  0  0  0  0  0  0  0  0  0
   -0.2186  -14.2006    2.3920 C   0  0  0  0  0  0  0  0  0  0  0  0
   -1.2836  -14.7774    1.9301 C   0  0  0  0  0  0  0  0  0  0  0  0
   -2.2286  -14.0388    1.3805 C   0  0  0  0  0  0  0  0  0  0  0  0
   -2.2286  -12.6572    1.4550 C   0  0  0  0  0  0  0  0  0  0  0  0
   -1.1402  -12.0382    2.0497 C   0  0  0  0  0  0  0  0  0  0  0  0
    1.4741   -4.6326    2.4925 C   0  0  0  0  0  0  0  0  0  0  0  0
    0.6043   -4.7260    1.3380 C   0  0  0  0  0  0  0  0  0  0  0  0
    0.0152   -5.8398    1.0336 C   0  0  0  0  0  0  0  0  0  0  0  0
    0.1582   -6.9623    1.8030 C   0  0  0  0  0  0  0  0  0  0  0  0
   -0.5386   -8.0442    1.5853 C   0  0  0  0  0  0  0  0  0  0  0  0
  1  2  1  0
  1  3  1  0
  3  4  1  0
  4  5  1  0
  5  7  1  0
 17 18  1  0
  7  8  1  0
  2  6  2  0
  6 14  1  0
 14 15  2  0
 15 16  1  0
 16 17  2  0
  2 17  1  0
  8  9  2  0
  9 10  1  0
 10 11  2  0
 11 12  1  0
 12 13  2  0
  8 13  1  0
M  END

$$$$
No_4104-/export/home/yangzhenyu/potential_scad_32_flow//YTHDC2/2024-12-06-03-22-00/
     RDKit          3D

 18 18  0  0  1  0  0  0  0  0999 V2000
    1.1787   -8.0297    3.5154 C   0  0  0  0  0  0  0  0  0  0  0  0
    1.0491   -6.8434    2.9820 C   0  0  0  0  0  0  0  0  0  0  0  0
    0.9905   -9.0774    2.6527 C   0  0  0  0  0  0  0  0  0  0  0  0
    0.7897   -8.9519    1.3691 C   0  0  0  0  0  0  0  0  0  0  0  0
    0.7018   -7.7198    0.7892 C   0  0  0  0  0  0  0  0  0  0  0  0
    0.8918   -6.5957    1.6117 C   0  0  0  0  0  0  0  0  0  0  0  0
    1.0998  -10.4710    3.2437 C   0  0  0  0  0  0  0  0  0  0  0  0
    1.3102  -11.5554    2.5214 C   0  0  0  0  0  0  0  0  0  0  0  0
    1.4257  -12.8124    3.1919 C   0  0  0  0  0  0  0  0  0  0  0  0
    1.4301  -14.0627    2.4374 C   0  0  1  0  0  0  0  0  0  0  0  0
    0.8799   -5.2656    1.2046 C   0  0  0  0  0  0  0  0  0  0  0  0
    2.4117  -14.2020    1.4705 C   0  0  0  0  0  0  0  0  0  0  0  0
    1.5388   -4.3473    1.9007 C   0  0  0  0  0  0  0  0  0  0  0  0
    1.4426   -2.9500    1.4435 N   0  0  0  0  0  0  0  0  0  0  0  0
    1.6041  -15.2841    3.4034 C   0  0  0  0  0  0  0  0  0  0  0  0
    0.4437  -15.8456    3.7223 O   0  0  0  0  0  0  0  0  0  0  0  0
    0.0835  -17.1024    3.4276 C   0  0  0  0  0  0  0  0  0  0  0  0
    0.9725  -17.7498    2.9037 C   0  0  0  0  0  0  0  0  0  0  0  0
  3  7  1  0
  7  8  2  3
  8  9  1  0
  9 10  1  0
  6 11  1  0
 10 12  1  6
 11 13  2  3
 13 14  1  0
 10 15  1  0
 15 16  1  0
 16 17  1  0
 17 18  1  0
  1  2  2  0
  2  6  1  0
  5  6  2  0
  4  5  1  0
  3  4  2  0
  1  3  1  0
M  END

$$$$
No_4105-/export/home/yangzhenyu/potential_scad_32_flow//YTHDC2/2024-12-06-03-22-00/
     RDKit          3D

 18 18  0  0  0  0  0  0  0  0999 V2000
    1.1787   -8.0297    3.5154 C   0  0  0  0  0  0  0  0  0  0  0  0
    1.1048   -9.2215    3.2892 C   0  0  0  0  0  0  0  0  0  0  0  0
    1.2339   -9.7611    2.0189 C   0  0  0  0  0  0  0  0  0  0  0  0
    1.3583   -9.0036    0.9764 C   0  0  0  0  0  0  0  0  0  0  0  0
    1.5996   -7.6362    1.1311 C   0  0  0  0  0  0  0  0  0  0  0  0
    1.4830   -7.0928    2.3626 C   0  0  0  0  0  0  0  0  0  0  0  0
    1.4898   -5.7274    2.6199 C   0  0  0  0  0  0  0  0  0  0  0  0
    1.1681  -11.2222    1.8390 C   0  0  0  0  0  0  0  0  0  0  0  0
    0.7145  -11.5870    0.5424 O   0  0  0  0  0  0  0  0  0  0  0  0
    1.6537  -12.0580    2.6183 N   0  0  0  0  0  0  0  0  0  0  0  0
    1.6651  -13.4392    2.3517 C   0  0  0  0  0  0  0  0  0  0  0  0
    0.4982  -14.0351    2.8975 C   0  0  0  0  0  0  0  0  0  0  0  0
   -0.5431  -13.6292    2.9701 C   0  0  0  0  0  0  0  0  0  0  0  0
    0.9543  -15.4494    3.3949 C   0  0  0  0  0  0  0  0  0  0  0  0
   -0.0053  -16.2500    3.9130 C   0  0  0  0  0  0  0  0  0  0  0  0
    0.3597  -17.5330    4.3651 C   0  0  0  0  0  0  0  0  0  0  0  0
    1.6885   -5.1707    3.8672 N   0  0  0  0  0  0  0  0  0  0  0  0
    1.3799   -4.8421    1.6257 O   0  0  0  0  0  0  0  0  0  0  0  0
  6  7  1  0
  3  8  1  0
  8  9  2  0
  8 10  1  0
 10 11  1  0
 11 12  1  0
 12 13  2  0
 12 14  1  0
 14 15  2  3
 15 16  1  0
  7 17  1  0
  7 18  2  0
  1  2  2  0
  2  3  1  0
  3  4  2  0
  4  5  1  0
  5  6  2  0
  1  6  1  0
M  END

$$$$
No_4106-/export/home/yangzhenyu/potential_scad_32_flow//YTHDC2/2024-12-06-03-22-00/
     RDKit          3D

 20 22  0  0  0  0  0  0  0  0999 V2000
    1.1787   -8.0297    3.5154 C   0  0  0  0  0  0  0  0  0  0  0  0
    1.1048   -9.2215    3.2892 C   0  0  0  0  0  0  0  0  0  0  0  0
    1.2339   -9.7611    2.0189 C   0  0  0  0  0  0  0  0  0  0  0  0
    1.1954  -11.2312    1.8661 C   0  0  0  0  0  0  0  0  0  0  0  0
    1.5546  -12.1691    2.7931 C   0  0  0  0  0  0  0  0  0  0  0  0
    0.9527   -7.0669    2.3918 C   0  0  0  0  0  0  0  0  0  0  0  0
    1.0618   -7.6392    1.0692 C   0  0  0  0  0  0  0  0  0  0  0  0
    1.2060   -8.9530    0.8578 C   0  0  0  0  0  0  0  0  0  0  0  0
    0.8228  -13.3051    2.8966 C   0  0  0  0  0  0  0  0  0  0  0  0
   -0.0721  -13.6353    2.0317 C   0  0  0  0  0  0  0  0  0  0  0  0
   -0.3541  -12.8159    1.0191 C   0  0  0  0  0  0  0  0  0  0  0  0
    0.2604  -11.6288    0.8923 C   0  0  0  0  0  0  0  0  0  0  0  0
    1.0780   -5.3961    2.5053 C   0  0  0  0  0  0  0  0  0  0  0  0
   -0.5706  -14.9765    2.1398 O   0  0  0  0  0  0  0  0  0  0  0  0
    0.6788   -4.7939    1.5413 C   0  0  0  0  0  0  0  0  0  0  0  0
    1.1831   -3.4705    1.4580 C   0  0  0  0  0  0  0  0  0  0  0  0
    2.0553   -2.9945    2.4215 C   0  0  0  0  0  0  0  0  0  0  0  0
    2.3877   -3.7859    3.4661 C   0  0  0  0  0  0  0  0  0  0  0  0
    1.9521   -5.1156    3.5397 C   0  0  0  0  0  0  0  0  0  0  0  0
   -0.1534  -15.9365    1.8761 C   0  0  0  0  0  0  0  0  0  0  0  0
  3  4  1  0
  6 13  1  0
 10 14  1  0
 14 20  1  0
 13 15  2  0
 15 16  1  0
 16 17  2  0
 17 18  1  0
 18 19  2  0
 13 19  1  0
  1  2  2  0
  2  3  1  0
  3  8  2  0
  7  8  1  0
  6  7  2  0
  1  6  1  0
  4  5  2  0
  5  9  1  0
  9 10  2  0
 10 11  1  0
 11 12  2  0
  4 12  1  0
M  END

$$$$
No_4107-/export/home/yangzhenyu/potential_scad_32_flow//YTHDC2/2024-12-06-03-22-00/
     RDKit          3D

 18 20  0  0  0  0  0  0  0  0999 V2000
    1.1787   -8.0297    3.5154 C   0  0  0  0  0  0  0  0  0  0  0  0
    1.1048   -9.2215    3.2892 C   0  0  0  0  0  0  0  0  0  0  0  0
    1.2339   -9.7611    2.0189 C   0  0  0  0  0  0  0  0  0  0  0  0
    1.3583   -9.0036    0.9764 C   0  0  0  0  0  0  0  0  0  0  0  0
    1.5996   -7.6362    1.1311 C   0  0  0  0  0  0  0  0  0  0  0  0
    1.4830   -7.0928    2.3626 C   0  0  0  0  0  0  0  0  0  0  0  0
    1.4898   -5.7274    2.6199 C   0  0  0  0  0  0  0  0  0  0  0  0
    1.1681  -11.2222    1.8390 C   0  0  0  0  0  0  0  0  0  0  0  0
    1.9047  -12.1147    2.3357 C   0  0  0  0  0  0  0  0  0  0  0  0
    1.6844  -13.4555    2.0602 C   0  0  0  0  0  0  0  0  0  0  0  0
    0.6977  -13.8514    1.3046 C   0  0  0  0  0  0  0  0  0  0  0  0
   -0.1168  -12.9151    0.6554 C   0  0  0  0  0  0  0  0  0  0  0  0
    0.1481  -11.5441    0.9254 C   0  0  0  0  0  0  0  0  0  0  0  0
    1.2485   -4.8600    1.6197 C   0  0  0  0  0  0  0  0  0  0  0  0
    0.5692   -3.7582    1.8347 C   0  0  0  0  0  0  0  0  0  0  0  0
    0.1380   -3.2660    3.0416 C   0  0  0  0  0  0  0  0  0  0  0  0
    0.5540   -4.1119    4.1581 C   0  0  0  0  0  0  0  0  0  0  0  0
    1.1910   -5.2655    3.9307 C   0  0  0  0  0  0  0  0  0  0  0  0
  6  7  1  0
  3  8  1  0
  1  2  2  0
  2  3  1  0
  3  4  2  0
  4  5  1  0
  5  6  2  0
  1  6  1  0
  8  9  2  0
  9 10  1  0
 10 11  2  0
 11 12  1  0
 12 13  2  0
  8 13  1  0
  7 14  2  0
 14 15  1  0
 15 16  2  0
 16 17  1  0
 17 18  2  0
  7 18  1  0
M  END

$$$$
No_4108-/export/home/yangzhenyu/potential_scad_32_flow//YTHDC2/2024-12-06-03-22-00/
     RDKit          3D

 18 20  0  0  0  0  0  0  0  0999 V2000
    1.1787   -8.0297    3.5154 C   0  0  0  0  0  0  0  0  0  0  0  0
    1.0491   -6.8434    2.9820 C   0  0  0  0  0  0  0  0  0  0  0  0
    0.0950   -8.8404    3.2292 C   0  0  0  0  0  0  0  0  0  0  0  0
    0.0602  -10.1764    3.8231 C   0  0  0  0  0  0  0  0  0  0  0  0
    0.2248   -6.3830    2.0648 C   0  0  0  0  0  0  0  0  0  0  0  0
   -0.6745   -7.2322    1.6857 C   0  0  0  0  0  0  0  0  0  0  0  0
   -0.7374   -8.4992    2.1291 C   0  0  0  0  0  0  0  0  0  0  0  0
   -1.2516  -10.6630    3.9829 C   0  0  0  0  0  0  0  0  0  0  0  0
   -2.1886  -10.3242    3.0488 C   0  0  0  0  0  0  0  0  0  0  0  0
   -1.9899   -9.1601    2.2931 C   0  0  0  0  0  0  0  0  0  0  0  0
    0.3225   -5.1548    1.3574 C   0  0  0  0  0  0  0  0  0  0  0  0
   -1.4931   -6.8533    0.6175 C   0  0  0  0  0  0  0  0  0  0  0  0
   -3.3706  -10.9864    3.0562 C   0  0  0  0  0  0  0  0  0  0  0  0
   -3.3870  -12.3406    3.0339 O   0  0  0  0  0  0  0  0  0  0  0  0
   -4.4454  -10.4439    2.4529 O   0  0  0  0  0  0  0  0  0  0  0  0
   -1.3682   -5.4382    0.2601 C   0  0  0  0  0  0  0  0  0  0  0  0
   -0.4267   -4.6674    0.5414 C   0  0  0  0  0  0  0  0  0  0  0  0
   -0.3569   -3.3773   -0.0215 C   0  0  0  0  0  0  0  0  0  0  0  0
  9 13  1  0
 13 14  2  0
 13 15  1  0
 17 18  1  0
  1  2  2  0
  2  5  1  0
  6  7  1  0
  1  3  1  0
  5  6  2  0
  6 12  1  0
 12 16  2  0
 16 17  1  0
 11 17  2  0
  5 11  1  0
  3  4  2  0
  4  8  1  0
  8  9  2  0
  9 10  1  0
  7 10  2  0
  3  7  1  0
M  END

$$$$
No_4109-/export/home/yangzhenyu/potential_scad_32_flow//YTHDC2/2024-12-06-03-22-00/
     RDKit          3D

 19 20  0  0  0  0  0  0  0  0999 V2000
    1.1787   -8.0297    3.5154 C   0  0  0  0  0  0  0  0  0  0  0  0
    1.0491   -6.8434    2.9820 C   0  0  0  0  0  0  0  0  0  0  0  0
    1.9985   -8.9840    2.8958 C   0  0  0  0  0  0  0  0  0  0  0  0
    1.9135  -10.3404    3.6266 C   0  0  0  0  0  0  0  0  0  0  0  0
    1.3291  -11.3908    3.0222 N   0  0  0  0  0  0  0  0  0  0  0  0
    1.1965   -6.5140    1.7930 C   0  0  0  0  0  0  0  0  0  0  0  0
    0.9444   -5.1406    1.3544 C   0  0  0  0  0  0  0  0  0  0  0  0
    0.8954  -11.3264    1.8684 C   0  0  0  0  0  0  0  0  0  0  0  0
    0.2702  -12.4569    1.4125 C   0  0  0  0  0  0  0  0  0  0  0  0
    0.2806  -13.4896    2.2486 C   0  0  0  0  0  0  0  0  0  0  0  0
    1.1049  -12.6914    3.4502 C   0  0  0  0  0  0  0  0  0  0  0  0
    0.3359   -4.2344    2.1496 N   0  0  0  0  0  0  0  0  0  0  0  0
    0.0168  -14.6969    2.5529 C   0  0  0  0  0  0  0  0  0  0  0  0
    0.8207  -15.6093    3.1908 C   0  0  0  0  0  0  0  0  0  0  0  0
    2.0314  -15.8659    2.8095 C   0  0  0  0  0  0  0  0  0  0  0  0
    2.5932  -17.1094    2.8274 C   0  0  0  0  0  0  0  0  0  0  0  0
    2.0314  -18.1235    3.4119 C   0  0  0  0  0  0  0  0  0  0  0  0
    0.8356  -18.0011    3.9911 C   0  0  0  0  0  0  0  0  0  0  0  0
    0.2027  -16.7261    3.8863 C   0  0  0  0  0  0  0  0  0  0  0  0
  1  2  1  0
  1  3  1  0
  3  4  1  0
  4  5  1  0
  2  6  2  3
  6  7  1  0
  5  8  1  0
  8  9  2  0
  9 10  1  0
  5 11  1  0
 10 11  1  0
  7 12  1  0
 10 13  1  0
 13 14  1  0
 14 15  2  0
 15 16  1  0
 16 17  2  0
 17 18  1  0
 18 19  2  0
 14 19  1  0
M  END

$$$$
No_4110-/export/home/yangzhenyu/potential_scad_32_flow//YTHDC2/2024-12-06-03-22-00/
     RDKit          3D

 21 23  0  0  1  0  0  0  0  0999 V2000
    1.1787   -8.0297    3.5154 C   0  0  0  0  0  0  0  0  0  0  0  0
    1.1048   -9.2215    3.2892 C   0  0  0  0  0  0  0  0  0  0  0  0
    1.2339   -9.7611    2.0189 C   0  0  0  0  0  0  0  0  0  0  0  0
    1.1954  -11.2312    1.8661 C   0  0  2  0  0  0  0  0  0  0  0  0
    1.2996  -11.5815    0.5387 C   0  0  0  0  0  0  0  0  0  0  0  0
    1.3263   -7.1208    2.3229 C   0  0  0  0  0  0  0  0  0  0  0  0
    1.3693   -7.6408    1.0625 C   0  0  0  0  0  0  0  0  0  0  0  0
    1.4358   -8.9950    0.8622 C   0  0  0  0  0  0  0  0  0  0  0  0
    1.6034  -10.8414   -0.4738 N   0  0  0  0  0  0  0  0  0  0  0  0
    1.5828   -9.5016   -0.3437 C   0  0  0  0  0  0  0  0  0  0  0  0
    1.7395   -8.7534   -1.4116 O   0  0  0  0  0  0  0  0  0  0  0  0
    1.3257   -5.6183    2.5834 C   0  0  0  0  0  0  0  0  0  0  0  0
    0.8591  -12.0330    2.8842 C   0  0  0  0  0  0  0  0  0  0  0  0
   -0.3103  -12.7337    2.8644 C   0  0  0  0  0  0  0  0  0  0  0  0
   -0.2161  -14.1264    2.8741 C   0  0  0  0  0  0  0  0  0  0  0  0
    0.8721  -14.7667    3.3711 C   0  0  0  0  0  0  0  0  0  0  0  0
    2.1621  -14.0469    3.2961 C   0  0  0  0  0  0  0  0  0  0  0  0
    2.1362  -12.6955    3.1141 C   0  0  0  0  0  0  0  0  0  0  0  0
    0.9256  -16.3979    3.4860 Br  0  0  0  0  0  0  0  0  0  0  0  0
    1.7422   -5.1764    3.7000 Cl  0  0  0  0  0  0  0  0  0  0  0  0
    0.6623   -4.8874    1.6672 Cl  0  0  0  0  0  0  0  0  0  0  0  0
  3  4  1  0
  4  5  1  0
  8 10  1  0
  9 10  1  0
 10 11  2  0
  6 12  1  0
  4 13  1  6
 16 19  1  0
 12 20  1  0
 12 21  1  0
  5  9  1  0
 13 14  2  0
 14 15  1  0
 15 16  2  0
 16 17  1  0
 17 18  2  0
 13 18  1  0
  1  2  2  0
  2  3  1  0
  3  8  2  0
  7  8  1  0
  6  7  2  0
  1  6  1  0
M  END

$$$$
No_4111-/export/home/yangzhenyu/potential_scad_32_flow//YTHDC2/2024-12-06-03-22-00/
     RDKit          3D

 18 19  0  0  0  0  0  0  0  0999 V2000
    1.1787   -8.0297    3.5154 C   0  0  0  0  0  0  0  0  0  0  0  0
    1.0491   -6.8434    2.9820 C   0  0  0  0  0  0  0  0  0  0  0  0
    0.9905   -9.0774    2.6527 C   0  0  0  0  0  0  0  0  0  0  0  0
    0.9687   -8.6883    1.3634 C   0  0  0  0  0  0  0  0  0  0  0  0
    1.0948   -6.3768    1.7686 C   0  0  0  0  0  0  0  0  0  0  0  0
    0.9504   -7.3975    0.8471 C   0  0  0  0  0  0  0  0  0  0  0  0
    1.0175  -10.5389    3.0735 C   0  0  0  0  0  0  0  0  0  0  0  0
   -0.1673  -11.1029    3.1187 C   0  0  0  0  0  0  0  0  0  0  0  0
   -0.2302  -12.4680    3.0723 C   0  0  0  0  0  0  0  0  0  0  0  0
    0.9922  -13.2053    2.8923 C   0  0  0  0  0  0  0  0  0  0  0  0
    2.1929  -12.5350    2.7634 C   0  0  0  0  0  0  0  0  0  0  0  0
    2.2041  -11.1925    2.7516 C   0  0  0  0  0  0  0  0  0  0  0  0
    0.9445  -14.6187    2.9060 O   0  0  0  0  0  0  0  0  0  0  0  0
    1.0777   -5.0548    1.2791 Cl  0  0  0  0  0  0  0  0  0  0  0  0
   -0.0445  -15.3038    2.7012 C   0  0  0  0  0  0  0  0  0  0  0  0
   -0.4844  -15.2668    1.5272 C   0  0  0  0  0  0  0  0  0  0  0  0
   -1.6706  -14.8881    1.1534 C   0  0  0  0  0  0  0  0  0  0  0  0
   -2.6905  -15.1186    2.0716 C   0  0  0  0  0  0  0  0  0  0  0  0
  3  7  1  0
 10 13  1  0
  5 14  1  0
 13 15  1  0
 15 16  1  0
 16 17  2  3
 17 18  1  0
  1  2  2  0
  2  5  1  0
  5  6  2  0
  4  6  1  0
  3  4  2  0
  1  3  1  0
  7  8  2  0
  8  9  1  0
  9 10  2  0
 10 11  1  0
 11 12  2  0
  7 12  1  0
M  END

$$$$
No_4112-/export/home/yangzhenyu/potential_scad_32_flow//YTHDC2/2024-12-06-03-22-00/
     RDKit          3D

 19 19  0  0  1  0  0  0  0  0999 V2000
    1.1787   -8.0297    3.5154 C   0  0  0  0  0  0  0  0  0  0  0  0
    1.1048   -9.2215    3.2892 C   0  0  0  0  0  0  0  0  0  0  0  0
    1.2339   -9.7611    2.0189 C   0  0  0  0  0  0  0  0  0  0  0  0
    1.3583   -9.0036    0.9764 C   0  0  0  0  0  0  0  0  0  0  0  0
    1.5996   -7.6362    1.1311 C   0  0  0  0  0  0  0  0  0  0  0  0
    1.4830   -7.0928    2.3626 C   0  0  0  0  0  0  0  0  0  0  0  0
    1.1171  -11.3311    1.8661 N   0  0  0  0  0  0  0  0  0  0  0  0
    1.9263  -12.1218    2.2275 C   0  0  0  0  0  0  0  0  0  0  0  0
    1.4140  -13.3315    2.6681 C   0  0  1  0  0  0  0  0  0  0  0  0
    0.1632  -13.2350    3.2693 C   0  0  0  0  0  0  0  0  0  0  0  0
    1.4878  -14.4523    1.5875 C   0  0  0  0  0  0  0  0  0  0  0  0
    1.6650  -13.9307    0.5552 O   0  0  0  0  0  0  0  0  0  0  0  0
    1.2871  -15.6507    1.8827 N   0  0  0  0  0  0  0  0  0  0  0  0
    1.5882   -9.5203   -0.4577 C   0  0  0  0  0  0  0  0  0  0  0  0
    1.3089   -9.0158   -1.2883 O   0  0  0  0  0  0  0  0  0  0  0  0
    1.4557  -10.8119   -0.4886 O   0  0  0  0  0  0  0  0  0  0  0  0
    1.4694  -16.5550    0.8144 C   0  0  0  0  0  0  0  0  0  0  0  0
    0.7027  -17.7490    1.2006 C   0  0  0  0  0  0  0  0  0  0  0  0
   -0.3996  -17.7126    1.3780 C   0  0  0  0  0  0  0  0  0  0  0  0
  3  7  1  0
  7  8  1  0
  8  9  1  0
  9 10  1  6
  9 11  1  0
 11 12  2  0
 11 13  1  0
  4 14  1  0
 14 15  2  0
 14 16  1  0
 13 17  1  0
 17 18  1  0
 18 19  1  0
  1  2  2  0
  2  3  1  0
  3  4  2  0
  4  5  1  0
  5  6  2  0
  1  6  1  0
M  END

$$$$
No_4113-/export/home/yangzhenyu/potential_scad_32_flow//YTHDC2/2024-12-06-03-22-00/
     RDKit          3D

 18 20  0  0  0  0  0  0  0  0999 V2000
    1.1787   -8.0297    3.5154 C   0  0  0  0  0  0  0  0  0  0  0  0
    1.1048   -9.2215    3.2892 C   0  0  0  0  0  0  0  0  0  0  0  0
    1.3627  -10.1721    4.3044 C   0  0  0  0  0  0  0  0  0  0  0  0
    1.7354  -11.4730    3.9023 C   0  0  0  0  0  0  0  0  0  0  0  0
    1.8080  -11.8127    2.7216 C   0  0  0  0  0  0  0  0  0  0  0  0
    1.5854  -11.0021    1.7249 C   0  0  0  0  0  0  0  0  0  0  0  0
    1.3573   -9.7389    1.9287 C   0  0  0  0  0  0  0  0  0  0  0  0
    1.2865   -8.8078    0.9161 C   0  0  0  0  0  0  0  0  0  0  0  0
    0.9210   -7.5140    1.1674 N   0  0  0  0  0  0  0  0  0  0  0  0
    1.0133   -7.0796    2.3753 C   0  0  0  0  0  0  0  0  0  0  0  0
    0.8408   -5.6313    2.5086 C   0  0  0  0  0  0  0  0  0  0  0  0
    2.0899  -13.4597    2.3858 C   0  0  0  0  0  0  0  0  0  0  0  0
    1.0585  -14.1704    2.1290 C   0  0  0  0  0  0  0  0  0  0  0  0
    1.2818  -15.5178    2.0566 C   0  0  0  0  0  0  0  0  0  0  0  0
    0.2962  -16.4236    1.8092 N   0  0  0  0  0  0  0  0  0  0  0  0
   -0.2297  -13.6816    1.9621 C   0  0  0  0  0  0  0  0  0  0  0  0
   -1.2445  -14.6546    1.6382 C   0  0  0  0  0  0  0  0  0  0  0  0
   -0.8492  -16.0016    1.5330 C   0  0  0  0  0  0  0  0  0  0  0  0
 10 11  1  0
  5 12  1  0
 12 13  1  0
  1  2  2  0
  7  8  2  0
  8  9  1  0
  9 10  2  0
  1 10  1  0
  2  3  1  0
  3  4  2  0
  4  5  1  0
  5  6  2  0
  6  7  1  0
  2  7  1  0
 13 14  2  0
 14 15  1  0
 15 18  2  0
 17 18  1  0
 16 17  2  0
 13 16  1  0
M  END

$$$$
No_4114-/export/home/yangzhenyu/potential_scad_32_flow//YTHDC2/2024-12-06-03-22-00/
     RDKit          3D

 18 19  0  0  0  0  0  0  0  0999 V2000
    1.1787   -8.0297    3.5154 C   0  0  0  0  0  0  0  0  0  0  0  0
    1.1048   -9.2215    3.2892 C   0  0  0  0  0  0  0  0  0  0  0  0
    1.3627  -10.1721    4.3044 C   0  0  0  0  0  0  0  0  0  0  0  0
    1.7354  -11.4730    3.9023 C   0  0  0  0  0  0  0  0  0  0  0  0
    1.6166  -11.5515    2.5159 C   0  0  0  0  0  0  0  0  0  0  0  0
    1.4172  -10.6242    1.6178 C   0  0  0  0  0  0  0  0  0  0  0  0
    1.2598   -9.4423    1.9811 C   0  0  0  0  0  0  0  0  0  0  0  0
    1.0996   -7.0633    2.5049 C   0  0  0  0  0  0  0  0  0  0  0  0
    1.2922   -7.2465    1.2567 C   0  0  0  0  0  0  0  0  0  0  0  0
    1.4274   -8.5086    0.9073 C   0  0  0  0  0  0  0  0  0  0  0  0
    1.8771  -13.2604    2.0067 C   0  0  0  0  0  0  0  0  0  0  0  0
    1.8159  -13.3901    0.7936 O   0  0  0  0  0  0  0  0  0  0  0  0
    2.1552  -14.1740    2.8255 N   0  0  0  0  0  0  0  0  0  0  0  0
    2.3150  -15.4822    2.4463 C   0  0  0  0  0  0  0  0  0  0  0  0
    1.6123   -8.9120   -0.5416 C   0  0  0  0  0  0  0  0  0  0  0  0
    0.8958   -9.1239   -1.2621 O   0  0  0  0  0  0  0  0  0  0  0  0
    2.7458   -8.4368   -1.1286 O   0  0  0  0  0  0  0  0  0  0  0  0
    1.2940  -16.2560    2.3630 N   0  0  0  0  0  0  0  0  0  0  0  0
  5 11  1  0
 11 12  2  0
 11 13  1  0
 13 14  1  0
 10 15  1  0
 15 16  2  0
 15 17  1  0
 14 18  1  0
  2  3  1  0
  3  4  2  0
  4  5  1  0
  5  6  2  0
  6  7  1  0
  1  2  2  0
  2  7  1  0
  7 10  2  0
  9 10  1  0
  8  9  2  0
  1  8  1  0
M  END

$$$$
No_4115-/export/home/yangzhenyu/potential_scad_32_flow//YTHDC2/2024-12-06-03-22-00/
     RDKit          3D

 19 20  0  0  0  0  0  0  0  0999 V2000
    1.1787   -8.0297    3.5154 C   0  0  0  0  0  0  0  0  0  0  0  0
    1.0491   -6.8434    2.9820 C   0  0  0  0  0  0  0  0  0  0  0  0
    0.0950   -8.8404    3.2292 C   0  0  0  0  0  0  0  0  0  0  0  0
   -0.9173   -8.4596    2.5152 C   0  0  0  0  0  0  0  0  0  0  0  0
   -1.0331   -7.2162    2.0653 C   0  0  0  0  0  0  0  0  0  0  0  0
   -0.0105   -6.3168    2.3081 C   0  0  0  0  0  0  0  0  0  0  0  0
    0.0485   -4.9783    1.8782 C   0  0  0  0  0  0  0  0  0  0  0  0
    0.9625   -4.1072    2.3252 C   0  0  0  0  0  0  0  0  0  0  0  0
    0.1722  -10.4518    3.7515 Cl  0  0  0  0  0  0  0  0  0  0  0  0
    1.2301   -2.7784    1.8622 C   0  0  0  0  0  0  0  0  0  0  0  0
    0.3919   -2.4449    0.8080 C   0  0  0  0  0  0  0  0  0  0  0  0
   -0.5311   -3.2066    0.2334 C   0  0  0  0  0  0  0  0  0  0  0  0
   -0.7370   -4.5089    0.7393 C   0  0  0  0  0  0  0  0  0  0  0  0
   -1.3527   -2.7950   -0.8463 O   0  0  0  0  0  0  0  0  0  0  0  0
   -1.9163   -3.6653   -1.6696 C   0  0  0  0  0  0  0  0  0  0  0  0
   -1.2865   -3.9775   -2.7348 C   0  0  0  0  0  0  0  0  0  0  0  0
   -1.7357   -5.0530   -3.5140 C   0  0  0  0  0  0  0  0  0  0  0  0
   -2.8611   -5.6303   -2.8938 C   0  0  0  0  0  0  0  0  0  0  0  0
   -3.4569   -5.0059   -1.6806 C   0  0  0  0  0  0  0  0  0  0  0  0
  6  7  1  0
  3  9  1  0
 12 14  1  0
 14 15  1  0
 15 16  1  0
 16 17  2  3
 17 18  1  0
 18 19  2  0
  1  2  2  0
  2  6  1  0
  5  6  2  0
  4  5  1  0
  3  4  2  0
  1  3  1  0
  7  8  2  0
  8 10  1  0
 10 11  2  0
 11 12  1  0
 12 13  2  0
  7 13  1  0
M  END

$$$$
No_4116-/export/home/yangzhenyu/potential_scad_32_flow//YTHDC2/2024-12-06-03-22-00/
     RDKit          3D

 19 21  0  0  0  0  0  0  0  0999 V2000
    1.1787   -8.0297    3.5154 C   0  0  0  0  0  0  0  0  0  0  0  0
    1.1048   -9.2215    3.2892 C   0  0  0  0  0  0  0  0  0  0  0  0
    1.3627  -10.1721    4.3044 C   0  0  0  0  0  0  0  0  0  0  0  0
    1.0682  -11.5187    4.0618 C   0  0  0  0  0  0  0  0  0  0  0  0
    0.6332  -11.9655    2.9682 C   0  0  0  0  0  0  0  0  0  0  0  0
    0.4776  -11.1308    1.9203 C   0  0  0  0  0  0  0  0  0  0  0  0
    0.7470   -9.8274    2.0368 C   0  0  0  0  0  0  0  0  0  0  0  0
    1.0387   -7.0301    2.5175 C   0  0  0  0  0  0  0  0  0  0  0  0
    0.9130   -7.5288    1.2013 C   0  0  0  0  0  0  0  0  0  0  0  0
    0.7893   -8.7979    0.9542 C   0  0  0  0  0  0  0  0  0  0  0  0
    0.5241   -9.2578   -0.2817 C   0  0  0  0  0  0  0  0  0  0  0  0
   -0.7560   -9.7391   -0.6285 O   0  0  0  0  0  0  0  0  0  0  0  0
    1.3013   -8.9300   -1.2618 O   0  0  0  0  0  0  0  0  0  0  0  0
    0.5064  -13.3732    2.6887 C   0  0  0  0  0  0  0  0  0  0  0  0
   -0.5310  -14.0465    2.3594 C   0  0  0  0  0  0  0  0  0  0  0  0
    1.4760  -14.3344    3.3701 C   0  0  0  0  0  0  0  0  0  0  0  0
   -0.6700  -15.3304    2.1507 C   0  0  0  0  0  0  0  0  0  0  0  0
    0.2951  -16.2013    2.6184 C   0  0  0  0  0  0  0  0  0  0  0  0
    1.4683  -15.6581    3.2581 C   0  0  0  0  0  0  0  0  0  0  0  0
 10 11  1  0
 11 12  2  0
 11 13  1  0
  5 14  1  0
  2  3  1  0
  3  4  2  0
  4  5  1  0
  5  6  2  0
  6  7  1  0
 14 15  2  0
 15 17  1  0
 17 18  2  0
 18 19  1  0
 16 19  2  0
 14 16  1  0
  1  2  2  0
  2  7  1  0
  7 10  2  0
  9 10  1  0
  8  9  2  0
  1  8  1  0
M  END

$$$$
No_4117-/export/home/yangzhenyu/potential_scad_32_flow//YTHDC2/2024-12-06-03-22-00/
     RDKit          3D

 17 18  0  0  0  0  0  0  0  0999 V2000
    1.1787   -8.0297    3.5154 C   0  0  0  0  0  0  0  0  0  0  0  0
    1.0491   -6.8434    2.9820 C   0  0  0  0  0  0  0  0  0  0  0  0
    0.0950   -8.8404    3.2292 C   0  0  0  0  0  0  0  0  0  0  0  0
   -0.9173   -8.4596    2.5152 C   0  0  0  0  0  0  0  0  0  0  0  0
   -1.0331   -7.2162    2.0653 C   0  0  0  0  0  0  0  0  0  0  0  0
   -0.0105   -6.3168    2.3081 C   0  0  0  0  0  0  0  0  0  0  0  0
    0.1935  -10.3737    3.7416 C   0  0  0  0  0  0  0  0  0  0  0  0
    1.2406  -10.8901    4.0986 C   0  0  0  0  0  0  0  0  0  0  0  0
    1.7689  -11.7893    3.2364 C   0  0  0  0  0  0  0  0  0  0  0  0
    0.6976  -12.4278    2.4734 C   0  0  0  0  0  0  0  0  0  0  0  0
   -0.4761  -11.8255    2.3899 C   0  0  0  0  0  0  0  0  0  0  0  0
   -0.8245  -10.8173    3.1087 C   0  0  0  0  0  0  0  0  0  0  0  0
    1.1391  -13.6896    1.8465 C   0  0  0  0  0  0  0  0  0  0  0  0
    0.9298  -14.6863    2.0237 C   0  0  0  0  0  0  0  0  0  0  0  0
    0.2031  -15.0440    3.3764 C   0  0  0  0  0  0  0  0  0  0  0  0
   -0.0321   -4.7784    1.8298 C   0  0  0  0  0  0  0  0  0  0  0  0
   -0.7433   -4.1263    2.3084 O   0  0  0  0  0  0  0  0  0  0  0  0
  3  7  1  0
 10 13  1  0
 13 14  2  3
 14 15  1  0
  6 16  1  0
 16 17  2  0
  1  2  2  0
  2  6  1  0
  5  6  2  0
  4  5  1  0
  3  4  2  0
  1  3  1  0
  7  8  2  0
  8  9  1  0
  9 10  2  0
 10 11  1  0
 11 12  2  0
  7 12  1  0
M  END

$$$$
No_4118-/export/home/yangzhenyu/potential_scad_32_flow//YTHDC2/2024-12-06-03-22-00/
     RDKit          3D

 20 21  0  0  0  0  0  0  0  0999 V2000
    1.1787   -8.0297    3.5154 C   0  0  0  0  0  0  0  0  0  0  0  0
    1.0491   -6.8434    2.9820 C   0  0  0  0  0  0  0  0  0  0  0  0
    0.0950   -8.8404    3.2292 C   0  0  0  0  0  0  0  0  0  0  0  0
   -0.9173   -8.4596    2.5152 C   0  0  0  0  0  0  0  0  0  0  0  0
   -1.0331   -7.2162    2.0653 C   0  0  0  0  0  0  0  0  0  0  0  0
   -0.0105   -6.3168    2.3081 C   0  0  0  0  0  0  0  0  0  0  0  0
    0.1150   -4.9910    1.8495 C   0  0  0  0  0  0  0  0  0  0  0  0
   -0.5774   -4.1593    2.0596 N   0  0  0  0  0  0  0  0  0  0  0  0
    0.1680  -10.2877    3.7012 Br  0  0  0  0  0  0  0  0  0  0  0  0
   -0.5810   -2.8920    1.5439 C   0  0  0  0  0  0  0  0  0  0  0  0
    0.3881   -2.8413    0.6245 C   0  0  0  0  0  0  0  0  0  0  0  0
    1.1326   -3.8078    0.2651 C   0  0  0  0  0  0  0  0  0  0  0  0
    1.1048   -4.9443    0.9190 C   0  0  0  0  0  0  0  0  0  0  0  0
    0.5033   -1.4558   -0.1115 O   0  0  0  0  0  0  0  0  0  0  0  0
    0.2305   -0.4312    0.3825 C   0  0  0  0  0  0  0  0  0  0  0  0
   -2.3751   -6.7720    1.1963 C   0  0  0  0  0  0  0  0  0  0  0  0
   -2.2322   -6.8603   -0.1396 C   0  0  0  0  0  0  0  0  0  0  0  0
   -1.3721   -7.6056   -0.8760 C   0  0  0  0  0  0  0  0  0  0  0  0
   -1.3017   -7.4900   -2.1728 C   0  0  0  0  0  0  0  0  0  0  0  0
   -2.1596   -6.7594   -2.8671 C   0  0  0  0  0  0  0  0  0  0  0  0
  6  7  1  0
  3  9  1  0
 11 14  1  0
 14 15  1  0
  5 16  1  0
 16 17  1  0
 17 18  1  0
 18 19  2  3
 19 20  1  0
  1  2  2  0
  2  6  1  0
  5  6  2  0
  4  5  1  0
  3  4  2  0
  1  3  1  0
  7  8  2  0
  8 10  1  0
 10 11  2  0
 11 12  1  0
 12 13  2  0
  7 13  1  0
M  END

$$$$
No_4119-/export/home/yangzhenyu/potential_scad_32_flow//YTHDC2/2024-12-06-03-22-00/
     RDKit          3D

 19 20  0  0  0  0  0  0  0  0999 V2000
    1.1787   -8.0297    3.5154 C   0  0  0  0  0  0  0  0  0  0  0  0
    1.1048   -9.2215    3.2892 C   0  0  0  0  0  0  0  0  0  0  0  0
    1.2339   -9.7611    2.0189 C   0  0  0  0  0  0  0  0  0  0  0  0
    1.1954  -11.2312    1.8661 C   0  0  0  0  0  0  0  0  0  0  0  0
    1.2996  -11.5815    0.5387 C   0  0  0  0  0  0  0  0  0  0  0  0
    0.9270   -7.0442    2.4967 C   0  0  0  0  0  0  0  0  0  0  0  0
    0.9803   -7.6034    1.0978 C   0  0  0  0  0  0  0  0  0  0  0  0
    1.1096   -8.9244    0.8670 C   0  0  0  0  0  0  0  0  0  0  0  0
    1.0761  -11.9547    2.9012 C   0  0  0  0  0  0  0  0  0  0  0  0
    0.5875  -12.9955    2.7625 C   0  0  0  0  0  0  0  0  0  0  0  0
    0.4817  -13.7074    1.4940 C   0  0  0  0  0  0  0  0  0  0  0  0
    0.9365  -13.0853    0.5493 C   0  0  0  0  0  0  0  0  0  0  0  0
    0.9947   -5.5983    2.6345 C   0  0  0  0  0  0  0  0  0  0  0  0
    1.6472   -5.1171    3.5478 C   0  0  0  0  0  0  0  0  0  0  0  0
    1.4060   -3.6873    3.6821 N   0  0  0  0  0  0  0  0  0  0  0  0
    0.7258   -4.8074    1.5061 O   0  0  0  0  0  0  0  0  0  0  0  0
    0.3768  -15.0881    1.3393 C   0  0  0  0  0  0  0  0  0  0  0  0
   -0.0241  -15.8051    1.9156 N   0  0  0  0  0  0  0  0  0  0  0  0
   -0.4558  -15.5629    2.7960 H   0  0  0  0  0  0  0  0  0  0  0  0
  3  4  1  0
  6 13  1  0
 13 14  1  0
 14 15  1  0
 13 16  2  0
 11 17  1  0
 17 18  2  0
  4  5  2  0
  5 12  1  0
 11 12  2  0
 10 11  1  0
  9 10  2  0
  4  9  1  0
  1  2  2  0
  2  3  1  0
  3  8  2  0
  7  8  1  0
  6  7  2  0
  1  6  1  0
 18 19  1  0
M  END

$$$$
No_4120-/export/home/yangzhenyu/potential_scad_32_flow//YTHDC2/2024-12-06-03-22-00/
     RDKit          3D

 18 18  0  0  1  0  0  0  0  0999 V2000
    1.1787   -8.0297    3.5154 C   0  0  0  0  0  0  0  0  0  0  0  0
    1.0491   -6.8434    2.9820 C   0  0  0  0  0  0  0  0  0  0  0  0
    1.9985   -8.9840    2.8958 C   0  0  0  0  0  0  0  0  0  0  0  0
    1.9135  -10.3404    3.6266 C   0  0  1  0  0  0  0  0  0  0  0  0
    2.2847  -10.5440    4.7936 C   0  0  0  0  0  0  0  0  0  0  0  0
    0.3304   -6.7696    1.8077 C   0  0  1  0  0  0  0  0  0  0  0  0
    0.3816   -7.5583    0.9388 C   0  0  0  0  0  0  0  0  0  0  0  0
   -1.0052   -6.2856    2.2049 C   0  0  0  0  0  0  0  0  0  0  0  0
    0.7474  -11.1243    3.2642 C   0  0  0  0  0  0  0  0  0  0  0  0
    0.8223  -11.9168    2.4723 C   0  0  2  0  0  0  0  0  0  0  0  0
    1.8630  -12.1175    1.7743 C   0  0  0  0  0  0  0  0  0  0  0  0
   -0.4037  -12.0407    1.6080 C   0  0  0  0  0  0  0  0  0  0  0  0
   -1.0777  -11.1602    1.3905 C   0  0  0  0  0  0  0  0  0  0  0  0
   -2.2168  -10.8323    1.6107 C   0  0  0  0  0  0  0  0  0  0  0  0
   -2.7163  -11.8186    2.6909 C   0  0  0  0  0  0  0  0  0  0  0  0
   -2.2727  -13.0292    2.7208 C   0  0  0  0  0  0  0  0  0  0  0  0
   -1.0061  -13.1468    2.1143 C   0  0  0  0  0  0  0  0  0  0  0  0
    0.0752   -7.6577   -0.0141 O   0  0  0  0  0  0  0  0  0  0  0  0
  1  2  1  0
  1  3  1  0
  3  4  1  0
  4  5  1  1
  2  6  1  0
  6  7  1  0
  6  8  1  1
  4  9  1  0
  9 10  1  0
 10 11  1  6
 10 12  1  0
  7 18  2  0
 12 13  2  0
 13 14  1  0
 14 15  2  0
 15 16  1  0
 16 17  2  0
 12 17  1  0
M  END

$$$$
No_4121-/export/home/yangzhenyu/potential_scad_32_flow//YTHDC2/2024-12-06-03-22-00/
     RDKit          3D

 19 21  0  0  0  0  0  0  0  0999 V2000
    1.1787   -8.0297    3.5154 C   0  0  0  0  0  0  0  0  0  0  0  0
    1.1048   -9.2215    3.2892 C   0  0  0  0  0  0  0  0  0  0  0  0
    1.2339   -9.7611    2.0189 C   0  0  0  0  0  0  0  0  0  0  0  0
    1.3583   -9.0036    0.9764 C   0  0  0  0  0  0  0  0  0  0  0  0
    1.5996   -7.6362    1.1311 C   0  0  0  0  0  0  0  0  0  0  0  0
    1.4830   -7.0928    2.3626 C   0  0  0  0  0  0  0  0  0  0  0  0
    1.1008  -11.2372    1.8542 C   0  0  0  0  0  0  0  0  0  0  0  0
    1.9749  -12.0938    2.2342 C   0  0  0  0  0  0  0  0  0  0  0  0
    1.5180  -13.3509    2.5910 C   0  0  0  0  0  0  0  0  0  0  0  0
    0.4120  -13.9272    2.2191 C   0  0  0  0  0  0  0  0  0  0  0  0
   -0.5860  -13.0563    1.8308 C   0  0  0  0  0  0  0  0  0  0  0  0
   -0.2264  -11.7453    1.4928 C   0  0  0  0  0  0  0  0  0  0  0  0
    1.6029   -5.4505    2.6854 Cl  0  0  0  0  0  0  0  0  0  0  0  0
    0.0975  -15.2159    2.5385 C   0  0  0  0  0  0  0  0  0  0  0  0
    0.0638  -16.1053    2.0680 N   0  0  0  0  0  0  0  0  0  0  0  0
    0.2298  -15.5234    4.0460 O   0  0  0  0  0  0  0  0  0  0  0  0
    1.6039   -9.4834   -0.3192 N   0  0  0  0  0  0  0  0  0  0  0  0
    0.1772  -16.8382    4.1457 C   0  0  0  0  0  0  0  0  0  0  0  0
   -0.0795  -17.2678    2.9852 C   0  0  0  0  0  0  0  0  0  0  0  0
  3  7  1  0
  6 13  1  0
 10 14  1  0
 14 15  2  0
 14 16  1  0
  4 17  1  0
 16 18  1  0
 15 19  1  0
 18 19  2  0
  1  2  2  0
  2  3  1  0
  3  4  2  0
  4  5  1  0
  5  6  2  0
  1  6  1  0
  7  8  2  0
  8  9  1  0
  9 10  2  0
 10 11  1  0
 11 12  2  0
  7 12  1  0
M  END

$$$$
No_4122-/export/home/yangzhenyu/potential_scad_32_flow//YTHDC2/2024-12-06-03-22-00/
     RDKit          3D

 19 19  0  0  1  0  0  0  0  0999 V2000
    1.1787   -8.0297    3.5154 C   0  0  0  0  0  0  0  0  0  0  0  0
    1.0491   -6.8434    2.9820 C   0  0  0  0  0  0  0  0  0  0  0  0
    0.9905   -9.0774    2.6527 C   0  0  0  0  0  0  0  0  0  0  0  0
    0.7897   -8.9519    1.3691 C   0  0  0  0  0  0  0  0  0  0  0  0
    0.7018   -7.7198    0.7892 C   0  0  0  0  0  0  0  0  0  0  0  0
    0.8918   -6.5957    1.6117 C   0  0  0  0  0  0  0  0  0  0  0  0
    1.0774  -10.6059    3.3145 C   0  0  0  0  0  0  0  0  0  0  0  0
    1.2215  -11.6205    2.4178 N   0  0  0  0  0  0  0  0  0  0  0  0
    1.3494  -12.8632    2.9522 C   0  0  0  0  0  0  0  0  0  0  0  0
    0.9832  -13.9748    2.3339 C   0  0  0  0  0  0  0  0  0  0  0  0
    1.0947  -15.3553    2.9042 C   0  0  0  0  0  0  0  0  0  0  0  0
    1.7693  -16.3099    2.4725 C   0  0  2  0  0  0  0  0  0  0  0  0
    2.8363  -15.8302    1.5154 C   0  0  0  0  0  0  0  0  0  0  0  0
    1.1257  -10.7152    4.5281 O   0  0  0  0  0  0  0  0  0  0  0  0
    0.7873   -5.2957    1.0984 Cl  0  0  0  0  0  0  0  0  0  0  0  0
    0.9539  -17.2215    1.6874 C   0  0  0  0  0  0  0  0  0  0  0  0
    0.8748  -18.2178    2.3915 C   0  0  0  0  0  0  0  0  0  0  0  0
   -0.2029  -18.4501    3.2194 C   0  0  0  0  0  0  0  0  0  0  0  0
   -1.4203  -17.9811    2.8540 C   0  0  0  0  0  0  0  0  0  0  0  0
  3  7  1  0
  7  8  1  0
  8  9  1  0
  9 10  1  0
 10 11  1  0
 11 12  1  0
 12 13  1  6
  7 14  2  0
  6 15  1  0
 12 16  1  0
 16 17  1  0
 17 18  1  0
 18 19  1  0
  1  2  2  0
  2  6  1  0
  5  6  2  0
  4  5  1  0
  3  4  2  0
  1  3  1  0
M  END

$$$$
No_4123-/export/home/yangzhenyu/potential_scad_32_flow//YTHDC2/2024-12-06-03-22-00/
     RDKit          3D

 19 19  0  0  0  0  0  0  0  0999 V2000
    1.1787   -8.0297    3.5154 C   0  0  0  0  0  0  0  0  0  0  0  0
    1.1048   -9.2215    3.2892 C   0  0  0  0  0  0  0  0  0  0  0  0
    1.3627  -10.1721    4.3044 C   0  0  0  0  0  0  0  0  0  0  0  0
    2.3720  -10.8948    4.2468 C   0  0  0  0  0  0  0  0  0  0  0  0
    0.8234   -7.0464    2.5717 C   0  0  0  0  0  0  0  0  0  0  0  0
    0.4328   -7.4736    1.3042 C   0  0  0  0  0  0  0  0  0  0  0  0
    0.3532   -8.7488    0.9919 C   0  0  0  0  0  0  0  0  0  0  0  0
    0.7039   -9.7094    1.9672 C   0  0  0  0  0  0  0  0  0  0  0  0
    0.6986  -10.9809    1.7122 C   0  0  0  0  0  0  0  0  0  0  0  0
    1.7333  -11.5997    0.9727 C   0  0  0  0  0  0  0  0  0  0  0  0
    2.6704  -10.9166    0.3707 O   0  0  0  0  0  0  0  0  0  0  0  0
    1.7875  -12.9754    0.7091 O   0  0  0  0  0  0  0  0  0  0  0  0
    0.9489   -5.5618    2.8065 C   0  0  0  0  0  0  0  0  0  0  0  0
    3.5900  -10.5209    5.0141 O   0  0  0  0  0  0  0  0  0  0  0  0
    1.6704   -5.2344    3.8153 C   0  0  0  0  0  0  0  0  0  0  0  0
    0.3160   -4.7662    1.9819 C   0  0  0  0  0  0  0  0  0  0  0  0
   -0.9029   -4.3445    2.0453 O   0  0  0  0  0  0  0  0  0  0  0  0
    0.9881   -4.1168    0.9030 N   0  0  0  0  0  0  0  0  0  0  0  0
    0.4670   -3.1156    0.1262 C   0  0  0  0  0  0  0  0  0  0  0  0
  2  3  1  0
  3  4  1  0
  8  9  1  0
  9 10  1  0
 10 11  2  0
 10 12  1  0
  5 13  1  0
  4 14  1  0
 13 15  1  0
 13 16  1  0
 16 17  2  0
 16 18  1  0
 18 19  1  0
  1  2  2  0
  2  8  1  0
  7  8  2  0
  6  7  1  0
  5  6  2  0
  1  5  1  0
M  END

$$$$
No_4124-/export/home/yangzhenyu/potential_scad_32_flow//YTHDC2/2024-12-06-03-22-00/
     RDKit          3D

 19 20  0  0  0  0  0  0  0  0999 V2000
    1.1787   -8.0297    3.5154 C   0  0  0  0  0  0  0  0  0  0  0  0
    1.1048   -9.2215    3.2892 C   0  0  0  0  0  0  0  0  0  0  0  0
    1.2339   -9.7611    2.0189 C   0  0  0  0  0  0  0  0  0  0  0  0
    1.3583   -9.0036    0.9764 C   0  0  0  0  0  0  0  0  0  0  0  0
    1.5996   -7.6362    1.1311 C   0  0  0  0  0  0  0  0  0  0  0  0
    1.4830   -7.0928    2.3626 C   0  0  0  0  0  0  0  0  0  0  0  0
    1.2249  -11.3952    1.9460 C   0  0  0  0  0  0  0  0  0  0  0  0
    1.1695  -11.8684    0.7480 O   0  0  0  0  0  0  0  0  0  0  0  0
    1.8764  -11.9954    2.9721 N   0  0  0  0  0  0  0  0  0  0  0  0
    1.8850  -13.4064    2.9103 C   0  0  0  0  0  0  0  0  0  0  0  0
    1.4912   -5.4916    2.7088 I   0  0  0  0  0  0  0  0  0  0  0  0
    2.3119  -14.0289    1.7238 C   0  0  0  0  0  0  0  0  0  0  0  0
    2.1065  -15.1692    1.4089 C   0  0  0  0  0  0  0  0  0  0  0  0
    1.4959  -16.0509    2.1534 C   0  0  0  0  0  0  0  0  0  0  0  0
    0.9546  -15.5353    3.4502 C   0  0  0  0  0  0  0  0  0  0  0  0
    1.1237  -14.2161    3.7097 C   0  0  0  0  0  0  0  0  0  0  0  0
    1.2767  -17.5901    1.8509 Cl  0  0  0  0  0  0  0  0  0  0  0  0
    1.6286   -9.5005   -0.3375 C   0  0  0  0  0  0  0  0  0  0  0  0
    0.4673   -9.5948   -1.0047 O   0  0  0  0  0  0  0  0  0  0  0  0
  3  7  1  0
  7  8  2  0
  7  9  1  0
  9 10  1  0
  6 11  1  0
 14 17  1  0
  4 18  1  0
 18 19  2  0
  1  2  2  0
  2  3  1  0
  3  4  2  0
  4  5  1  0
  5  6  2  0
  1  6  1  0
 10 12  2  0
 12 13  1  0
 13 14  2  0
 14 15  1  0
 15 16  2  0
 10 16  1  0
M  END

$$$$
No_4125-/export/home/yangzhenyu/potential_scad_32_flow//YTHDC2/2024-12-06-03-22-00/
     RDKit          3D

 17 18  0  0  1  0  0  0  0  0999 V2000
    1.1787   -8.0297    3.5154 C   0  0  0  0  0  0  0  0  0  0  0  0
    1.0491   -6.8434    2.9820 C   0  0  0  0  0  0  0  0  0  0  0  0
    0.0950   -8.8404    3.2292 C   0  0  0  0  0  0  0  0  0  0  0  0
   -0.9173   -8.4596    2.5152 C   0  0  0  0  0  0  0  0  0  0  0  0
   -1.0331   -7.2162    2.0653 C   0  0  0  0  0  0  0  0  0  0  0  0
   -0.0105   -6.3168    2.3081 C   0  0  0  0  0  0  0  0  0  0  0  0
    0.0485   -4.9783    1.8782 C   0  0  0  0  0  0  0  0  0  0  0  0
   -0.4744   -4.1559    2.2381 Cl  0  0  0  0  0  0  0  0  0  0  0  0
    0.2048  -10.4623    3.7736 S   0  0  0  0  0  0  0  0  0  0  0  0
    0.4125  -11.4348    2.5690 C   0  0  0  0  0  0  0  0  0  0  0  0
    0.7629  -11.0444    1.4907 C   0  0  1  0  0  0  0  0  0  0  0  0
    0.0504  -11.0799    0.4685 C   0  0  0  0  0  0  0  0  0  0  0  0
    0.2107  -10.3081   -0.7243 C   0  0  0  0  0  0  0  0  0  0  0  0
    1.2731   -9.3588   -0.6656 C   0  0  0  0  0  0  0  0  0  0  0  0
    2.0619   -9.2272    0.3657 C   0  0  0  0  0  0  0  0  0  0  0  0
    1.8925  -10.0540    1.4388 C   0  0  0  0  0  0  0  0  0  0  0  0
    3.1837   -8.4472    0.2744 O   0  0  0  0  0  0  0  0  0  0  0  0
  6  7  1  0
  7  8  1  0
  3  9  1  0
  9 10  1  0
 11 10  1  1
 12 13  1  0
 14 15  1  0
 11 16  1  0
 15 16  1  0
 15 17  2  0
 13 14  1  0
 11 12  1  0
  1  2  2  0
  2  6  1  0
  5  6  2  0
  4  5  1  0
  3  4  2  0
  1  3  1  0
M  END

$$$$
No_4126-/export/home/yangzhenyu/potential_scad_32_flow//YTHDC2/2024-12-06-03-22-00/
     RDKit          3D

 18 19  0  0  1  0  0  0  0  0999 V2000
    1.1787   -8.0297    3.5154 C   0  0  0  0  0  0  0  0  0  0  0  0
    1.1048   -9.2215    3.2892 C   0  0  0  0  0  0  0  0  0  0  0  0
    1.2339   -9.7611    2.0189 C   0  0  0  0  0  0  0  0  0  0  0  0
    1.3583   -9.0036    0.9764 C   0  0  0  0  0  0  0  0  0  0  0  0
    1.5996   -7.6362    1.1311 C   0  0  0  0  0  0  0  0  0  0  0  0
    1.4830   -7.0928    2.3626 C   0  0  0  0  0  0  0  0  0  0  0  0
    1.5395   -5.7300    2.6182 C   0  0  0  0  0  0  0  0  0  0  0  0
    1.1775  -11.2233    1.8407 C   0  0  0  0  0  0  0  0  0  0  0  0
    0.7252  -11.5870    0.5412 O   0  0  0  0  0  0  0  0  0  0  0  0
    1.6561  -12.0585    2.6191 N   0  0  0  0  0  0  0  0  0  0  0  0
    1.6681  -13.4386    2.3529 C   0  0  2  0  0  0  0  0  0  0  0  0
    2.7136  -14.1523    1.7590 C   0  0  0  0  0  0  0  0  0  0  0  0
    0.4586  -14.0695    2.5397 C   0  0  0  0  0  0  0  0  0  0  0  0
   -0.6563  -13.5564    2.8845 O   0  0  0  0  0  0  0  0  0  0  0  0
    0.5604  -15.5430    2.5556 N   0  0  0  0  0  0  0  0  0  0  0  0
    0.6293   -4.8773    2.7685 Cl  0  0  0  0  0  0  0  0  0  0  0  0
    1.7368  -16.1464    2.4759 C   0  0  0  0  0  0  0  0  0  0  0  0
    2.8255  -15.5067    1.9145 N   0  0  0  0  0  0  0  0  0  0  0  0
  6  7  1  0
  3  8  1  0
  8  9  2  0
  8 10  1  0
 11 10  1  6
 11 12  1  0
 11 13  1  0
 13 14  2  0
 13 15  1  0
  7 16  1  0
 12 18  1  0
 17 18  1  0
 15 17  1  0
  1  2  2  0
  2  3  1  0
  3  4  2  0
  4  5  1  0
  5  6  2  0
  1  6  1  0
M  END

$$$$
No_4127-/export/home/yangzhenyu/potential_scad_32_flow//YTHDC2/2024-12-06-03-22-00/
     RDKit          3D

 18 19  0  0  1  0  0  0  0  0999 V2000
    1.1787   -8.0297    3.5154 C   0  0  0  0  0  0  0  0  0  0  0  0
    1.1048   -9.2215    3.2892 C   0  0  0  0  0  0  0  0  0  0  0  0
    1.2339   -9.7611    2.0189 C   0  0  0  0  0  0  0  0  0  0  0  0
    1.3583   -9.0036    0.9764 C   0  0  0  0  0  0  0  0  0  0  0  0
    1.5996   -7.6362    1.1311 C   0  0  0  0  0  0  0  0  0  0  0  0
    1.4830   -7.0928    2.3626 C   0  0  0  0  0  0  0  0  0  0  0  0
    1.1171  -11.3311    1.8661 C   0  0  2  0  0  0  0  0  0  0  0  0
    1.9975  -12.1095    2.2478 C   0  0  0  0  0  0  0  0  0  0  0  0
    1.7697  -13.4418    1.9079 C   0  0  1  0  0  0  0  0  0  0  0  0
    0.8824  -13.8563    1.1154 C   0  0  0  0  0  0  0  0  0  0  0  0
   -0.0664  -12.9335    0.5986 C   0  0  1  0  0  0  0  0  0  0  0  0
    0.1158  -11.5559    0.9634 C   0  0  0  0  0  0  0  0  0  0  0  0
    1.5514   -5.6395    2.6394 Cl  0  0  0  0  0  0  0  0  0  0  0  0
   -0.8042  -10.6759    0.4501 O   0  0  0  0  0  0  0  0  0  0  0  0
    2.7712  -14.3954    2.4428 Cl  0  0  0  0  0  0  0  0  0  0  0  0
    1.5861   -9.4234   -0.3604 O   0  0  0  0  0  0  0  0  0  0  0  0
    0.8820  -10.1554    4.4033 Cl  0  0  0  0  0  0  0  0  0  0  0  0
   -1.0926  -13.3625   -0.3000 C   0  0  0  0  0  0  0  0  0  0  0  0
  7  3  1  6
  7  8  1  0
  9 10  1  0
  7 12  1  0
 11 12  1  0
  6 13  1  0
 12 14  2  0
  9 15  1  6
  4 16  1  0
  2 17  1  0
 11 18  1  6
  8  9  1  0
 10 11  1  0
  1  2  2  0
  2  3  1  0
  3  4  2  0
  4  5  1  0
  5  6  2  0
  1  6  1  0
M  END

$$$$
No_4128-/export/home/yangzhenyu/potential_scad_32_flow//YTHDC2/2024-12-06-03-22-00/
     RDKit          3D

 19 20  0  0  1  0  0  0  0  0999 V2000
    1.1787   -8.0297    3.5154 C   0  0  0  0  0  0  0  0  0  0  0  0
    1.0491   -6.8434    2.9820 C   0  0  2  0  0  0  0  0  0  0  0  0
    0.9905   -9.0774    2.6527 C   0  0  1  0  0  0  0  0  0  0  0  0
    0.7897   -8.9519    1.3691 C   0  0  0  0  0  0  0  0  0  0  0  0
    0.7018   -7.7198    0.7892 C   0  0  0  0  0  0  0  0  0  0  0  0
    0.8918   -6.5957    1.6117 C   0  0  0  0  0  0  0  0  0  0  0  0
    1.0998  -10.4710    3.2437 C   0  0  1  0  0  0  0  0  0  0  0  0
    2.1917  -10.8879    3.7399 C   0  0  0  0  0  0  0  0  0  0  0  0
    0.8983   -5.2566    1.2088 O   0  0  0  0  0  0  0  0  0  0  0  0
   -0.0200  -11.2248    3.3627 C   0  0  0  0  0  0  0  0  0  0  0  0
   -0.0780  -12.5021    3.1735 N   0  0  0  0  0  0  0  0  0  0  0  0
    2.2822  -12.3140    4.0251 N   0  0  0  0  0  0  0  0  0  0  0  0
    1.2438  -13.0260    3.6880 C   0  0  0  0  0  0  0  0  0  0  0  0
    1.3171  -14.3645    3.8061 O   0  0  0  0  0  0  0  0  0  0  0  0
    0.6300   -9.9763    0.3625 C   0  0  0  0  0  0  0  0  0  0  0  0
   -0.4781  -10.2663   -0.0538 O   0  0  0  0  0  0  0  0  0  0  0  0
    1.7353  -10.7303    0.0817 O   0  0  0  0  0  0  0  0  0  0  0  0
    1.3560   -5.7180    3.7935 C   0  0  0  0  0  0  0  0  0  0  0  0
    3.3276  -10.2484    3.7798 O   0  0  0  0  0  0  0  0  0  0  0  0
  1  2  1  0
  3  4  1  0
  2  6  1  0
  5  6  1  0
  3  7  1  0
  7  8  1  0
  6  9  2  0
  7 10  1  1
  8 12  1  0
 11 13  1  0
 12 13  1  0
 13 14  2  0
  4 15  1  0
 15 16  2  0
 15 17  1  0
  2 18  1  6
  8 19  2  0
 10 11  1  0
  3  1  1  6
  4  5  1  0
M  END

$$$$
No_4129-/export/home/yangzhenyu/potential_scad_32_flow//YTHDC2/2024-12-06-03-22-00/
     RDKit          3D

 18 20  0  0  0  0  0  0  0  0999 V2000
    1.1787   -8.0297    3.5154 C   0  0  0  0  0  0  0  0  0  0  0  0
    1.1048   -9.2215    3.2892 C   0  0  0  0  0  0  0  0  0  0  0  0
    1.3627  -10.1721    4.3044 C   0  0  0  0  0  0  0  0  0  0  0  0
    1.0682  -11.5187    4.0618 C   0  0  0  0  0  0  0  0  0  0  0  0
    0.6332  -11.9655    2.9682 C   0  0  0  0  0  0  0  0  0  0  0  0
    0.4776  -11.1308    1.9203 C   0  0  0  0  0  0  0  0  0  0  0  0
    0.7470   -9.8274    2.0368 C   0  0  0  0  0  0  0  0  0  0  0  0
    0.5535   -7.1314    2.6861 C   0  0  0  0  0  0  0  0  0  0  0  0
    0.2950   -7.6000    1.3275 C   0  0  0  0  0  0  0  0  0  0  0  0
    0.2693   -8.8631    1.0973 C   0  0  0  0  0  0  0  0  0  0  0  0
    0.4787  -13.3960    2.7088 C   0  0  0  0  0  0  0  0  0  0  0  0
    1.3658  -14.3257    3.1313 N   0  0  0  0  0  0  0  0  0  0  0  0
   -0.5167  -13.8177    1.9589 C   0  0  0  0  0  0  0  0  0  0  0  0
    1.1632  -15.6083    2.9181 C   0  0  0  0  0  0  0  0  0  0  0  0
    0.1784  -16.0620    2.2683 N   0  0  0  0  0  0  0  0  0  0  0  0
   -0.6610  -15.1757    1.7668 C   0  0  0  0  0  0  0  0  0  0  0  0
   -0.1171   -9.2544   -0.2073 N   0  0  0  0  0  0  0  0  0  0  0  0
   -1.3992   -9.4467   -0.5456 C   0  0  0  0  0  0  0  0  0  0  0  0
  5 11  1  0
 10 17  1  0
 17 18  1  0
  2  3  1  0
  3  4  2  0
  4  5  1  0
  5  6  2  0
  6  7  1  0
 11 12  2  0
 12 14  1  0
 14 15  2  0
 15 16  1  0
 13 16  2  0
 11 13  1  0
  1  2  2  0
  2  7  1  0
  7 10  2  0
  9 10  1  0
  8  9  2  0
  1  8  1  0
M  END

$$$$
No_4130-/export/home/yangzhenyu/potential_scad_32_flow//YTHDC2/2024-12-06-03-22-00/
     RDKit          3D

 20 20  0  0  1  0  0  0  0  0999 V2000
    1.1787   -8.0297    3.5154 C   0  0  0  0  0  0  0  0  0  0  0  0
    1.1048   -9.2215    3.2892 C   0  0  0  0  0  0  0  0  0  0  0  0
    1.3627  -10.1721    4.3044 C   0  0  0  0  0  0  0  0  0  0  0  0
    1.0682  -11.5187    4.0618 C   0  0  0  0  0  0  0  0  0  0  0  0
    0.6332  -11.9655    2.9682 C   0  0  0  0  0  0  0  0  0  0  0  0
    0.4776  -11.1308    1.9203 C   0  0  0  0  0  0  0  0  0  0  0  0
    0.7470   -9.8274    2.0368 C   0  0  0  0  0  0  0  0  0  0  0  0
    1.0387   -7.0301    2.5175 N   0  0  0  0  0  0  0  0  0  0  0  0
    1.0482   -5.6912    2.8349 C   0  0  1  0  0  0  0  0  0  0  0  0
    0.4271  -13.4280    2.7942 C   0  0  0  0  0  0  0  0  0  0  0  0
    0.8582  -14.0616    1.6937 C   0  0  0  0  0  0  0  0  0  0  0  0
    2.2645  -13.9021    1.3150 C   0  0  0  0  0  0  0  0  0  0  0  0
    1.6833   -5.2157    3.8766 C   0  0  0  0  0  0  0  0  0  0  0  0
    0.5717   -4.9008    1.8030 C   0  0  0  0  0  0  0  0  0  0  0  0
    0.0630   -5.4105    0.7376 C   0  0  0  0  0  0  0  0  0  0  0  0
    0.7159   -3.5531    1.8610 C   0  0  0  0  0  0  0  0  0  0  0  0
    0.0653  -13.4853    0.4871 C   0  0  0  0  0  0  0  0  0  0  0  0
    0.6327  -15.4415    1.7272 C   0  0  0  0  0  0  0  0  0  0  0  0
    0.1954   -2.7635    0.9035 C   0  0  0  0  0  0  0  0  0  0  0  0
   -0.7004   -4.7311   -0.1960 C   0  0  0  0  0  0  0  0  0  0  0  0
  1  2  1  0
  1  8  1  0
  8  9  1  0
  5 10  1  0
 10 11  1  0
 11 12  1  0
  9 13  1  6
  9 14  1  0
 14 15  1  0
 14 16  1  0
 11 17  1  0
 11 18  1  0
 16 19  2  0
 15 20  2  0
  2  3  2  0
  3  4  1  0
  4  5  2  0
  5  6  1  0
  6  7  2  0
  2  7  1  0
M  END

$$$$
No_4131-/export/home/yangzhenyu/potential_scad_32_flow//YTHDC2/2024-12-06-03-22-00/
     RDKit          3D

 20 21  0  0  0  0  0  0  0  0999 V2000
    1.1787   -8.0297    3.5154 C   0  0  0  0  0  0  0  0  0  0  0  0
    1.1048   -9.2215    3.2892 C   0  0  0  0  0  0  0  0  0  0  0  0
    1.2339   -9.7611    2.0189 C   0  0  0  0  0  0  0  0  0  0  0  0
    1.3583   -9.0036    0.9764 C   0  0  0  0  0  0  0  0  0  0  0  0
    1.5996   -7.6362    1.1311 C   0  0  0  0  0  0  0  0  0  0  0  0
    1.4830   -7.0928    2.3626 C   0  0  0  0  0  0  0  0  0  0  0  0
    1.5395   -5.7300    2.6182 C   0  0  0  0  0  0  0  0  0  0  0  0
    1.1775  -11.2233    1.8407 C   0  0  0  0  0  0  0  0  0  0  0  0
    1.9057  -12.1147    2.3397 C   0  0  0  0  0  0  0  0  0  0  0  0
    1.6867  -13.4551    2.0621 C   0  0  0  0  0  0  0  0  0  0  0  0
    0.7025  -13.8511    1.3021 C   0  0  0  0  0  0  0  0  0  0  0  0
   -0.1111  -12.9140    0.6527 C   0  0  0  0  0  0  0  0  0  0  0  0
    0.1535  -11.5434    0.9240 C   0  0  0  0  0  0  0  0  0  0  0  0
    0.6176   -4.8912    2.7736 C   0  0  0  0  0  0  0  0  0  0  0  0
    0.7262   -3.4752    3.0382 N   0  0  0  0  0  0  0  0  0  0  0  0
    2.5142  -14.4297    2.7629 Cl  0  0  0  0  0  0  0  0  0  0  0  0
   -0.7727  -10.6982    0.4320 C   0  0  0  0  0  0  0  0  0  0  0  0
   -0.8082  -10.3111   -0.8820 C   0  0  0  0  0  0  0  0  0  0  0  0
   -1.7182   -9.4081   -1.4836 C   0  0  0  0  0  0  0  0  0  0  0  0
   -2.6368   -8.8992   -0.5899 C   0  0  0  0  0  0  0  0  0  0  0  0
  6  7  1  0
  3  8  1  0
  7 14  2  3
 14 15  1  0
 10 16  1  0
 13 17  1  0
 17 18  2  3
 18 19  1  0
 19 20  2  0
  1  2  2  0
  2  3  1  0
  3  4  2  0
  4  5  1  0
  5  6  2  0
  1  6  1  0
  8  9  2  0
  9 10  1  0
 10 11  2  0
 11 12  1  0
 12 13  2  0
  8 13  1  0
M  END

$$$$
No_4132-/export/home/yangzhenyu/potential_scad_32_flow//YTHDC2/2024-12-06-03-22-00/
     RDKit          3D

 18 19  0  0  0  0  0  0  0  0999 V2000
    1.1787   -8.0297    3.5154 C   0  0  0  0  0  0  0  0  0  0  0  0
    1.0491   -6.8434    2.9820 C   0  0  0  0  0  0  0  0  0  0  0  0
    0.9905   -9.0774    2.6527 C   0  0  0  0  0  0  0  0  0  0  0  0
    0.7897   -8.9519    1.3691 C   0  0  0  0  0  0  0  0  0  0  0  0
    0.7018   -7.7198    0.7892 C   0  0  0  0  0  0  0  0  0  0  0  0
    0.8918   -6.5957    1.6117 C   0  0  0  0  0  0  0  0  0  0  0  0
    1.0998  -10.4710    3.2437 C   0  0  0  0  0  0  0  0  0  0  0  0
    1.3102  -11.5554    2.5214 C   0  0  0  0  0  0  0  0  0  0  0  0
    1.4257  -12.8124    3.1919 C   0  0  0  0  0  0  0  0  0  0  0  0
    0.9222  -13.9339    2.5039 C   0  0  0  0  0  0  0  0  0  0  0  0
   -0.1904  -14.0081    1.9344 C   0  0  0  0  0  0  0  0  0  0  0  0
    0.8519   -5.2583    1.2471 C   0  0  0  0  0  0  0  0  0  0  0  0
   -0.2305  -14.3422    0.8002 C   0  0  0  0  0  0  0  0  0  0  0  0
    0.6202  -15.1484    0.1494 C   0  0  0  0  0  0  0  0  0  0  0  0
    1.8015  -15.3046    0.6997 C   0  0  0  0  0  0  0  0  0  0  0  0
    2.0312  -14.7541    1.9521 C   0  0  0  0  0  0  0  0  0  0  0  0
    0.1752   -4.3014    2.0140 C   0  0  0  0  0  0  0  0  0  0  0  0
    0.1601   -3.0687    1.5479 C   0  0  0  0  0  0  0  0  0  0  0  0
  3  7  1  0
  7  8  2  3
  8  9  1  0
  9 10  1  0
  6 12  1  0
 12 17  1  0
 17 18  1  0
  1  2  2  0
  2  6  1  0
  5  6  2  0
  4  5  1  0
  3  4  2  0
  1  3  1  0
 10 11  2  0
 11 13  1  0
 13 14  2  0
 14 15  1  0
 15 16  2  0
 10 16  1  0
M  END

$$$$
No_4133-/export/home/yangzhenyu/potential_scad_32_flow//YTHDC2/2024-12-06-03-22-00/
     RDKit          3D

 17 18  0  0  1  0  0  0  0  0999 V2000
    1.1787   -8.0297    3.5154 C   0  0  0  0  0  0  0  0  0  0  0  0
    1.1048   -9.2215    3.2892 C   0  0  0  0  0  0  0  0  0  0  0  0
    1.2339   -9.7611    2.0189 C   0  0  0  0  0  0  0  0  0  0  0  0
    1.1954  -11.2312    1.8661 C   0  0  2  0  0  0  0  0  0  0  0  0
    1.5546  -12.1691    2.7931 C   0  0  0  0  0  0  0  0  0  0  0  0
    1.9366   -7.1955    3.3930 C   0  0  0  0  0  0  0  0  0  0  0  0
    1.5119  -13.5279    2.3423 C   0  0  0  0  0  0  0  0  0  0  0  0
    1.1377  -13.8366    1.1003 C   0  0  0  0  0  0  0  0  0  0  0  0
    0.7877  -12.9011    0.1251 C   0  0  0  0  0  0  0  0  0  0  0  0
    0.8244  -11.5992    0.4992 C   0  0  0  0  0  0  0  0  0  0  0  0
    1.5337   -8.8079    0.8979 C   0  0  0  0  0  0  0  0  0  0  0  0
    1.9769   -7.4628    1.1320 C   0  0  0  0  0  0  0  0  0  0  0  0
    2.0353   -6.6525    1.9566 C   0  0  0  0  0  0  0  0  0  0  0  0
    1.9706  -14.5688    3.4876 Cl  0  0  0  0  0  0  0  0  0  0  0  0
    1.8766   -5.8350    4.1291 O   0  0  0  0  0  0  0  0  0  0  0  0
    2.2164   -5.3373    1.6489 O   0  0  0  0  0  0  0  0  0  0  0  0
    0.4522  -10.7145   -0.3993 O   0  0  0  0  0  0  0  0  0  0  0  0
  1  2  1  0
  2  3  2  0
  4  3  1  6
  4  5  1  0
  1  6  2  0
  7  8  1  0
  4 10  1  0
  9 10  1  0
  3 11  1  0
 11 12  2  0
  6 13  1  0
 12 13  1  0
  7 14  1  0
  6 15  1  0
 13 16  2  0
 10 17  2  0
  5  7  1  0
  8  9  1  0
M  END

$$$$
No_4134-/export/home/yangzhenyu/potential_scad_32_flow//YTHDC2/2024-12-06-03-22-00/
     RDKit          3D

 17 17  0  0  1  0  0  0  0  0999 V2000
    1.1787   -8.0297    3.5154 C   0  0  0  0  0  0  0  0  0  0  0  0
    1.1048   -9.2215    3.2892 C   0  0  0  0  0  0  0  0  0  0  0  0
    1.2339   -9.7611    2.0189 C   0  0  0  0  0  0  0  0  0  0  0  0
    1.3583   -9.0036    0.9764 C   0  0  0  0  0  0  0  0  0  0  0  0
    1.5996   -7.6362    1.1311 C   0  0  0  0  0  0  0  0  0  0  0  0
    1.4830   -7.0928    2.3626 C   0  0  0  0  0  0  0  0  0  0  0  0
    1.5395   -5.7300    2.6182 C   0  0  0  0  0  0  0  0  0  0  0  0
    1.1775  -11.2233    1.8407 C   0  0  0  0  0  0  0  0  0  0  0  0
    1.9057  -12.1147    2.3397 C   0  0  1  0  0  0  0  0  0  0  0  0
    1.8570  -12.2582    3.5930 C   0  0  0  0  0  0  0  0  0  0  0  0
    1.7771  -13.4969    1.6993 C   0  0  0  0  0  0  0  0  0  0  0  0
    0.6235   -4.8980    2.7729 O   0  0  0  0  0  0  0  0  0  0  0  0
    2.5516  -11.2358    4.1856 C   0  0  0  0  0  0  0  0  0  0  0  0
    1.0696  -14.3471    2.3776 C   0  0  0  0  0  0  0  0  0  0  0  0
    0.8014  -15.5990    1.8551 O   0  0  0  0  0  0  0  0  0  0  0  0
    0.8375  -14.4369    3.6645 O   0  0  0  0  0  0  0  0  0  0  0  0
    1.5430   -9.5172   -0.4165 S   0  0  0  0  0  0  0  0  0  0  0  0
  6  7  1  0
  3  8  1  0
  9  8  1  6
  9 10  1  0
  9 11  1  0
  7 12  2  0
 10 13  1  0
 11 14  1  0
 14 15  2  0
 14 16  1  0
  4 17  1  0
  1  2  2  0
  2  3  1  0
  3  4  2  0
  4  5  1  0
  5  6  2  0
  1  6  1  0
M  END

$$$$
No_4135-/export/home/yangzhenyu/potential_scad_32_flow//YTHDC2/2024-12-06-03-22-00/
     RDKit          3D

 18 19  0  0  0  0  0  0  0  0999 V2000
    1.1787   -8.0297    3.5154 C   0  0  0  0  0  0  0  0  0  0  0  0
    1.1048   -9.2215    3.2892 C   0  0  0  0  0  0  0  0  0  0  0  0
    1.2339   -9.7611    2.0189 C   0  0  0  0  0  0  0  0  0  0  0  0
    1.3583   -9.0036    0.9764 C   0  0  0  0  0  0  0  0  0  0  0  0
    1.5996   -7.6362    1.1311 C   0  0  0  0  0  0  0  0  0  0  0  0
    1.4830   -7.0928    2.3626 C   0  0  0  0  0  0  0  0  0  0  0  0
    1.3121   -5.7497    2.5440 C   0  0  0  0  0  0  0  0  0  0  0  0
    1.2165  -11.3822    1.8530 C   0  0  0  0  0  0  0  0  0  0  0  0
    1.7698  -12.1328    2.5755 C   0  0  0  0  0  0  0  0  0  0  0  0
    1.6110  -13.5130    2.2388 C   0  0  0  0  0  0  0  0  0  0  0  0
    0.9363  -13.8969    1.1513 C   0  0  0  0  0  0  0  0  0  0  0  0
    0.3632  -12.9544    0.3180 C   0  0  0  0  0  0  0  0  0  0  0  0
    0.4853  -11.6539    0.6320 C   0  0  0  0  0  0  0  0  0  0  0  0
    2.1866  -14.4820    3.1088 Cl  0  0  0  0  0  0  0  0  0  0  0  0
    0.6858   -4.9763    1.6538 C   0  0  0  0  0  0  0  0  0  0  0  0
    0.6001   -3.5504    1.8336 C   0  0  0  0  0  0  0  0  0  0  0  0
    1.5690   -2.8893    2.7087 C   0  0  0  0  0  0  0  0  0  0  0  0
    2.2087   -3.7043    3.6999 C   0  0  0  0  0  0  0  0  0  0  0  0
  6  7  1  0
  3  8  1  0
 10 14  1  0
  7 15  2  3
 15 16  1  0
 16 17  2  3
 17 18  1  0
  1  2  2  0
  2  3  1  0
  3  4  2  0
  4  5  1  0
  5  6  2  0
  1  6  1  0
  8  9  2  0
  9 10  1  0
 10 11  2  0
 11 12  1  0
 12 13  2  0
  8 13  1  0
M  END

$$$$
No_4136-/export/home/yangzhenyu/potential_scad_32_flow//YTHDC2/2024-12-06-03-22-00/
     RDKit          3D

 18 19  0  0  1  0  0  0  0  0999 V2000
    1.1787   -8.0297    3.5154 C   0  0  0  0  0  0  0  0  0  0  0  0
    1.0491   -6.8434    2.9820 C   0  0  0  0  0  0  0  0  0  0  0  0
    0.0950   -8.8404    3.2292 C   0  0  0  0  0  0  0  0  0  0  0  0
   -0.9173   -8.4596    2.5152 C   0  0  0  0  0  0  0  0  0  0  0  0
   -1.0331   -7.2162    2.0653 C   0  0  0  0  0  0  0  0  0  0  0  0
   -0.0105   -6.3168    2.3081 C   0  0  0  0  0  0  0  0  0  0  0  0
    0.1465  -10.2446    3.6981 C   0  0  2  0  0  0  0  0  0  0  0  0
    1.2433  -10.8239    4.0166 C   0  0  0  0  0  0  0  0  0  0  0  0
    1.1033  -12.2936    4.0346 C   0  0  0  0  0  0  0  0  0  0  0  0
    0.0220  -12.9035    3.7006 N   0  0  0  0  0  0  0  0  0  0  0  0
   -0.7136  -11.3995    3.3868 C   0  0  0  0  0  0  0  0  0  0  0  0
   -0.0786   -5.0093    1.8444 Cl  0  0  0  0  0  0  0  0  0  0  0  0
   -1.9039  -11.3685    3.5543 O   0  0  0  0  0  0  0  0  0  0  0  0
    2.6004  -10.3012    4.3239 I   0  0  0  0  0  0  0  0  0  0  0  0
   -2.2056   -6.7648    1.4675 C   0  0  0  0  0  0  0  0  0  0  0  0
   -2.2009   -6.9712   -0.0094 C   0  0  0  0  0  0  0  0  0  0  0  0
   -1.7074   -8.0232   -0.5816 C   0  0  0  0  0  0  0  0  0  0  0  0
   -0.8877   -7.8183   -1.5578 C   0  0  0  0  0  0  0  0  0  0  0  0
  7  3  1  6
  7  8  1  0
  8  9  2  0
  9 10  1  0
  7 11  1  0
 10 11  1  0
  6 12  1  0
 11 13  2  0
  8 14  1  0
  5 15  1  0
 15 16  1  0
 16 17  1  0
 17 18  2  0
  1  2  2  0
  2  6  1  0
  5  6  2  0
  4  5  1  0
  3  4  2  0
  1  3  1  0
M  END

$$$$
No_4137-/export/home/yangzhenyu/potential_scad_32_flow//YTHDC2/2024-12-06-03-22-00/
     RDKit          3D

 20 21  0  0  1  0  0  0  0  0999 V2000
    1.1787   -8.0297    3.5154 C   0  0  0  0  0  0  0  0  0  0  0  0
    1.1048   -9.2215    3.2892 C   0  0  0  0  0  0  0  0  0  0  0  0
    1.2339   -9.7611    2.0189 C   0  0  0  0  0  0  0  0  0  0  0  0
    1.3583   -9.0036    0.9764 C   0  0  0  0  0  0  0  0  0  0  0  0
    1.7077   -9.6100   -0.3010 C   0  0  0  0  0  0  0  0  0  0  0  0
    1.3637   -7.1087    2.3226 C   0  0  0  0  0  0  0  0  0  0  0  0
    1.4257   -7.6645    1.0231 C   0  0  0  0  0  0  0  0  0  0  0  0
    1.9364   -8.8976   -1.3212 O   0  0  0  0  0  0  0  0  0  0  0  0
    1.5810  -10.8409   -0.4184 O   0  0  0  0  0  0  0  0  0  0  0  0
    1.3325   -5.6207    2.4687 C   0  0  0  0  0  0  0  0  0  0  0  0
    1.0037   -4.8749    1.3909 O   0  0  0  0  0  0  0  0  0  0  0  0
    1.9998   -5.0237    3.4318 O   0  0  0  0  0  0  0  0  0  0  0  0
    1.0538  -10.1635    4.3708 Cl  0  0  0  0  0  0  0  0  0  0  0  0
    1.3085  -11.1632    1.9557 C   0  0  1  0  0  0  0  0  0  0  0  0
    2.5962  -11.8689    2.1015 N   0  0  0  0  0  0  0  0  0  0  0  0
    2.5214  -13.2598    1.8727 C   0  0  0  0  0  0  0  0  0  0  0  0
    1.4198  -13.8615    2.2631 C   0  0  0  0  0  0  0  0  0  0  0  0
    0.2079  -13.2225    2.2070 C   0  0  2  0  0  0  0  0  0  0  0  0
    0.2087  -11.8551    2.2577 C   0  0  0  0  0  0  0  0  0  0  0  0
   -0.8904  -13.9501    2.6001 C   0  0  0  0  0  0  0  0  0  0  0  0
  4  5  1  0
  5  8  1  0
  5  9  2  0
  6 10  1  0
 10 11  2  0
 10 12  1  0
  2 13  1  0
 14  3  1  1
 14 15  1  0
 15 16  1  0
 16 17  1  0
 17 18  1  0
 14 19  1  0
 18 19  1  0
 18 20  1  1
  1  2  2  0
  2  3  1  0
  3  4  2  0
  4  7  1  0
  6  7  2  0
  1  6  1  0
M  END

$$$$
No_4138-/export/home/yangzhenyu/potential_scad_32_flow//YTHDC2/2024-12-06-03-22-00/
     RDKit          3D

 19 19  0  0  1  0  0  0  0  0999 V2000
    1.1787   -8.0297    3.5154 C   0  0  0  0  0  0  0  0  0  0  0  0
    1.0491   -6.8434    2.9820 C   0  0  0  0  0  0  0  0  0  0  0  0
    0.0950   -8.8404    3.2292 C   0  0  0  0  0  0  0  0  0  0  0  0
   -0.9173   -8.4596    2.5152 C   0  0  0  0  0  0  0  0  0  0  0  0
   -1.0331   -7.2162    2.0653 C   0  0  0  0  0  0  0  0  0  0  0  0
   -0.0105   -6.3168    2.3081 C   0  0  0  0  0  0  0  0  0  0  0  0
    0.0485   -4.9783    1.8782 C   0  0  0  0  0  0  0  0  0  0  0  0
    0.9625   -4.1072    2.3252 S   0  0  0  0  0  0  0  0  0  0  0  0
    0.7959   -3.2489    2.9722 C   0  0  0  0  0  0  0  0  0  0  0  0
    0.1538  -10.2743    3.6645 C   0  0  0  0  0  0  0  0  0  0  0  0
    1.1914  -10.9318    4.1294 N   0  0  0  0  0  0  0  0  0  0  0  0
   -1.0474  -10.8861    3.9433 O   0  0  0  0  0  0  0  0  0  0  0  0
    2.4870  -10.6138    3.8742 C   0  0  2  0  0  0  0  0  0  0  0  0
   -0.6943   -4.4951    0.8183 O   0  0  0  0  0  0  0  0  0  0  0  0
    2.7577  -10.8023    2.4603 C   0  0  0  0  0  0  0  0  0  0  0  0
    2.0985  -11.5293    1.6527 N   0  0  0  0  0  0  0  0  0  0  0  0
    1.7317  -11.2001    0.4513 C   0  0  0  0  0  0  0  0  0  0  0  0
    1.7238   -9.7961    0.1965 O   0  0  0  0  0  0  0  0  0  0  0  0
    3.4324  -11.1401    4.7870 C   0  0  0  0  0  0  0  0  0  0  0  0
  6  7  1  0
  7  8  1  0
  8  9  1  0
  3 10  1  0
 10 11  1  0
 10 12  2  0
 11 13  1  0
  7 14  2  0
 13 15  1  0
 15 16  1  0
 16 17  1  0
 17 18  2  0
 13 19  1  1
  1  2  2  0
  2  6  1  0
  5  6  2  0
  4  5  1  0
  3  4  2  0
  1  3  1  0
M  END

$$$$
No_4139-/export/home/yangzhenyu/potential_scad_32_flow//YTHDC2/2024-12-06-03-22-00/
     RDKit          3D

 17 18  0  0  0  0  0  0  0  0999 V2000
    1.1787   -8.0297    3.5154 C   0  0  0  0  0  0  0  0  0  0  0  0
    1.1048   -9.2215    3.2892 C   0  0  0  0  0  0  0  0  0  0  0  0
    1.2339   -9.7611    2.0189 C   0  0  0  0  0  0  0  0  0  0  0  0
    1.1954  -11.2312    1.8661 C   0  0  0  0  0  0  0  0  0  0  0  0
    1.5546  -12.1691    2.7931 C   0  0  0  0  0  0  0  0  0  0  0  0
    0.5849   -7.0929    2.5729 C   0  0  0  0  0  0  0  0  0  0  0  0
    0.5651   -5.6716    2.6680 C   0  0  0  0  0  0  0  0  0  0  0  0
   -0.3793   -4.9147    2.1532 C   0  0  0  0  0  0  0  0  0  0  0  0
   -1.1338   -5.5833    1.1338 C   0  0  0  0  0  0  0  0  0  0  0  0
   -1.0551   -6.8583    0.7774 C   0  0  0  0  0  0  0  0  0  0  0  0
   -1.8515   -7.3243   -0.3261 C   0  0  0  0  0  0  0  0  0  0  0  0
   -0.2264   -7.6476    1.6044 C   0  0  0  0  0  0  0  0  0  0  0  0
    1.5659  -11.6760    4.0321 C   0  0  0  0  0  0  0  0  0  0  0  0
    1.4733  -10.2323    4.3484 C   0  0  0  0  0  0  0  0  0  0  0  0
    1.7385  -13.4122    2.5083 C   0  0  0  0  0  0  0  0  0  0  0  0
   -2.2943   -7.0691   -1.2335 C   0  0  0  0  0  0  0  0  0  0  0  0
   -2.8581   -7.8158   -2.2621 C   0  0  0  0  0  0  0  0  0  0  0  0
  1  2  1  0
 10 11  1  0
  5 15  1  0
 11 16  2  3
 16 17  1  0
  1  6  1  0
  2  3  2  0
  3  4  1  0
  4  5  2  0
  5 13  1  0
 13 14  2  0
  2 14  1  0
  6  7  2  0
  7  8  1  0
  8  9  2  0
  9 10  1  0
 10 12  2  0
  6 12  1  0
M  END

$$$$
No_4140-/export/home/yangzhenyu/potential_scad_32_flow//YTHDC2/2024-12-06-03-22-00/
     RDKit          3D

 20 20  0  0  1  0  0  0  0  0999 V2000
    1.1787   -8.0297    3.5154 C   0  0  0  0  0  0  0  0  0  0  0  0
    1.1048   -9.2215    3.2892 C   0  0  0  0  0  0  0  0  0  0  0  0
    1.2339   -9.7611    2.0189 C   0  0  0  0  0  0  0  0  0  0  0  0
    1.3583   -9.0036    0.9764 C   0  0  0  0  0  0  0  0  0  0  0  0
    1.5996   -7.6362    1.1311 C   0  0  0  0  0  0  0  0  0  0  0  0
    1.4830   -7.0928    2.3626 C   0  0  0  0  0  0  0  0  0  0  0  0
    1.5395   -5.7300    2.6182 C   0  0  0  0  0  0  0  0  0  0  0  0
    1.1969  -11.3760    1.8433 C   0  0  1  0  0  0  0  0  0  0  0  0
    1.0771  -11.6644    0.5388 C   0  0  0  0  0  0  0  0  0  0  0  0
    0.3802  -11.2716   -0.2699 C   0  0  0  0  0  0  0  0  0  0  0  0
    1.4874  -12.0800    2.9007 C   0  0  2  0  0  0  0  0  0  0  0  0
    2.4582  -12.0715    3.6607 C   0  0  0  0  0  0  0  0  0  0  0  0
    0.6044  -13.2044    3.0505 C   0  0  0  0  0  0  0  0  0  0  0  0
    0.5700  -14.1338    2.4825 C   0  0  0  0  0  0  0  0  0  0  0  0
    1.7387  -14.5607    1.6202 C   0  0  0  0  0  0  0  0  0  0  0  0
   -0.1325  -15.4232    2.8588 C   0  0  0  0  0  0  0  0  0  0  0  0
    1.2606   -5.1011    3.4792 O   0  0  0  0  0  0  0  0  0  0  0  0
    1.8127   -4.9686    1.5109 O   0  0  0  0  0  0  0  0  0  0  0  0
    0.5067  -16.4219    3.5460 C   0  0  0  0  0  0  0  0  0  0  0  0
   -0.1631  -17.3974    4.1786 C   0  0  0  0  0  0  0  0  0  0  0  0
  6  7  1  0
  3  8  1  0
  8  9  1  6
  9 10  2  0
  8 11  1  0
 11 12  1  6
 11 13  1  0
 13 14  2  3
 14 15  1  0
 14 16  1  0
  7 17  1  0
  7 18  2  0
 16 19  1  0
 19 20  2  0
  1  2  2  0
  2  3  1  0
  3  4  2  0
  4  5  1  0
  5  6  2  0
  1  6  1  0
M  END

$$$$
No_4141-/export/home/yangzhenyu/potential_scad_32_flow//YTHDC2/2024-12-06-03-22-00/
     RDKit          3D

 19 20  0  0  0  0  0  0  0  0999 V2000
    1.1787   -8.0297    3.5154 N   0  0  0  0  0  0  0  0  0  0  0  0
    1.0818   -9.0751    3.2053 C   0  0  0  0  0  0  0  0  0  0  0  0
    0.7576   -9.3725    1.9159 C   0  0  0  0  0  0  0  0  0  0  0  0
    0.8823   -8.4917    1.0547 C   0  0  0  0  0  0  0  0  0  0  0  0
    1.4631   -7.3107    1.2451 C   0  0  0  0  0  0  0  0  0  0  0  0
    1.6470   -6.9326    2.5669 C   0  0  0  0  0  0  0  0  0  0  0  0
    1.0024  -10.2234    4.2810 Cl  0  0  0  0  0  0  0  0  0  0  0  0
    0.7734   -8.8258   -0.6182 C   0  0  0  0  0  0  0  0  0  0  0  0
    0.9843   -9.8112   -0.9716 O   0  0  0  0  0  0  0  0  0  0  0  0
    0.1911   -7.9032   -1.2177 O   0  0  0  0  0  0  0  0  0  0  0  0
    1.7693   -5.6398    3.0729 C   0  0  0  0  0  0  0  0  0  0  0  0
    0.9577   -4.7314    3.2409 O   0  0  0  0  0  0  0  0  0  0  0  0
    0.5307  -10.8002    1.5532 C   0  0  0  0  0  0  0  0  0  0  0  0
    1.6027  -11.7417    1.3026 C   0  0  0  0  0  0  0  0  0  0  0  0
    1.5594  -12.9863    1.6746 C   0  0  0  0  0  0  0  0  0  0  0  0
    0.3990  -13.6172    1.7440 C   0  0  0  0  0  0  0  0  0  0  0  0
   -0.7376  -12.8371    1.9277 C   0  0  0  0  0  0  0  0  0  0  0  0
   -0.6469  -11.4005    1.7440 C   0  0  0  0  0  0  0  0  0  0  0  0
    0.1646  -15.0912    1.9433 C   0  0  0  0  0  0  0  0  0  0  0  0
  2  7  1  0
  4  8  1  0
  8  9  2  0
  8 10  1  0
  6 11  1  0
 11 12  2  0
  3 13  1  0
 16 19  1  0
  1  2  2  0
  2  3  1  0
  3  4  2  0
  4  5  1  0
  5  6  2  0
  1  6  1  0
 13 14  2  0
 14 15  1  0
 15 16  2  0
 16 17  1  0
 17 18  2  0
 13 18  1  0
M  END

$$$$
No_4142-/export/home/yangzhenyu/potential_scad_32_flow//YTHDC2/2024-12-06-03-22-00/
     RDKit          3D

 18 19  0  0  0  0  0  0  0  0999 V2000
    1.1787   -8.0297    3.5154 C   0  0  0  0  0  0  0  0  0  0  0  0
    1.0491   -6.8434    2.9820 C   0  0  0  0  0  0  0  0  0  0  0  0
    0.0950   -8.8404    3.2292 C   0  0  0  0  0  0  0  0  0  0  0  0
   -0.9173   -8.4596    2.5152 C   0  0  0  0  0  0  0  0  0  0  0  0
   -1.0331   -7.2162    2.0653 C   0  0  0  0  0  0  0  0  0  0  0  0
   -0.0105   -6.3168    2.3081 C   0  0  0  0  0  0  0  0  0  0  0  0
    0.1465  -10.2446    3.6981 C   0  0  0  0  0  0  0  0  0  0  0  0
   -1.0337  -10.8619    3.9439 C   0  0  0  0  0  0  0  0  0  0  0  0
   -2.1702  -10.4673    3.2991 C   0  0  0  0  0  0  0  0  0  0  0  0
   -2.1358   -9.2084    2.5791 C   0  0  0  0  0  0  0  0  0  0  0  0
   -0.0407   -4.9560    1.8452 C   0  0  0  0  0  0  0  0  0  0  0  0
    0.8459   -4.0706    2.2047 O   0  0  0  0  0  0  0  0  0  0  0  0
   -0.9720   -4.5156    1.0533 O   0  0  0  0  0  0  0  0  0  0  0  0
    1.3050  -10.7281    4.5353 C   0  0  0  0  0  0  0  0  0  0  0  0
    2.1922  -11.4647    3.7010 C   0  0  0  0  0  0  0  0  0  0  0  0
    1.7768  -11.8504    2.5696 N   0  0  0  0  0  0  0  0  0  0  0  0
    1.9968  -11.1559    1.3621 C   0  0  0  0  0  0  0  0  0  0  0  0
    2.7476  -10.0113    1.3523 O   0  0  0  0  0  0  0  0  0  0  0  0
  6 11  1  0
 11 12  1  0
 11 13  2  0
  7 14  1  0
 14 15  1  0
 15 16  1  0
 16 17  1  0
 17 18  2  0
  4 10  2  0
  9 10  1  0
  8  9  2  0
  7  8  1  0
  3  7  2  0
  1  2  2  0
  2  6  1  0
  5  6  2  0
  4  5  1  0
  3  4  1  0
  1  3  1  0
M  END

$$$$
No_4143-/export/home/yangzhenyu/potential_scad_32_flow//YTHDC2/2024-12-06-03-22-00/
     RDKit          3D

 17 18  0  0  0  0  0  0  0  0999 V2000
    1.1787   -8.0297    3.5154 C   0  0  0  0  0  0  0  0  0  0  0  0
    1.0491   -6.8434    2.9820 C   0  0  0  0  0  0  0  0  0  0  0  0
    0.0950   -8.8404    3.2292 C   0  0  0  0  0  0  0  0  0  0  0  0
   -0.9173   -8.4596    2.5152 C   0  0  0  0  0  0  0  0  0  0  0  0
   -1.0331   -7.2162    2.0653 C   0  0  0  0  0  0  0  0  0  0  0  0
   -0.0105   -6.3168    2.3081 C   0  0  0  0  0  0  0  0  0  0  0  0
    0.3809  -10.4500    3.4985 C   0  0  0  0  0  0  0  0  0  0  0  0
    0.6355  -11.3421    2.4981 C   0  0  0  0  0  0  0  0  0  0  0  0
    0.7234  -12.6775    2.9820 C   0  0  0  0  0  0  0  0  0  0  0  0
   -0.1434  -13.4759    2.5756 C   0  0  0  0  0  0  0  0  0  0  0  0
   -0.7947  -13.3258    1.3972 C   0  0  0  0  0  0  0  0  0  0  0  0
   -0.7138  -11.9833    0.8027 C   0  0  0  0  0  0  0  0  0  0  0  0
   -0.0624  -10.9888    1.4133 C   0  0  0  0  0  0  0  0  0  0  0  0
   -0.1467   -4.9972    1.9414 C   0  0  0  0  0  0  0  0  0  0  0  0
   -1.0394   -4.5704    1.1505 C   0  0  0  0  0  0  0  0  0  0  0  0
   -0.9894   -3.1774    0.6534 C   0  0  0  0  0  0  0  0  0  0  0  0
    0.0827   -2.3672    1.0839 C   0  0  0  0  0  0  0  0  0  0  0  0
  3  7  1  0
  7  8  1  0
  6 14  1  0
 14 15  2  3
 15 16  1  0
 16 17  2  0
  1  2  2  0
  2  6  1  0
  5  6  2  0
  4  5  1  0
  3  4  2  0
  1  3  1  0
  8  9  2  0
  9 10  1  0
 10 11  2  0
 11 12  1  0
 12 13  2  0
  8 13  1  0
M  END

$$$$
No_4144-/export/home/yangzhenyu/potential_scad_32_flow//YTHDC2/2024-12-06-03-22-00/
     RDKit          3D

 18 18  0  0  1  0  0  0  0  0999 V2000
    1.1787   -8.0297    3.5154 C   0  0  0  0  0  0  0  0  0  0  0  0
    1.0491   -6.8434    2.9820 C   0  0  0  0  0  0  0  0  0  0  0  0
    2.0004   -8.9805    3.0498 C   0  0  2  0  0  0  0  0  0  0  0  0
    2.3555   -9.0813    1.8033 C   0  0  0  0  0  0  0  0  0  0  0  0
    1.5516   -6.8448    1.5633 C   0  0  0  0  0  0  0  0  0  0  0  0
    2.2171   -7.9366    1.0002 C   0  0  0  0  0  0  0  0  0  0  0  0
    2.6592   -7.8330   -0.2250 O   0  0  0  0  0  0  0  0  0  0  0  0
    2.1138  -10.3255    3.7334 C   0  0  0  0  0  0  0  0  0  0  0  0
    2.4835  -10.3748    4.8725 N   0  0  0  0  0  0  0  0  0  0  0  0
    1.8559  -11.5007    3.2082 O   0  0  0  0  0  0  0  0  0  0  0  0
    3.0308  -11.5530    5.5485 S   0  0  0  0  0  0  0  0  0  0  0  0
    4.2189  -10.8090    6.4199 O   0  0  0  0  0  0  0  0  0  0  0  0
    0.5502   -5.6862    3.4206 O   0  0  0  0  0  0  0  0  0  0  0  0
    1.1018   -4.4779    3.2899 C   0  0  0  0  0  0  0  0  0  0  0  0
    2.1520  -11.8826    6.4106 C   0  0  0  0  0  0  0  0  0  0  0  0
    3.6531  -12.2900    4.6542 O   0  0  0  0  0  0  0  0  0  0  0  0
    1.5020   -5.6375    0.8390 O   0  0  0  0  0  0  0  0  0  0  0  0
    0.2469   -3.3471    3.2086 C   0  0  0  0  0  0  0  0  0  0  0  0
  1  3  1  0
  2  5  1  0
  4  6  1  0
  5  6  1  0
  6  7  2  0
  3  8  1  6
  8  9  1  0
  8 10  2  0
  9 11  1  0
 11 12  1  0
  2 13  1  0
 13 14  1  0
 11 15  1  0
 11 16  1  0
  5 17  2  0
 14 18  1  0
  3  4  1  0
  1  2  1  0
M  END

$$$$
No_4145-/export/home/yangzhenyu/potential_scad_32_flow//YTHDC2/2024-12-06-03-22-00/
     RDKit          3D

 19 20  0  0  0  0  0  0  0  0999 V2000
    1.1787   -8.0297    3.5154 C   0  0  0  0  0  0  0  0  0  0  0  0
    1.0491   -6.8434    2.9820 C   0  0  0  0  0  0  0  0  0  0  0  0
    0.9905   -9.0774    2.6527 C   0  0  0  0  0  0  0  0  0  0  0  0
    0.7897   -8.9519    1.3691 C   0  0  0  0  0  0  0  0  0  0  0  0
    0.7018   -7.7198    0.7892 C   0  0  0  0  0  0  0  0  0  0  0  0
    0.8918   -6.5957    1.6117 C   0  0  0  0  0  0  0  0  0  0  0  0
    1.0774  -10.6059    3.3145 C   0  0  0  0  0  0  0  0  0  0  0  0
    1.2215  -11.6205    2.4178 C   0  0  0  0  0  0  0  0  0  0  0  0
    1.2379  -12.9166    3.0977 C   0  0  0  0  0  0  0  0  0  0  0  0
    1.3537  -14.0715    2.4214 C   0  0  0  0  0  0  0  0  0  0  0  0
    1.8438  -14.1120    1.1532 C   0  0  0  0  0  0  0  0  0  0  0  0
    1.9661  -12.8637    0.5029 C   0  0  0  0  0  0  0  0  0  0  0  0
    1.7058  -11.6621    1.1343 C   0  0  0  0  0  0  0  0  0  0  0  0
    0.8517  -10.6241    4.5616 O   0  0  0  0  0  0  0  0  0  0  0  0
    0.8047   -5.3081    1.0792 O   0  0  0  0  0  0  0  0  0  0  0  0
    1.2253  -15.3474    3.2030 C   0  0  0  0  0  0  0  0  0  0  0  0
    1.8289  -16.5054    2.7986 N   0  0  0  0  0  0  0  0  0  0  0  0
    1.5530  -17.6745    3.2872 C   0  0  0  0  0  0  0  0  0  0  0  0
    2.4013  -18.7629    3.0416 O   0  0  0  0  0  0  0  0  0  0  0  0
  3  7  1  0
  7  8  1  0
  7 14  2  0
  6 15  1  0
 10 16  1  0
 16 17  1  0
 17 18  1  0
 18 19  2  0
  1  2  2  0
  2  6  1  0
  5  6  2  0
  4  5  1  0
  3  4  2  0
  1  3  1  0
  8  9  2  0
  9 10  1  0
 10 11  2  0
 11 12  1  0
 12 13  2  0
  8 13  1  0
M  END

$$$$
No_4146-/export/home/yangzhenyu/potential_scad_32_flow//YTHDC2/2024-12-06-03-22-00/
     RDKit          3D

 18 20  0  0  0  0  0  0  0  0999 V2000
    1.1787   -8.0297    3.5154 C   0  0  0  0  0  0  0  0  0  0  0  0
    1.1048   -9.2215    3.2892 C   0  0  0  0  0  0  0  0  0  0  0  0
    1.4683  -10.2314    4.1915 C   0  0  0  0  0  0  0  0  0  0  0  0
    0.8445   -6.9865    2.5175 C   0  0  0  0  0  0  0  0  0  0  0  0
    0.3587   -7.3973    1.3953 C   0  0  0  0  0  0  0  0  0  0  0  0
    0.1901   -8.6971    1.0711 C   0  0  0  0  0  0  0  0  0  0  0  0
    0.5759   -9.6647    1.9442 C   0  0  0  0  0  0  0  0  0  0  0  0
    1.8402  -11.5521    3.5557 C   0  0  0  0  0  0  0  0  0  0  0  0
    1.4228  -11.9086    2.4385 C   0  0  0  0  0  0  0  0  0  0  0  0
    0.9898  -10.9113    1.5071 C   0  0  0  0  0  0  0  0  0  0  0  0
    1.6583  -13.4570    1.8795 C   0  0  0  0  0  0  0  0  0  0  0  0
    0.7460  -14.3254    2.4417 C   0  0  0  0  0  0  0  0  0  0  0  0
   -0.4619  -14.3393    2.0754 C   0  0  0  0  0  0  0  0  0  0  0  0
   -0.9187  -15.2531    1.5757 C   0  0  0  0  0  0  0  0  0  0  0  0
   -0.3294  -16.5572    1.5355 C   0  0  0  0  0  0  0  0  0  0  0  0
    1.0769  -16.6033    2.0965 C   0  0  0  0  0  0  0  0  0  0  0  0
    1.6507  -15.4886    2.4974 C   0  0  0  0  0  0  0  0  0  0  0  0
    0.9529   -5.5464    2.9006 Cl  0  0  0  0  0  0  0  0  0  0  0  0
  9 11  1  0
 11 12  1  0
  4 18  1  0
 12 13  2  0
 13 14  1  0
 14 15  2  0
 15 16  1  0
 16 17  2  0
 12 17  1  0
  1  2  2  0
  6  7  2  0
  5  6  1  0
  4  5  2  0
  1  4  1  0
  2  3  1  0
  3  8  2  0
  8  9  1  0
  9 10  2  0
  7 10  1  0
  2  7  1  0
M  END

$$$$
No_4147-/export/home/yangzhenyu/potential_scad_32_flow//YTHDC2/2024-12-06-03-22-00/
     RDKit          3D

 19 19  0  0  0  0  0  0  0  0999 V2000
    1.1787   -8.0297    3.5154 O   0  0  0  0  0  0  0  0  0  0  0  0
    0.9969   -8.9689    3.0048 C   0  0  0  0  0  0  0  0  0  0  0  0
    1.3055  -10.1056    3.6616 C   0  0  0  0  0  0  0  0  0  0  0  0
    1.5709  -11.1115    3.2016 C   0  0  0  0  0  0  0  0  0  0  0  0
    1.6332  -11.2629    1.7349 C   0  0  0  0  0  0  0  0  0  0  0  0
    1.4616  -10.1742    0.9691 C   0  0  0  0  0  0  0  0  0  0  0  0
    1.1252   -9.0006    1.6051 C   0  0  0  0  0  0  0  0  0  0  0  0
    0.8275   -7.7749    1.0285 C   0  0  0  0  0  0  0  0  0  0  0  0
    0.2093   -7.9203   -0.1052 O   0  0  0  0  0  0  0  0  0  0  0  0
    1.1971   -6.5674    1.2987 O   0  0  0  0  0  0  0  0  0  0  0  0
    1.8892  -12.4128    3.8240 C   0  0  0  0  0  0  0  0  0  0  0  0
    1.2645  -13.6242    3.4107 N   0  0  0  0  0  0  0  0  0  0  0  0
    1.3770  -14.4142    2.6606 C   0  0  0  0  0  0  0  0  0  0  0  0
    0.4735  -15.5543    2.5868 O   0  0  0  0  0  0  0  0  0  0  0  0
    2.5883  -14.3165    1.8722 C   0  0  0  0  0  0  0  0  0  0  0  0
    2.5903  -15.2049    0.7658 N   0  0  0  0  0  0  0  0  0  0  0  0
    1.2617  -15.5281    0.6207 C   0  0  0  0  0  0  0  0  0  0  0  0
    1.0268  -16.8106    0.4724 C   0  0  0  0  0  0  0  0  0  0  0  0
   -0.1455  -17.2794   -0.0008 C   0  0  0  0  0  0  0  0  0  0  0  0
  1  2  1  0
  7  8  1  0
  8  9  2  0
  8 10  1  0
  4 11  1  0
 11 12  1  0
 12 13  1  0
 13 14  2  0
 13 15  1  0
 15 16  2  3
 16 17  1  0
 17 18  2  3
 18 19  1  0
  2  3  2  0
  3  4  1  0
  4  5  2  0
  5  6  1  0
  6  7  2  0
  2  7  1  0
M  END

$$$$
No_4148-/export/home/yangzhenyu/potential_scad_32_flow//YTHDC2/2024-12-06-03-22-00/
     RDKit          3D

 18 18  0  0  1  0  0  0  0  0999 V2000
    1.1787   -8.0297    3.5154 C   0  0  0  0  0  0  0  0  0  0  0  0
    1.0491   -6.8434    2.9820 C   0  0  0  0  0  0  0  0  0  0  0  0
    0.9905   -9.0774    2.6527 C   0  0  0  0  0  0  0  0  0  0  0  0
    0.7897   -8.9519    1.3691 C   0  0  0  0  0  0  0  0  0  0  0  0
    0.7018   -7.7198    0.7892 C   0  0  0  0  0  0  0  0  0  0  0  0
    0.8918   -6.5957    1.6117 C   0  0  0  0  0  0  0  0  0  0  0  0
    1.0711  -10.4814    3.2282 C   0  0  2  0  0  0  0  0  0  0  0  0
    2.1432  -11.0138    3.5962 C   0  0  0  0  0  0  0  0  0  0  0  0
    0.4111  -11.5110    2.3547 C   0  0  0  0  0  0  0  0  0  0  0  0
   -0.9518  -11.5787    2.6522 C   0  0  2  0  0  0  0  0  0  0  0  0
   -1.4860  -10.6700    3.7320 N   0  0  0  0  0  0  0  0  0  0  0  0
   -1.9532  -12.2946    2.2995 C   0  0  0  0  0  0  0  0  0  0  0  0
   -1.5947  -13.3366    1.5352 C   0  0  0  0  0  0  0  0  0  0  0  0
   -2.5857  -14.1282    0.8864 I   0  0  0  0  0  0  0  0  0  0  0  0
    2.0026  -11.7275    4.9663 O   0  0  0  0  0  0  0  0  0  0  0  0
    0.8677   -5.2648    1.1430 C   0  0  0  0  0  0  0  0  0  0  0  0
   -2.3232  -10.4295    4.2310 C   0  0  0  0  0  0  0  0  0  0  0  0
   -2.5458   -9.4025    5.3272 C   0  0  0  0  0  0  0  0  0  0  0  0
  3  7  1  0
  7  8  1  6
  7  9  1  0
 10  9  1  1
 10 11  1  0
 10 12  1  0
 12 13  2  3
 13 14  1  0
  8 15  1  0
  6 16  1  0
 11 17  2  3
 17 18  1  0
  1  2  2  0
  2  6  1  0
  5  6  2  0
  4  5  1  0
  3  4  2  0
  1  3  1  0
M  END

$$$$
No_4149-/export/home/yangzhenyu/potential_scad_32_flow//YTHDC2/2024-12-06-03-22-00/
     RDKit          3D

 17 18  0  0  1  0  0  0  0  0999 V2000
    1.1787   -8.0297    3.5154 C   0  0  0  0  0  0  0  0  0  0  0  0
    1.0491   -6.8434    2.9820 C   0  0  0  0  0  0  0  0  0  0  0  0
    0.9905   -9.0774    2.6527 C   0  0  0  0  0  0  0  0  0  0  0  0
    0.7897   -8.9519    1.3691 C   0  0  0  0  0  0  0  0  0  0  0  0
    0.7018   -7.7198    0.7892 C   0  0  0  0  0  0  0  0  0  0  0  0
    0.8918   -6.5957    1.6117 C   0  0  0  0  0  0  0  0  0  0  0  0
    1.0998  -10.4710    3.2437 C   0  0  2  0  0  0  0  0  0  0  0  0
    2.1917  -10.8879    3.7399 C   0  0  0  0  0  0  0  0  0  0  0  0
    0.8983   -5.2566    1.2088 N   0  0  0  0  0  0  0  0  0  0  0  0
    0.4922  -11.5137    2.4082 C   0  0  2  0  0  0  0  0  0  0  0  0
   -0.8677  -11.6380    2.6940 C   0  0  0  0  0  0  0  0  0  0  0  0
   -1.5486  -12.7579    2.4145 C   0  0  0  0  0  0  0  0  0  0  0  0
   -0.9191  -13.7633    1.7777 C   0  0  0  0  0  0  0  0  0  0  0  0
    0.4329  -13.6660    1.4613 C   0  0  0  0  0  0  0  0  0  0  0  0
    1.1313  -12.5515    1.7592 C   0  0  0  0  0  0  0  0  0  0  0  0
    2.4473  -12.5401    1.6176 O   0  0  0  0  0  0  0  0  0  0  0  0
    1.4149   -5.6327    3.7414 C   0  0  0  0  0  0  0  0  0  0  0  0
  3  7  1  0
  7  8  1  6
  7 10  1  0
 10 11  1  1
 12 13  1  0
 10 15  1  0
 14 15  1  0
 15 16  2  0
  2 17  1  0
  6  9  1  0
 11 12  1  0
 13 14  1  0
  1  2  2  0
  2  6  1  0
  5  6  2  0
  4  5  1  0
  3  4  2  0
  1  3  1  0
M  END

$$$$
No_4150-/export/home/yangzhenyu/potential_scad_32_flow//YTHDC2/2024-12-06-03-22-00/
     RDKit          3D

 17 17  0  0  0  0  0  0  0  0999 V2000
    1.1787   -8.0297    3.5154 N   0  0  0  0  0  0  0  0  0  0  0  0
    1.0818   -9.0751    3.2053 C   0  0  0  0  0  0  0  0  0  0  0  0
    0.7576   -9.3725    1.9159 C   0  0  0  0  0  0  0  0  0  0  0  0
    0.8823   -8.4917    1.0547 C   0  0  0  0  0  0  0  0  0  0  0  0
    1.4631   -7.3107    1.2451 C   0  0  0  0  0  0  0  0  0  0  0  0
    1.5275   -6.9023    2.7035 C   0  0  0  0  0  0  0  0  0  0  0  0
    1.0085  -10.2680    4.2655 C   0  0  0  0  0  0  0  0  0  0  0  0
    2.0100  -11.0792    4.2845 C   0  0  0  0  0  0  0  0  0  0  0  0
    0.8405   -8.8426   -0.4833 C   0  0  0  0  0  0  0  0  0  0  0  0
   -0.5159   -9.1114   -0.7081 O   0  0  0  0  0  0  0  0  0  0  0  0
    1.6046   -8.8323   -1.2760 O   0  0  0  0  0  0  0  0  0  0  0  0
    1.7157   -5.6518    3.1784 C   0  0  0  0  0  0  0  0  0  0  0  0
    3.1228  -10.6150    4.7804 C   0  0  0  0  0  0  0  0  0  0  0  0
    4.2778  -11.2967    4.5856 N   0  0  0  0  0  0  0  0  0  0  0  0
   -0.2264  -10.4294    4.8168 O   0  0  0  0  0  0  0  0  0  0  0  0
    1.7838   -5.3785    4.4288 O   0  0  0  0  0  0  0  0  0  0  0  0
    1.9832   -4.6420    2.2947 O   0  0  0  0  0  0  0  0  0  0  0  0
  2  7  1  0
  7  8  1  0
  4  9  1  0
  9 10  2  0
  9 11  1  0
  6 12  1  0
  8 13  1  0
 13 14  1  0
  7 15  2  0
 12 16  2  0
 12 17  1  0
  1  2  2  0
  2  3  1  0
  3  4  2  0
  4  5  1  0
  5  6  2  0
  1  6  1  0
M  END

$$$$
No_4151-/export/home/yangzhenyu/potential_scad_32_flow//YTHDC2/2024-12-06-03-22-00/
     RDKit          3D

 19 19  0  0  0  0  0  0  0  0999 V2000
    1.1787   -8.0297    3.5154 C   0  0  0  0  0  0  0  0  0  0  0  0
    1.1048   -9.2215    3.2892 C   0  0  0  0  0  0  0  0  0  0  0  0
    1.3627  -10.1721    4.3044 C   0  0  0  0  0  0  0  0  0  0  0  0
    1.7354  -11.4730    3.9023 C   0  0  0  0  0  0  0  0  0  0  0  0
    1.8080  -11.8127    2.7216 C   0  0  0  0  0  0  0  0  0  0  0  0
    1.5854  -11.0021    1.7249 C   0  0  0  0  0  0  0  0  0  0  0  0
    1.3573   -9.7389    1.9287 C   0  0  0  0  0  0  0  0  0  0  0  0
    1.2865   -8.8078    0.9161 C   0  0  0  0  0  0  0  0  0  0  0  0
    1.6845   -9.1638   -0.2896 C   0  0  0  0  0  0  0  0  0  0  0  0
    2.2611   -8.4546   -1.0900 O   0  0  0  0  0  0  0  0  0  0  0  0
    1.0783  -10.1149   -0.8465 O   0  0  0  0  0  0  0  0  0  0  0  0
    2.0614  -13.2399    2.4034 O   0  0  0  0  0  0  0  0  0  0  0  0
    2.2881   -7.2472    3.6768 O   0  0  0  0  0  0  0  0  0  0  0  0
   -0.0074   -7.5244    3.9497 O   0  0  0  0  0  0  0  0  0  0  0  0
    1.9296  -13.8343    1.1901 C   0  0  0  0  0  0  0  0  0  0  0  0
    1.1681  -14.9320    1.4019 C   0  0  0  0  0  0  0  0  0  0  0  0
    1.5192  -15.8925    2.1277 O   0  0  0  0  0  0  0  0  0  0  0  0
   -0.1376  -14.8277    1.1085 O   0  0  0  0  0  0  0  0  0  0  0  0
    0.8768  -16.7942    2.8009 C   0  0  0  0  0  0  0  0  0  0  0  0
  1  2  1  0
  7  8  1  0
  8  9  1  0
  9 10  2  0
  9 11  1  0
  5 12  1  0
  1 13  2  0
  1 14  1  0
 12 15  1  0
 15 16  1  0
 16 17  1  0
 16 18  2  0
 17 19  1  0
  2  3  2  0
  3  4  1  0
  4  5  2  0
  5  6  1  0
  6  7  2  0
  2  7  1  0
M  END

$$$$
No_4152-/export/home/yangzhenyu/potential_scad_32_flow//YTHDC2/2024-12-06-03-22-00/
     RDKit          3D

 18 19  0  0  0  0  0  0  0  0999 V2000
    1.1787   -8.0297    3.5154 C   0  0  0  0  0  0  0  0  0  0  0  0
    1.1048   -9.2215    3.2892 C   0  0  0  0  0  0  0  0  0  0  0  0
    1.4683  -10.2314    4.1915 C   0  0  0  0  0  0  0  0  0  0  0  0
    0.8445   -6.9865    2.5175 C   0  0  0  0  0  0  0  0  0  0  0  0
    0.9565   -5.6241    2.7496 C   0  0  0  0  0  0  0  0  0  0  0  0
    1.2330  -11.5655    4.0988 C   0  0  0  0  0  0  0  0  0  0  0  0
    0.5689  -11.9716    3.0158 C   0  0  0  0  0  0  0  0  0  0  0  0
    0.1947  -11.0987    2.0084 C   0  0  0  0  0  0  0  0  0  0  0  0
    0.5194   -9.7813    2.1688 C   0  0  0  0  0  0  0  0  0  0  0  0
    0.7413   -4.7378    1.7962 C   0  0  0  0  0  0  0  0  0  0  0  0
    0.8648   -3.3564    1.9447 C   0  0  0  0  0  0  0  0  0  0  0  0
    0.3940  -13.4251    2.8295 C   0  0  0  0  0  0  0  0  0  0  0  0
   -0.6791  -13.9007    2.4221 C   0  0  0  0  0  0  0  0  0  0  0  0
   -0.7831  -15.3742    2.3320 C   0  0  0  0  0  0  0  0  0  0  0  0
   -1.9217  -15.8563    1.9990 C   0  0  0  0  0  0  0  0  0  0  0  0
    0.0325   -8.8848    1.1962 C   0  0  0  0  0  0  0  0  0  0  0  0
    0.3918   -7.5029    1.3541 C   0  0  0  0  0  0  0  0  0  0  0  0
   -1.9492  -17.2928    2.0947 C   0  0  0  0  0  0  0  0  0  0  0  0
  4  5  1  0
  5 10  2  3
 10 11  1  0
  7 12  1  0
 12 13  2  3
 13 14  1  0
 14 15  1  0
 15 18  2  0
  1  2  2  0
  9 16  2  0
 16 17  1  0
  4 17  2  0
  1  4  1  0
  2  3  1  0
  3  6  2  0
  6  7  1  0
  7  8  2  0
  8  9  1  0
  2  9  1  0
M  END

$$$$
No_4153-/export/home/yangzhenyu/potential_scad_32_flow//YTHDC2/2024-12-06-03-22-00/
     RDKit          3D

 20 21  0  0  0  0  0  0  0  0999 V2000
    1.1787   -8.0297    3.5154 C   0  0  0  0  0  0  0  0  0  0  0  0
    1.0491   -6.8434    2.9820 C   0  0  0  0  0  0  0  0  0  0  0  0
    0.0950   -8.8404    3.2292 C   0  0  0  0  0  0  0  0  0  0  0  0
   -0.9173   -8.4596    2.5152 C   0  0  0  0  0  0  0  0  0  0  0  0
   -1.0331   -7.2162    2.0653 C   0  0  0  0  0  0  0  0  0  0  0  0
   -0.0105   -6.3168    2.3081 C   0  0  0  0  0  0  0  0  0  0  0  0
    0.1465  -10.2446    3.6981 C   0  0  0  0  0  0  0  0  0  0  0  0
    1.2433  -10.8239    4.0166 C   0  0  0  0  0  0  0  0  0  0  0  0
    1.0790  -12.2885    4.3779 Cl  0  0  0  0  0  0  0  0  0  0  0  0
   -0.0220   -4.8532    1.7850 C   0  0  0  0  0  0  0  0  0  0  0  0
   -0.5380   -4.6083    0.7292 C   0  0  0  0  0  0  0  0  0  0  0  0
   -0.6320   -3.2526    0.3593 C   0  0  0  0  0  0  0  0  0  0  0  0
    0.2285   -2.3061    0.9692 C   0  0  0  0  0  0  0  0  0  0  0  0
    1.0505   -2.6874    1.9727 C   0  0  0  0  0  0  0  0  0  0  0  0
    0.9300   -4.0138    2.4401 C   0  0  0  0  0  0  0  0  0  0  0  0
    2.4915  -10.2892    4.5150 N   0  0  0  0  0  0  0  0  0  0  0  0
   -1.4462   -2.7627   -1.0284 O   0  0  0  0  0  0  0  0  0  0  0  0
   -1.3355   -1.7293   -1.3297 C   0  0  0  0  0  0  0  0  0  0  0  0
   -0.4937   -1.5803   -2.3186 C   0  0  0  0  0  0  0  0  0  0  0  0
   -0.3386   -0.2990   -2.8185 C   0  0  0  0  0  0  0  0  0  0  0  0
  3  7  1  0
  7  8  2  3
  8  9  1  0
  6 10  1  0
  8 16  1  0
 12 17  1  0
 17 18  1  0
 18 19  1  0
 19 20  2  0
  1  2  2  0
  2  6  1  0
  5  6  2  0
  4  5  1  0
  3  4  2  0
  1  3  1  0
 10 11  2  0
 11 12  1  0
 12 13  2  0
 13 14  1  0
 14 15  2  0
 10 15  1  0
M  END

$$$$
No_4154-/export/home/yangzhenyu/potential_scad_32_flow//YTHDC2/2024-12-06-03-22-00/
     RDKit          3D

 19 20  0  0  0  0  0  0  0  0999 V2000
    1.1787   -8.0297    3.5154 C   0  0  0  0  0  0  0  0  0  0  0  0
    1.1048   -9.2215    3.2892 C   0  0  0  0  0  0  0  0  0  0  0  0
    1.3627  -10.1721    4.3044 F   0  0  0  0  0  0  0  0  0  0  0  0
    0.8761   -7.0654    2.6080 C   0  0  0  0  0  0  0  0  0  0  0  0
    0.4040   -7.5501    1.4173 C   0  0  0  0  0  0  0  0  0  0  0  0
    0.1551   -8.7675    1.1729 C   0  0  0  0  0  0  0  0  0  0  0  0
    0.5560   -9.7224    2.0846 C   0  0  0  0  0  0  0  0  0  0  0  0
    1.1687   -5.6455    2.8617 C   0  0  0  0  0  0  0  0  0  0  0  0
    0.4761  -11.0572    1.8713 C   0  0  0  0  0  0  0  0  0  0  0  0
    1.6281  -11.7926    1.4944 N   0  0  0  0  0  0  0  0  0  0  0  0
    1.6175  -13.1327    1.2291 C   0  0  0  0  0  0  0  0  0  0  0  0
    0.5346  -13.7751    1.1891 C   0  0  0  0  0  0  0  0  0  0  0  0
   -0.6516  -13.2173    1.4015 C   0  0  0  0  0  0  0  0  0  0  0  0
   -0.6586  -11.8570    1.7532 C   0  0  0  0  0  0  0  0  0  0  0  0
   -1.8669  -11.2301    2.1712 C   0  0  0  0  0  0  0  0  0  0  0  0
   -2.7552  -10.7037    1.3509 C   0  0  0  0  0  0  0  0  0  0  0  0
   -3.9111  -10.0173    1.7897 C   0  0  0  0  0  0  0  0  0  0  0  0
   -3.9284   -9.7201    3.1801 C   0  0  0  0  0  0  0  0  0  0  0  0
   -3.0067  -10.0699    4.0815 C   0  0  0  0  0  0  0  0  0  0  0  0
  2  3  1  0
  4  8  1  0
  7  9  1  0
 14 15  1  0
 15 16  2  3
 16 17  1  0
 17 18  2  3
 18 19  1  0
  1  2  2  0
  2  7  1  0
  6  7  2  0
  5  6  1  0
  4  5  2  0
  1  4  1  0
  9 10  2  0
 10 11  1  0
 11 12  2  0
 12 13  1  0
 13 14  2  0
  9 14  1  0
M  END

$$$$
No_4155-/export/home/yangzhenyu/potential_scad_32_flow//YTHDC2/2024-12-06-03-22-00/
     RDKit          3D

 19 20  0  0  0  0  0  0  0  0999 V2000
    1.1787   -8.0297    3.5154 C   0  0  0  0  0  0  0  0  0  0  0  0
    1.0491   -6.8434    2.9820 C   0  0  0  0  0  0  0  0  0  0  0  0
    0.0950   -8.8404    3.2292 C   0  0  0  0  0  0  0  0  0  0  0  0
   -0.9173   -8.4596    2.5152 C   0  0  0  0  0  0  0  0  0  0  0  0
   -1.0331   -7.2162    2.0653 C   0  0  0  0  0  0  0  0  0  0  0  0
   -0.0105   -6.3168    2.3081 C   0  0  0  0  0  0  0  0  0  0  0  0
    0.0485   -4.9783    1.8782 C   0  0  0  0  0  0  0  0  0  0  0  0
   -0.4744   -4.1559    2.2381 O   0  0  0  0  0  0  0  0  0  0  0  0
    0.9176   -4.7080    0.8087 O   0  0  0  0  0  0  0  0  0  0  0  0
    0.2222  -10.4891    3.7537 C   0  0  0  0  0  0  0  0  0  0  0  0
    0.5127  -11.4432    2.8197 C   0  0  0  0  0  0  0  0  0  0  0  0
    1.0767  -12.5587    3.3677 C   0  0  0  0  0  0  0  0  0  0  0  0
    1.1925  -13.5852    2.4678 C   0  0  0  0  0  0  0  0  0  0  0  0
    1.0877  -13.5484    1.2246 C   0  0  0  0  0  0  0  0  0  0  0  0
    0.6169  -12.3469    0.6226 C   0  0  0  0  0  0  0  0  0  0  0  0
    0.2759  -11.2450    1.4986 C   0  0  0  0  0  0  0  0  0  0  0  0
    1.7415  -14.9640    2.9132 Cl  0  0  0  0  0  0  0  0  0  0  0  0
   -0.1235  -10.5365    4.9962 O   0  0  0  0  0  0  0  0  0  0  0  0
   -0.0832  -10.0659    0.9973 I   0  0  0  0  0  0  0  0  0  0  0  0
  6  7  1  0
  7  8  2  0
  7  9  1  0
  3 10  1  0
 10 11  1  0
 13 17  1  0
 10 18  2  0
 16 19  1  0
 11 12  2  0
 12 13  1  0
 13 14  2  0
 14 15  1  0
 15 16  2  0
 11 16  1  0
  1  2  2  0
  2  6  1  0
  5  6  2  0
  4  5  1  0
  3  4  2  0
  1  3  1  0
M  END

$$$$
No_4156-/export/home/yangzhenyu/potential_scad_32_flow//YTHDC2/2024-12-06-03-22-00/
     RDKit          3D

 18 19  0  0  1  0  0  0  0  0999 V2000
    1.1787   -8.0297    3.5154 O   0  0  0  0  0  0  0  0  0  0  0  0
    0.9969   -8.9689    3.0048 C   0  0  0  0  0  0  0  0  0  0  0  0
    0.9976   -8.9567    1.6341 C   0  0  2  0  0  0  0  0  0  0  0  0
    0.7663   -7.7728    1.0082 C   0  0  2  0  0  0  0  0  0  0  0  0
    0.5873   -6.9953    1.8663 C   0  0  0  0  0  0  0  0  0  0  0  0
    1.1431   -6.7077    3.0271 C   0  0  0  0  0  0  0  0  0  0  0  0
    0.4644   -7.6921   -0.1945 C   0  0  0  0  0  0  0  0  0  0  0  0
   -0.8181   -7.3909   -0.6043 C   0  0  0  0  0  0  0  0  0  0  0  0
   -1.2829   -7.4058   -2.0081 C   0  0  0  0  0  0  0  0  0  0  0  0
   -0.4671   -8.1389   -2.9865 C   0  0  0  0  0  0  0  0  0  0  0  0
    0.9206  -10.2221    0.9323 C   0  0  0  0  0  0  0  0  0  0  0  0
    2.0675  -10.7804    0.3960 O   0  0  0  0  0  0  0  0  0  0  0  0
   -0.1375  -10.9454    0.7377 N   0  0  0  0  0  0  0  0  0  0  0  0
   -1.0711   -8.5063   -4.0030 C   0  0  0  0  0  0  0  0  0  0  0  0
   -2.2805   -8.0248   -4.4334 C   0  0  0  0  0  0  0  0  0  0  0  0
   -2.9810   -7.2593   -3.6198 C   0  0  0  0  0  0  0  0  0  0  0  0
   -2.4825   -6.9799   -2.3332 C   0  0  0  0  0  0  0  0  0  0  0  0
    1.3788  -10.2239    3.6563 O   0  0  0  0  0  0  0  0  0  0  0  0
  1  2  1  0
  2  3  1  0
  3  4  1  0
  4  5  1  1
  1  6  1  0
  5  6  1  0
  4  7  1  0
  7  8  2  3
  8  9  1  0
  3 11  1  6
 11 12  2  0
 11 13  1  0
  2 18  2  0
  9 10  2  0
 10 14  1  0
 14 15  2  0
 15 16  1  0
 16 17  2  0
  9 17  1  0
M  END

$$$$
No_4157-/export/home/yangzhenyu/potential_scad_32_flow//YTHDC2/2024-12-06-03-22-00/
     RDKit          3D

 18 18  0  0  0  0  0  0  0  0999 V2000
    1.1787   -8.0297    3.5154 C   0  0  0  0  0  0  0  0  0  0  0  0
    1.0491   -6.8434    2.9820 C   0  0  0  0  0  0  0  0  0  0  0  0
    0.9905   -9.0774    2.6527 C   0  0  0  0  0  0  0  0  0  0  0  0
    0.7897   -8.9519    1.3691 C   0  0  0  0  0  0  0  0  0  0  0  0
    0.7018   -7.7198    0.7892 C   0  0  0  0  0  0  0  0  0  0  0  0
    0.8918   -6.5957    1.6117 C   0  0  0  0  0  0  0  0  0  0  0  0
    1.0711  -10.4814    3.2282 C   0  0  0  0  0  0  0  0  0  0  0  0
    1.1227  -11.5770    2.4616 C   0  0  0  0  0  0  0  0  0  0  0  0
    1.1500  -12.9052    3.0782 C   0  0  0  0  0  0  0  0  0  0  0  0
    0.6702  -13.9897    2.4998 C   0  0  0  0  0  0  0  0  0  0  0  0
   -0.3775  -14.0361    1.8374 C   0  0  0  0  0  0  0  0  0  0  0  0
    1.5077  -15.2333    2.6455 C   0  0  0  0  0  0  0  0  0  0  0  0
    0.8409   -5.2759    1.1573 O   0  0  0  0  0  0  0  0  0  0  0  0
    2.8286  -15.2160    2.8932 O   0  0  0  0  0  0  0  0  0  0  0  0
    0.8911  -16.4686    2.7277 C   0  0  0  0  0  0  0  0  0  0  0  0
   -1.6312  -13.9437    2.4477 C   0  0  0  0  0  0  0  0  0  0  0  0
   -2.8092  -13.8192    1.6070 C   0  0  0  0  0  0  0  0  0  0  0  0
   -2.7405  -13.7640    0.3184 C   0  0  0  0  0  0  0  0  0  0  0  0
  3  7  1  0
  7  8  2  3
  8  9  1  0
  9 10  1  0
 10 11  1  0
 10 12  1  0
  6 13  1  0
 12 14  2  0
 12 15  1  0
 11 16  1  0
 16 17  2  3
 17 18  1  0
  1  2  2  0
  2  6  1  0
  5  6  2  0
  4  5  1  0
  3  4  2  0
  1  3  1  0
M  END

$$$$
No_4158-/export/home/yangzhenyu/potential_scad_32_flow//YTHDC2/2024-12-06-03-22-00/
     RDKit          3D

 19 19  0  0  0  0  0  0  0  0999 V2000
    1.1787   -8.0297    3.5154 O   0  0  0  0  0  0  0  0  0  0  0  0
    0.6747   -7.4019    2.7838 C   0  0  0  0  0  0  0  0  0  0  0  0
    0.7594   -8.0032    1.4295 C   0  0  0  0  0  0  0  0  0  0  0  0
    0.3459   -9.1500    1.3581 C   0  0  0  0  0  0  0  0  0  0  0  0
   -0.4155   -9.6726    2.0241 C   0  0  0  0  0  0  0  0  0  0  0  0
   -0.0316  -10.8325    2.6657 C   0  0  0  0  0  0  0  0  0  0  0  0
    1.1428  -11.4689    2.2182 C   0  0  0  0  0  0  0  0  0  0  0  0
    1.9817  -10.9207    1.2505 C   0  0  0  0  0  0  0  0  0  0  0  0
    1.5970   -9.7197    0.7186 C   0  0  0  0  0  0  0  0  0  0  0  0
    2.1819   -9.0861   -0.3389 C   0  0  0  0  0  0  0  0  0  0  0  0
    1.6043   -8.2600   -1.1527 O   0  0  0  0  0  0  0  0  0  0  0  0
    3.3572   -9.4823   -0.7714 O   0  0  0  0  0  0  0  0  0  0  0  0
    1.4978  -13.0360    2.8371 C   0  0  0  0  0  0  0  0  0  0  0  0
    1.5885  -13.9476    1.9359 C   0  0  0  0  0  0  0  0  0  0  0  0
    1.2740  -15.1982    2.4517 O   0  0  0  0  0  0  0  0  0  0  0  0
    0.2390  -15.3587    3.0118 C   0  0  0  0  0  0  0  0  0  0  0  0
   -0.4283   -6.9706    3.2624 O   0  0  0  0  0  0  0  0  0  0  0  0
   -0.8310  -15.0543    2.4570 C   0  0  0  0  0  0  0  0  0  0  0  0
   -0.9070  -14.5947    1.4022 C   0  0  0  0  0  0  0  0  0  0  0  0
  1  2  1  0
  2  3  1  0
  3  4  1  0
  9 10  1  0
 10 11  2  0
 10 12  1  0
  7 13  1  0
 13 14  1  0
 14 15  1  0
 15 16  1  0
  2 17  2  0
 16 18  1  0
 18 19  1  0
  4  5  2  0
  5  6  1  0
  6  7  2  0
  7  8  1  0
  8  9  2  0
  4  9  1  0
M  END

$$$$
No_4159-/export/home/yangzhenyu/potential_scad_32_flow//YTHDC2/2024-12-06-03-22-00/
     RDKit          3D

 19 20  0  0  0  0  0  0  0  0999 V2000
    1.1787   -8.0297    3.5154 C   0  0  0  0  0  0  0  0  0  0  0  0
    1.0491   -6.8434    2.9820 C   0  0  0  0  0  0  0  0  0  0  0  0
    0.0950   -8.8404    3.2292 C   0  0  0  0  0  0  0  0  0  0  0  0
   -0.9173   -8.4596    2.5152 C   0  0  0  0  0  0  0  0  0  0  0  0
   -1.0331   -7.2162    2.0653 C   0  0  0  0  0  0  0  0  0  0  0  0
   -0.0105   -6.3168    2.3081 C   0  0  0  0  0  0  0  0  0  0  0  0
    0.0485   -4.9783    1.8782 C   0  0  0  0  0  0  0  0  0  0  0  0
    0.9625   -4.1072    2.3252 O   0  0  0  0  0  0  0  0  0  0  0  0
   -0.9023   -4.3813    1.1355 O   0  0  0  0  0  0  0  0  0  0  0  0
    0.2401  -10.4937    3.7170 Cl  0  0  0  0  0  0  0  0  0  0  0  0
   -2.2799   -6.8002    1.5531 C   0  0  0  0  0  0  0  0  0  0  0  0
   -3.2194   -6.3772    2.0576 C   0  0  0  0  0  0  0  0  0  0  0  0
   -3.4162   -6.2865    3.3233 C   0  0  0  0  0  0  0  0  0  0  0  0
   -4.4982   -5.8117    4.0235 C   0  0  0  0  0  0  0  0  0  0  0  0
   -5.4966   -5.3619    3.0766 C   0  0  0  0  0  0  0  0  0  0  0  0
   -5.4195   -5.4054    1.8078 C   0  0  0  0  0  0  0  0  0  0  0  0
   -4.2486   -5.9162    1.2468 C   0  0  0  0  0  0  0  0  0  0  0  0
   -2.1613   -6.9387    0.0920 O   0  0  0  0  0  0  0  0  0  0  0  0
   -0.2869   -3.6552   -0.1910 C   0  0  0  0  0  0  0  0  0  0  0  0
  6  7  1  0
  7  8  2  0
  7  9  1  0
  3 10  1  0
  5 11  1  0
 11 12  1  0
 11 18  2  0
  9 19  1  0
 12 13  2  0
 13 14  1  0
 14 15  2  0
 15 16  1  0
 16 17  2  0
 12 17  1  0
  1  2  2  0
  2  6  1  0
  5  6  2  0
  4  5  1  0
  3  4  2  0
  1  3  1  0
M  END

$$$$
No_4160-/export/home/yangzhenyu/potential_scad_32_flow//YTHDC2/2024-12-06-03-22-00/
     RDKit          3D

 19 20  0  0  0  0  0  0  0  0999 V2000
    1.1787   -8.0297    3.5154 O   0  0  0  0  0  0  0  0  0  0  0  0
    0.9969   -8.9689    3.0048 C   0  0  0  0  0  0  0  0  0  0  0  0
    0.9976   -8.9567    1.6341 C   0  0  0  0  0  0  0  0  0  0  0  0
    0.7663   -7.7728    1.0082 C   0  0  0  0  0  0  0  0  0  0  0  0
    1.1468   -6.5619    1.6541 C   0  0  0  0  0  0  0  0  0  0  0  0
    1.3592   -6.6155    3.0007 C   0  0  0  0  0  0  0  0  0  0  0  0
    1.2035  -10.1894    3.6215 C   0  0  0  0  0  0  0  0  0  0  0  0
    1.3724  -11.3423    2.8771 C   0  0  0  0  0  0  0  0  0  0  0  0
    1.3261  -11.2581    1.4865 C   0  0  0  0  0  0  0  0  0  0  0  0
    1.1771  -10.0721    0.8483 C   0  0  0  0  0  0  0  0  0  0  0  0
    0.5376   -7.6363   -0.1925 O   0  0  0  0  0  0  0  0  0  0  0  0
    1.6053  -12.6410    3.4455 C   0  0  0  0  0  0  0  0  0  0  0  0
    1.3573  -13.8500    2.5091 C   0  0  0  0  0  0  0  0  0  0  0  0
    0.2590  -14.5179    2.5846 C   0  0  0  0  0  0  0  0  0  0  0  0
   -0.7192  -14.1134    2.1052 C   0  0  0  0  0  0  0  0  0  0  0  0
   -1.9302  -14.8412    2.2025 C   0  0  0  0  0  0  0  0  0  0  0  0
   -3.0480  -14.3080    1.7192 C   0  0  0  0  0  0  0  0  0  0  0  0
   -3.0376  -13.0304    1.1410 C   0  0  0  0  0  0  0  0  0  0  0  0
   -1.9365  -12.3347    0.9067 C   0  0  0  0  0  0  0  0  0  0  0  0
  1  2  1  0
  3  4  1  0
  4  5  1  0
  1  6  1  0
  5  6  1  0
  4 11  2  0
  8 12  1  0
 12 13  1  0
 13 14  1  0
 14 15  2  3
 15 16  1  0
 16 17  2  3
 17 18  1  0
 18 19  2  0
  2  3  2  0
  3 10  1  0
  9 10  2  0
  8  9  1  0
  7  8  2  0
  2  7  1  0
M  END

$$$$
No_4161-/export/home/yangzhenyu/potential_scad_32_flow//YTHDC2/2024-12-06-03-22-00/
     RDKit          3D

 20 21  0  0  1  0  0  0  0  0999 V2000
    1.1787   -8.0297    3.5154 C   0  0  0  0  0  0  0  0  0  0  0  0
    1.1048   -9.2215    3.2892 C   0  0  0  0  0  0  0  0  0  0  0  0
    1.2339   -9.7611    2.0189 C   0  0  0  0  0  0  0  0  0  0  0  0
    1.3583   -9.0036    0.9764 C   0  0  0  0  0  0  0  0  0  0  0  0
    1.5996   -7.6362    1.1311 C   0  0  0  0  0  0  0  0  0  0  0  0
    1.4830   -7.0928    2.3626 C   0  0  0  0  0  0  0  0  0  0  0  0
    1.1008  -11.2372    1.8542 C   0  0  2  0  0  0  0  0  0  0  0  0
    1.9749  -12.0938    2.2342 C   0  0  0  0  0  0  0  0  0  0  0  0
    1.7533  -13.4231    1.8956 C   0  0  0  0  0  0  0  0  0  0  0  0
    0.5760  -13.4522    1.0640 C   0  0  1  0  0  0  0  0  0  0  0  0
    0.2982  -11.9865    0.9898 C   0  0  1  0  0  0  0  0  0  0  0  0
    1.5399   -5.4280    2.6773 Br  0  0  0  0  0  0  0  0  0  0  0  0
    2.3846  -14.6515    2.1339 Cl  0  0  0  0  0  0  0  0  0  0  0  0
   -0.8003  -11.4352    0.2497 C   0  0  0  0  0  0  0  0  0  0  0  0
   -1.7658  -12.1853   -0.0157 O   0  0  0  0  0  0  0  0  0  0  0  0
   -0.9197  -10.1688   -0.1700 O   0  0  0  0  0  0  0  0  0  0  0  0
    0.7572  -10.1681    4.3473 Cl  0  0  0  0  0  0  0  0  0  0  0  0
    0.0885  -14.3606    0.3807 C   0  0  0  0  0  0  0  0  0  0  0  0
    0.4748  -14.5631   -1.0780 C   0  0  0  0  0  0  0  0  0  0  0  0
   -0.2387  -15.4952   -1.8178 C   0  0  0  0  0  0  0  0  0  0  0  0
  7  3  1  6
  7  8  1  0
  8  9  2  0
  9 10  1  0
  7 11  1  0
 10 11  1  0
  6 12  1  0
  9 13  1  0
 11 14  1  1
 14 15  2  0
 14 16  1  0
  2 17  1  0
 10 18  1  6
 18 19  1  0
 19 20  2  0
  1  2  2  0
  2  3  1  0
  3  4  2  0
  4  5  1  0
  5  6  2  0
  1  6  1  0
M  END

$$$$
No_4162-/export/home/yangzhenyu/potential_scad_32_flow//YTHDC2/2024-12-06-03-22-00/
     RDKit          3D

 18 20  0  0  1  0  0  0  0  0999 V2000
    1.1787   -8.0297    3.5154 N   0  0  0  0  0  0  0  0  0  0  0  0
    1.0818   -9.0751    3.2053 C   0  0  0  0  0  0  0  0  0  0  0  0
    1.5216  -10.1164    3.9747 C   0  0  0  0  0  0  0  0  0  0  0  0
    1.4420  -11.4363    3.6461 C   0  0  0  0  0  0  0  0  0  0  0  0
    0.5969  -11.7648    2.6785 C   0  0  0  0  0  0  0  0  0  0  0  0
    0.0096  -10.8332    1.9506 C   0  0  0  0  0  0  0  0  0  0  0  0
    0.3359   -9.5186    2.1388 C   0  0  0  0  0  0  0  0  0  0  0  0
    0.8819   -6.9011    2.6487 C   0  0  1  0  0  0  0  0  0  0  0  0
    1.2415   -5.5456    2.9609 N   0  0  0  0  0  0  0  0  0  0  0  0
    0.4003   -7.1661    1.3416 C   0  0  0  0  0  0  0  0  0  0  0  0
    0.0691   -8.4718    1.1284 C   0  0  0  0  0  0  0  0  0  0  0  0
    0.0188   -6.2142    0.6394 O   0  0  0  0  0  0  0  0  0  0  0  0
    0.3045  -13.3792    2.3662 C   0  0  0  0  0  0  0  0  0  0  0  0
    1.2713  -14.1956    2.8600 N   0  0  0  0  0  0  0  0  0  0  0  0
   -0.4843  -13.7705    1.6158 C   0  0  0  0  0  0  0  0  0  0  0  0
    1.0585  -15.5065    2.8313 C   0  0  0  0  0  0  0  0  0  0  0  0
    0.1801  -15.9517    2.1294 N   0  0  0  0  0  0  0  0  0  0  0  0
   -0.6767  -15.0934    1.4101 C   0  0  0  0  0  0  0  0  0  0  0  0
  1  2  1  0
  8  9  1  6
  8 10  1  0
  7 11  1  0
 10 11  1  0
 10 12  2  0
  5 13  1  0
  1  8  1  0
  2  3  2  0
  3  4  1  0
  4  5  2  0
  5  6  1  0
  6  7  2  0
  2  7  1  0
 13 14  2  0
 14 16  1  0
 16 17  2  0
 17 18  1  0
 15 18  2  0
 13 15  1  0
M  END

$$$$
No_4163-/export/home/yangzhenyu/potential_scad_32_flow//YTHDC2/2024-12-06-03-22-00/
     RDKit          3D

 19 19  0  0  1  0  0  0  0  0999 V2000
    1.1787   -8.0297    3.5154 C   0  0  0  0  0  0  0  0  0  0  0  0
    1.1048   -9.2215    3.2892 C   0  0  0  0  0  0  0  0  0  0  0  0
    1.3627  -10.1721    4.3044 C   0  0  0  0  0  0  0  0  0  0  0  0
    1.0682  -11.5187    4.0618 C   0  0  0  0  0  0  0  0  0  0  0  0
    0.6332  -11.9655    2.9682 C   0  0  0  0  0  0  0  0  0  0  0  0
    0.4776  -11.1308    1.9203 C   0  0  0  0  0  0  0  0  0  0  0  0
    0.7470   -9.8274    2.0368 C   0  0  0  0  0  0  0  0  0  0  0  0
    1.8804   -7.1616    3.5539 C   0  0  0  0  0  0  0  0  0  0  0  0
    0.3661  -13.4265    2.7867 C   0  0  2  0  0  0  0  0  0  0  0  0
    1.3569  -14.3327    3.1423 C   0  0  0  0  0  0  0  0  0  0  0  0
    1.1359  -15.7043    3.0228 Cl  0  0  0  0  0  0  0  0  0  0  0  0
    0.7409   -9.0412    0.9585 C   0  0  0  0  0  0  0  0  0  0  0  0
    1.9461   -8.7851    0.1981 C   0  0  0  0  0  0  0  0  0  0  0  0
    2.9370   -9.5081    0.2583 O   0  0  0  0  0  0  0  0  0  0  0  0
    2.3410   -7.5372   -0.1158 O   0  0  0  0  0  0  0  0  0  0  0  0
   -0.6086  -13.7489    2.0252 C   0  0  0  0  0  0  0  0  0  0  0  0
   -1.8924  -13.6204    2.4317 O   0  0  0  0  0  0  0  0  0  0  0  0
   -0.5418  -14.0811    0.7424 O   0  0  0  0  0  0  0  0  0  0  0  0
    1.5046   -5.6778    3.6769 C   0  0  0  0  0  0  0  0  0  0  0  0
  1  2  1  0
  1  8  2  3
  5  9  1  0
  9 10  1  6
 10 11  1  0
  7 12  1  0
 12 13  1  0
 13 14  1  0
 13 15  2  0
  9 16  1  0
 16 17  1  0
 16 18  2  0
  8 19  1  0
  2  3  2  0
  3  4  1  0
  4  5  2  0
  5  6  1  0
  6  7  2  0
  2  7  1  0
M  END

$$$$
No_4164-/export/home/yangzhenyu/potential_scad_32_flow//YTHDC2/2024-12-06-03-22-00/
     RDKit          3D

 19 20  0  0  1  0  0  0  0  0999 V2000
    1.1787   -8.0297    3.5154 C   0  0  0  0  0  0  0  0  0  0  0  0
    1.0491   -6.8434    2.9820 C   0  0  0  0  0  0  0  0  0  0  0  0
    0.0950   -8.8404    3.2292 C   0  0  0  0  0  0  0  0  0  0  0  0
    0.0602  -10.1764    3.8231 C   0  0  0  0  0  0  0  0  0  0  0  0
    0.2248   -6.3830    2.0648 C   0  0  0  0  0  0  0  0  0  0  0  0
   -0.6745   -7.2322    1.6857 C   0  0  0  0  0  0  0  0  0  0  0  0
   -0.7374   -8.4992    2.1291 C   0  0  0  0  0  0  0  0  0  0  0  0
    1.0517  -10.8728    4.0967 C   0  0  0  0  0  0  0  0  0  0  0  0
    1.5078  -11.7912    3.1561 C   0  0  2  0  0  0  0  0  0  0  0  0
    1.4382  -11.4073    1.8491 C   0  0  2  0  0  0  0  0  0  0  0  0
    2.3103  -10.4097    1.3897 C   0  0  0  0  0  0  0  0  0  0  0  0
    2.1151   -9.7776    0.2438 N   0  0  0  0  0  0  0  0  0  0  0  0
    1.2054  -10.5006   -0.4200 C   0  0  0  0  0  0  0  0  0  0  0  0
    0.7099  -11.3782    0.6150 C   0  0  0  0  0  0  0  0  0  0  0  0
    1.7928  -12.9905    3.4561 C   0  0  0  0  0  0  0  0  0  0  0  0
    0.3749   -4.9895    1.2864 C   0  0  0  0  0  0  0  0  0  0  0  0
   -0.3553   -3.9818    1.9769 C   0  0  0  0  0  0  0  0  0  0  0  0
    0.2757   -3.1500    2.8835 C   0  0  0  0  0  0  0  0  0  0  0  0
   -0.4936  -12.0658    0.4563 O   0  0  0  0  0  0  0  0  0  0  0  0
  3  4  1  0
  4  8  1  0
  8  9  1  0
  9 10  1  0
 10 11  1  1
 11 12  2  0
 12 13  1  0
 10 14  1  0
 13 14  1  0
  9 15  1  6
  5 16  1  0
 16 17  1  0
 17 18  1  0
 14 19  2  0
  1  2  2  0
  2  5  1  0
  5  6  2  0
  6  7  1  0
  3  7  2  0
  1  3  1  0
M  END

$$$$
No_4165-/export/home/yangzhenyu/potential_scad_32_flow//YTHDC2/2024-12-06-03-22-00/
     RDKit          3D

 18 19  0  0  1  0  0  0  0  0999 V2000
    1.1787   -8.0297    3.5154 C   0  0  0  0  0  0  0  0  0  0  0  0
    1.1048   -9.2215    3.2892 C   0  0  0  0  0  0  0  0  0  0  0  0
    1.0239   -9.7790    2.0239 C   0  0  2  0  0  0  0  0  0  0  0  0
    1.0632  -11.2393    1.8978 C   0  0  0  0  0  0  0  0  0  0  0  0
    1.2664   -7.1133    2.3309 C   0  0  1  0  0  0  0  0  0  0  0  0
    1.2080   -7.6832    1.0760 C   0  0  0  0  0  0  0  0  0  0  0  0
    1.1535   -8.9837    0.8897 C   0  0  0  0  0  0  0  0  0  0  0  0
    0.7389  -11.7401    0.6551 N   0  0  0  0  0  0  0  0  0  0  0  0
    1.5042  -12.0536    2.8637 N   0  0  0  0  0  0  0  0  0  0  0  0
    1.1183   -9.5059   -0.3299 O   0  0  0  0  0  0  0  0  0  0  0  0
    1.4252  -13.4098    2.6392 C   0  0  0  0  0  0  0  0  0  0  0  0
    0.9871  -13.9633    1.7017 C   0  0  0  0  0  0  0  0  0  0  0  0
    0.6385  -13.1344    0.6334 C   0  0  0  0  0  0  0  0  0  0  0  0
    1.2894   -5.4684    2.5823 Cl  0  0  0  0  0  0  0  0  0  0  0  0
    1.1351  -15.3749    1.5495 C   0  0  0  0  0  0  0  0  0  0  0  0
    2.2730  -15.9699    1.9088 O   0  0  0  0  0  0  0  0  0  0  0  0
    1.0270  -15.8597    0.2185 O   0  0  0  0  0  0  0  0  0  0  0  0
    2.2339  -17.3088    2.3216 C   0  0  0  0  0  0  0  0  0  0  0  0
  2  3  1  0
  3  4  1  1
  1  5  1  0
  3  7  1  0
  6  7  1  0
  7 10  2  0
  5 14  1  1
 12 15  1  0
 15 16  1  0
 15 17  2  0
 16 18  1  0
  1  2  1  0
  5  6  1  0
  4  8  2  0
  8 13  1  0
 12 13  2  0
 11 12  1  0
  9 11  2  0
  4  9  1  0
M  END

$$$$
No_4166-/export/home/yangzhenyu/potential_scad_32_flow//YTHDC2/2024-12-06-03-22-00/
     RDKit          3D

 20 20  0  0  1  0  0  0  0  0999 V2000
    1.1787   -8.0297    3.5154 C   0  0  0  0  0  0  0  0  0  0  0  0
    1.0491   -6.8434    2.9820 C   0  0  0  0  0  0  0  0  0  0  0  0
    0.9905   -9.0774    2.6527 C   0  0  0  0  0  0  0  0  0  0  0  0
    1.1655  -10.4663    3.1286 C   0  0  2  0  0  0  0  0  0  0  0  0
    1.7409  -10.6480    4.4599 C   0  0  0  0  0  0  0  0  0  0  0  0
    1.0486   -6.3431    1.8833 C   0  0  0  0  0  0  0  0  0  0  0  0
    0.7847   -5.0363    1.4471 C   0  0  0  0  0  0  0  0  0  0  0  0
    1.1370  -11.5253    2.2824 C   0  0  0  0  0  0  0  0  0  0  0  0
    1.3303  -11.4599    0.9773 C   0  0  0  0  0  0  0  0  0  0  0  0
    2.4086  -10.7559    0.4871 O   0  0  0  0  0  0  0  0  0  0  0  0
    0.8542  -12.3753    0.1702 O   0  0  0  0  0  0  0  0  0  0  0  0
    1.5290   -3.8902    1.8619 C   0  0  0  0  0  0  0  0  0  0  0  0
    1.9802  -12.0091    4.7885 O   0  0  0  0  0  0  0  0  0  0  0  0
    2.2246   -9.7857    5.2023 O   0  0  0  0  0  0  0  0  0  0  0  0
    1.2547   -2.6781    1.3448 C   0  0  0  0  0  0  0  0  0  0  0  0
    0.2583   -2.5728    0.4260 C   0  0  0  0  0  0  0  0  0  0  0  0
   -0.5490   -3.5540    0.0387 C   0  0  0  0  0  0  0  0  0  0  0  0
   -0.3300   -4.8167    0.5559 C   0  0  0  0  0  0  0  0  0  0  0  0
   -1.0797   -5.8264    0.2126 O   0  0  0  0  0  0  0  0  0  0  0  0
   -0.0499   -1.2881   -0.1969 Cl  0  0  0  0  0  0  0  0  0  0  0  0
  1  2  1  0
  1  3  2  3
  3  4  1  0
  4  5  1  0
  2  6  2  3
  6  7  1  0
  4  8  1  6
  8  9  1  0
  9 10  2  0
  9 11  1  0
  7 12  1  0
  5 13  1  0
  5 14  2  0
 15 16  1  0
  7 18  1  0
 17 18  1  0
 18 19  2  0
 16 20  1  0
 12 15  1  0
 16 17  1  0
M  END

$$$$
No_4167-/export/home/yangzhenyu/potential_scad_32_flow//YTHDC2/2024-12-06-03-22-00/
     RDKit          3D

 18 19  0  0  1  0  0  0  0  0999 V2000
    1.1787   -8.0297    3.5154 N   0  0  0  0  0  0  0  0  0  0  0  0
    1.0818   -9.0751    3.2053 C   0  0  0  0  0  0  0  0  0  0  0  0
    1.5216  -10.1164    3.9747 C   0  0  0  0  0  0  0  0  0  0  0  0
    1.4420  -11.4363    3.6461 C   0  0  0  0  0  0  0  0  0  0  0  0
    0.5969  -11.7648    2.6785 C   0  0  0  0  0  0  0  0  0  0  0  0
    0.0096  -10.8332    1.9506 Cl  0  0  0  0  0  0  0  0  0  0  0  0
    0.9432   -6.9681    2.5446 C   0  0  0  0  0  0  0  0  0  0  0  0
    0.9652   -5.6171    2.7954 C   0  0  0  0  0  0  0  0  0  0  0  0
    0.8053   -4.8004    1.6315 C   0  0  0  0  0  0  0  0  0  0  0  0
    0.5325   -5.3754    0.4551 C   0  0  0  0  0  0  0  0  0  0  0  0
    0.6808   -7.0805    1.1570 C   0  0  1  0  0  0  0  0  0  0  0  0
    0.4540  -13.2403    2.5687 C   0  0  0  0  0  0  0  0  0  0  0  0
   -0.6110  -13.8401    2.4477 C   0  0  0  0  0  0  0  0  0  0  0  0
   -0.6872  -15.2427    2.4168 C   0  0  0  0  0  0  0  0  0  0  0  0
    0.3290  -15.9654    2.6602 C   0  0  0  0  0  0  0  0  0  0  0  0
    1.6565  -15.4306    2.7465 C   0  0  0  0  0  0  0  0  0  0  0  0
    1.7744  -14.0118    2.8233 C   0  0  0  0  0  0  0  0  0  0  0  0
    0.6318   -8.0550    0.3670 C   0  0  0  0  0  0  0  0  0  0  0  0
  1  2  1  0
  2  3  1  0
  3  4  2  3
  4  5  1  0
  5  6  1  0
  1  7  1  0
  7  8  1  0
  8  9  2  0
  9 10  1  0
  7 11  1  0
 10 11  1  0
  5 12  1  0
 11 18  1  6
 12 13  2  0
 13 14  1  0
 14 15  2  0
 15 16  1  0
 16 17  2  0
 12 17  1  0
M  END

$$$$
No_4168-/export/home/yangzhenyu/potential_scad_32_flow//YTHDC2/2024-12-06-03-22-00/
     RDKit          3D

 19 20  0  0  1  0  0  0  0  0999 V2000
    1.1787   -8.0297    3.5154 C   0  0  0  0  0  0  0  0  0  0  0  0
    1.1048   -9.2215    3.2892 C   0  0  0  0  0  0  0  0  0  0  0  0
    1.2339   -9.7611    2.0189 C   0  0  0  0  0  0  0  0  0  0  0  0
    1.3583   -9.0036    0.9764 C   0  0  0  0  0  0  0  0  0  0  0  0
    1.5996   -7.6362    1.1311 C   0  0  0  0  0  0  0  0  0  0  0  0
    1.4830   -7.0928    2.3626 C   0  0  0  0  0  0  0  0  0  0  0  0
    1.1171  -11.3311    1.8661 C   0  0  1  0  0  0  0  0  0  0  0  0
    0.5022  -11.6388    0.6531 C   0  0  0  0  0  0  0  0  0  0  0  0
    0.5683  -13.0838    0.5424 C   0  0  0  0  0  0  0  0  0  0  0  0
    1.2665  -13.8887    1.3003 C   0  0  1  0  0  0  0  0  0  0  0  0
    1.9989  -13.3977    2.4029 C   0  0  1  0  0  0  0  0  0  0  0  0
    1.8520  -12.0917    2.7212 C   0  0  0  0  0  0  0  0  0  0  0  0
    2.5585  -11.5789    3.7298 O   0  0  0  0  0  0  0  0  0  0  0  0
    1.5635   -5.4529    2.6943 Cl  0  0  0  0  0  0  0  0  0  0  0  0
    1.5675   -9.4122   -0.3575 N   0  0  0  0  0  0  0  0  0  0  0  0
    1.6317   -8.5298   -1.4063 O   0  0  0  0  0  0  0  0  0  0  0  0
    2.5700  -14.3058    3.2580 Cl  0  0  0  0  0  0  0  0  0  0  0  0
    1.2486  -15.4587    1.0231 O   0  0  0  0  0  0  0  0  0  0  0  0
    0.1502  -16.0342    1.1232 C   0  0  0  0  0  0  0  0  0  0  0  0
  7  3  1  6
  7  8  1  0
  9 10  1  0
  7 12  1  0
 11 12  1  0
 12 13  2  0
  6 14  1  0
  4 15  1  0
 15 16  2  0
 11 17  1  1
 10 18  1  1
 18 19  1  0
  8  9  1  0
 10 11  1  0
  1  2  2  0
  2  3  1  0
  3  4  2  0
  4  5  1  0
  5  6  2  0
  1  6  1  0
M  END

$$$$
No_4169-/export/home/yangzhenyu/potential_scad_32_flow//YTHDC2/2024-12-06-03-22-00/
     RDKit          3D

 18 18  0  0  1  0  0  0  0  0999 V2000
    1.1787   -8.0297    3.5154 C   0  0  0  0  0  0  0  0  0  0  0  0
    1.1048   -9.2215    3.2892 C   0  0  0  0  0  0  0  0  0  0  0  0
    1.2339   -9.7611    2.0189 C   0  0  0  0  0  0  0  0  0  0  0  0
    1.3583   -9.0036    0.9764 C   0  0  0  0  0  0  0  0  0  0  0  0
    1.5996   -7.6362    1.1311 C   0  0  0  0  0  0  0  0  0  0  0  0
    1.4830   -7.0928    2.3626 C   0  0  0  0  0  0  0  0  0  0  0  0
    1.1171  -11.3311    1.8661 S   0  0  0  0  0  0  0  0  0  0  0  0
    0.6967  -11.7550    0.6116 C   0  0  0  0  0  0  0  0  0  0  0  0
    2.6452  -11.7995    2.1596 O   0  0  0  0  0  0  0  0  0  0  0  0
    0.3250  -11.8980    2.9099 O   0  0  0  0  0  0  0  0  0  0  0  0
    1.5324   -5.6449    2.6901 C   0  0  0  0  0  0  0  0  0  0  0  0
    0.2885  -13.0293    0.3835 C   0  0  0  0  0  0  0  0  0  0  0  0
    1.0706  -14.1189    0.6724 C   0  0  2  0  0  0  0  0  0  0  0  0
    1.9440  -14.5562    0.3469 C   0  0  0  0  0  0  0  0  0  0  0  0
    0.1688  -15.3563    0.8289 C   0  0  0  0  0  0  0  0  0  0  0  0
    0.5975  -16.2547    1.7000 C   0  0  0  0  0  0  0  0  0  0  0  0
    1.0874  -15.7992    2.9607 C   0  0  0  0  0  0  0  0  0  0  0  0
    1.3343   -5.0823    3.7290 C   0  0  0  0  0  0  0  0  0  0  0  0
  3  7  1  0
  7  8  1  0
  7  9  2  0
  7 10  2  0
  6 11  1  0
  8 12  1  0
 12 13  1  0
 13 14  1  6
 13 15  1  0
 15 16  1  0
 16 17  1  0
 11 18  1  0
  1  2  2  0
  2  3  1  0
  3  4  2  0
  4  5  1  0
  5  6  2  0
  1  6  1  0
M  END

$$$$
No_4170-/export/home/yangzhenyu/potential_scad_32_flow//YTHDC2/2024-12-06-03-22-00/
     RDKit          3D

 18 20  0  0  1  0  0  0  0  0999 V2000
    1.1787   -8.0297    3.5154 C   0  0  2  0  0  0  0  0  0  0  0  0
    1.0491   -6.8434    2.9820 C   0  0  0  0  0  0  0  0  0  0  0  0
    1.9985   -8.9840    2.8958 C   0  0  0  0  0  0  0  0  0  0  0  0
    1.9135  -10.3404    3.6266 C   0  0  0  0  0  0  0  0  0  0  0  0
    0.9460  -10.6347    4.5748 C   0  0  0  0  0  0  0  0  0  0  0  0
   -0.2056  -10.4178    4.1878 C   0  0  0  0  0  0  0  0  0  0  0  0
   -0.8927   -9.1875    3.8782 C   0  0  0  0  0  0  0  0  0  0  0  0
   -0.2851   -8.1034    3.4412 C   0  0  1  0  0  0  0  0  0  0  0  0
   -0.0271   -6.1649    2.8276 C   0  0  0  0  0  0  0  0  0  0  0  0
   -0.9495   -7.0738    3.1933 N   0  0  0  0  0  0  0  0  0  0  0  0
   -0.3466   -4.8702    2.2893 C   0  0  0  0  0  0  0  0  0  0  0  0
    0.5746   -3.9521    2.3286 C   0  0  0  0  0  0  0  0  0  0  0  0
    0.6944   -2.9229    2.4044 C   0  0  0  0  0  0  0  0  0  0  0  0
   -2.2588   -9.1258    4.3348 O   0  0  0  0  0  0  0  0  0  0  0  0
    1.8375   -2.1739    2.5021 C   0  0  0  0  0  0  0  0  0  0  0  0
    2.8934   -3.0628    2.2807 C   0  0  0  0  0  0  0  0  0  0  0  0
    2.1654   -4.3202    2.1372 C   0  0  0  0  0  0  0  0  0  0  0  0
    3.2426  -11.0183    3.7171 C   0  0  0  0  0  0  0  0  0  0  0  0
  1  2  1  6
  1  3  1  0
  3  4  2  0
  4  5  1  0
  5  6  2  0
  6  7  1  0
  1  8  1  0
  7  8  1  0
  2  9  2  0
  8 10  1  1
  9 10  1  0
  9 11  1  0
 11 12  2  3
 12 13  1  0
  7 14  2  0
 13 15  2  0
 15 16  1  0
 12 17  1  0
 16 17  2  0
  4 18  1  0
M  END

$$$$
No_4171-/export/home/yangzhenyu/potential_scad_32_flow//YTHDC2/2024-12-06-03-22-00/
     RDKit          3D

 15 15  0  0  0  0  0  0  0  0999 V2000
    1.1787   -8.0297    3.5154 C   0  0  0  0  0  0  0  0  0  0  0  0
    1.1048   -9.2215    3.2892 C   0  0  0  0  0  0  0  0  0  0  0  0
    1.3627  -10.1721    4.3044 C   0  0  0  0  0  0  0  0  0  0  0  0
    1.7354  -11.4730    3.9023 C   0  0  0  0  0  0  0  0  0  0  0  0
    1.8080  -11.8127    2.7216 C   0  0  0  0  0  0  0  0  0  0  0  0
    1.5854  -11.0021    1.7249 C   0  0  0  0  0  0  0  0  0  0  0  0
    1.3573   -9.7389    1.9287 C   0  0  0  0  0  0  0  0  0  0  0  0
    1.2865   -8.8078    0.9161 C   0  0  0  0  0  0  0  0  0  0  0  0
    1.6845   -9.1638   -0.2896 O   0  0  0  0  0  0  0  0  0  0  0  0
    0.9531   -7.5121    1.0883 O   0  0  0  0  0  0  0  0  0  0  0  0
    2.0767  -13.2100    2.3154 C   0  0  0  0  0  0  0  0  0  0  0  0
    1.8913  -14.2514    3.1398 Br  0  0  0  0  0  0  0  0  0  0  0  0
    2.5401  -13.3571    0.9741 O   0  0  0  0  0  0  0  0  0  0  0  0
    0.1052   -7.2111    3.3838 N   0  0  0  0  0  0  0  0  0  0  0  0
   -0.2956   -6.8625    2.2876 O   0  0  0  0  0  0  0  0  0  0  0  0
  1  2  1  0
  7  8  1  0
  8  9  2  0
  8 10  1  0
  5 11  1  0
 11 12  1  0
 11 13  2  0
  1 14  1  0
 14 15  2  0
  2  3  2  0
  3  4  1  0
  4  5  2  0
  5  6  1  0
  6  7  2  0
  2  7  1  0
M  END

$$$$
No_4172-/export/home/yangzhenyu/potential_scad_32_flow//YTHDC2/2024-12-06-03-22-00/
     RDKit          3D

 17 17  0  0  1  0  0  0  0  0999 V2000
    1.1787   -8.0297    3.5154 C   0  0  0  0  0  0  0  0  0  0  0  0
    1.1048   -9.2215    3.2892 C   0  0  0  0  0  0  0  0  0  0  0  0
    1.2339   -9.7611    2.0189 C   0  0  0  0  0  0  0  0  0  0  0  0
    1.3583   -9.0036    0.9764 C   0  0  0  0  0  0  0  0  0  0  0  0
    1.5996   -7.6362    1.1311 C   0  0  0  0  0  0  0  0  0  0  0  0
    1.4830   -7.0928    2.3626 C   0  0  0  0  0  0  0  0  0  0  0  0
    1.1008  -11.2372    1.8542 C   0  0  0  0  0  0  0  0  0  0  0  0
    0.5178  -11.9759    2.3445 C   0  0  0  0  0  0  0  0  0  0  0  0
    0.4575  -13.3705    2.1281 C   0  0  0  0  0  0  0  0  0  0  0  0
    1.1632  -14.1013    2.0451 C   0  0  0  0  0  0  0  0  0  0  0  0
    1.0401  -15.5542    1.9840 C   0  0  1  0  0  0  0  0  0  0  0  0
    2.1973  -16.4195    1.9322 C   0  0  0  0  0  0  0  0  0  0  0  0
    2.1459  -17.7142    2.1693 Br  0  0  0  0  0  0  0  0  0  0  0  0
    1.5529   -9.4126   -0.3590 C   0  0  0  0  0  0  0  0  0  0  0  0
    2.5260   -9.4368   -0.9876 O   0  0  0  0  0  0  0  0  0  0  0  0
    0.3852   -9.6125   -0.9751 O   0  0  0  0  0  0  0  0  0  0  0  0
   -0.1392  -16.0923    2.0914 C   0  0  0  0  0  0  0  0  0  0  0  0
  3  7  1  0
  7  8  2  3
  8  9  1  0
  9 10  2  3
 10 11  1  0
 11 12  1  0
 12 13  1  0
  4 14  1  0
 14 15  2  0
 14 16  1  0
 11 17  1  1
  1  2  2  0
  2  3  1  0
  3  4  2  0
  4  5  1  0
  5  6  2  0
  1  6  1  0
M  END

$$$$
No_4173-/export/home/yangzhenyu/potential_scad_32_flow//YTHDC2/2024-12-06-03-22-00/
     RDKit          3D

 18 20  0  0  0  0  0  0  0  0999 V2000
    1.1787   -8.0297    3.5154 C   0  0  0  0  0  0  0  0  0  0  0  0
    1.0491   -6.8434    2.9820 C   0  0  0  0  0  0  0  0  0  0  0  0
    0.0950   -8.8404    3.2292 C   0  0  0  0  0  0  0  0  0  0  0  0
   -0.9173   -8.4596    2.5152 C   0  0  0  0  0  0  0  0  0  0  0  0
   -1.0331   -7.2162    2.0653 C   0  0  0  0  0  0  0  0  0  0  0  0
   -0.0105   -6.3168    2.3081 C   0  0  0  0  0  0  0  0  0  0  0  0
    0.0485   -4.9783    1.8782 C   0  0  0  0  0  0  0  0  0  0  0  0
   -0.6974   -4.6139    0.8644 C   0  0  0  0  0  0  0  0  0  0  0  0
   -0.9180   -3.5193    0.5672 C   0  0  0  0  0  0  0  0  0  0  0  0
   -0.1429   -2.4115    1.0656 C   0  0  0  0  0  0  0  0  0  0  0  0
    0.7432   -2.6592    1.9795 C   0  0  0  0  0  0  0  0  0  0  0  0
    0.8890   -3.9997    2.3855 C   0  0  0  0  0  0  0  0  0  0  0  0
    0.1075  -10.2415    3.7148 C   0  0  0  0  0  0  0  0  0  0  0  0
    1.2183  -10.8885    4.0885 C   0  0  0  0  0  0  0  0  0  0  0  0
    1.0786  -12.3052    4.3949 C   0  0  0  0  0  0  0  0  0  0  0  0
    0.2347  -12.9982    3.5784 C   0  0  0  0  0  0  0  0  0  0  0  0
   -0.7781  -12.3522    3.0508 C   0  0  0  0  0  0  0  0  0  0  0  0
   -0.8986  -11.0031    3.0584 C   0  0  0  0  0  0  0  0  0  0  0  0
  6  7  1  0
  3 13  1  0
 13 14  2  0
 14 15  1  0
 15 16  2  0
 16 17  1  0
 17 18  2  0
 13 18  1  0
  1  2  2  0
  2  6  1  0
  5  6  2  0
  4  5  1  0
  3  4  2  0
  1  3  1  0
  7  8  2  0
  8  9  1  0
  9 10  2  0
 10 11  1  0
 11 12  2  0
  7 12  1  0
M  END

$$$$
No_4174-/export/home/yangzhenyu/potential_scad_32_flow//YTHDC2/2024-12-06-03-22-00/
     RDKit          3D

 19 20  0  0  1  0  0  0  0  0999 V2000
    1.1787   -8.0297    3.5154 C   0  0  0  0  0  0  0  0  0  0  0  0
    1.0491   -6.8434    2.9820 C   0  0  1  0  0  0  0  0  0  0  0  0
    0.9905   -9.0774    2.6527 C   0  0  2  0  0  0  0  0  0  0  0  0
    0.7897   -8.9519    1.3691 C   0  0  0  0  0  0  0  0  0  0  0  0
    0.7018   -7.7198    0.7892 C   0  0  0  0  0  0  0  0  0  0  0  0
    1.4312   -5.5794    3.7443 Cl  0  0  0  0  0  0  0  0  0  0  0  0
    0.9313   -6.7257    1.5340 C   0  0  0  0  0  0  0  0  0  0  0  0
    0.9362  -10.7431    3.4667 C   0  0  0  0  0  0  0  0  0  0  0  0
    1.1522  -11.7430    2.5731 C   0  0  2  0  0  0  0  0  0  0  0  0
    1.2955  -12.9896    3.2412 C   0  0  0  0  0  0  0  0  0  0  0  0
    1.5440  -14.1567    2.3421 C   0  0  1  0  0  0  0  0  0  0  0  0
    2.5008  -13.8107    1.3331 C   0  0  0  0  0  0  0  0  0  0  0  0
    0.8630   -5.4460    0.9883 O   0  0  0  0  0  0  0  0  0  0  0  0
    2.1650  -12.6037    0.6205 C   0  0  0  0  0  0  0  0  0  0  0  0
    1.7487  -11.5126    1.3821 C   0  0  0  0  0  0  0  0  0  0  0  0
    0.5093  -10.6340    4.6246 O   0  0  0  0  0  0  0  0  0  0  0  0
    1.9786  -15.3989    3.1524 Cl  0  0  0  0  0  0  0  0  0  0  0  0
    0.2738  -14.5008    1.6190 O   0  0  0  0  0  0  0  0  0  0  0  0
   -0.8269  -13.9011    1.9923 C   0  0  0  0  0  0  0  0  0  0  0  0
  1  2  1  0
  3  4  1  0
  2  6  1  6
  2  7  1  0
  5  7  1  0
  3  8  1  1
  9  8  1  1
  9 10  1  0
 10 11  1  0
 11 12  1  0
  7 13  2  0
 12 14  1  0
  9 15  1  0
 14 15  1  0
  8 16  2  0
 11 17  1  1
 11 18  1  0
 18 19  1  0
  1  3  1  0
  4  5  1  0
M  END

$$$$
No_4175-/export/home/yangzhenyu/potential_scad_32_flow//YTHDC2/2024-12-06-03-22-00/
     RDKit          3D

 18 19  0  0  0  0  0  0  0  0999 V2000
    1.1787   -8.0297    3.5154 C   0  0  0  0  0  0  0  0  0  0  0  0
    1.0491   -6.8434    2.9820 C   0  0  0  0  0  0  0  0  0  0  0  0
    0.9905   -9.0774    2.6527 C   0  0  0  0  0  0  0  0  0  0  0  0
    0.7897   -8.9519    1.3691 C   0  0  0  0  0  0  0  0  0  0  0  0
    0.7018   -7.7198    0.7892 C   0  0  0  0  0  0  0  0  0  0  0  0
    0.8918   -6.5957    1.6117 C   0  0  0  0  0  0  0  0  0  0  0  0
    1.0600  -10.5680    3.3321 C   0  0  0  0  0  0  0  0  0  0  0  0
    2.1422  -11.0089    3.6867 C   0  0  0  0  0  0  0  0  0  0  0  0
    0.8608   -5.2505    1.2071 O   0  0  0  0  0  0  0  0  0  0  0  0
   -0.0630  -11.2113    3.4548 C   0  0  0  0  0  0  0  0  0  0  0  0
   -1.1756  -10.4986    4.0222 C   0  0  0  0  0  0  0  0  0  0  0  0
   -2.4235  -10.9215    4.0963 C   0  0  0  0  0  0  0  0  0  0  0  0
   -3.4271  -10.3833    4.7451 C   0  0  0  0  0  0  0  0  0  0  0  0
   -3.1194   -9.1666    5.5547 C   0  0  0  0  0  0  0  0  0  0  0  0
   -1.7855   -8.6040    5.4774 C   0  0  0  0  0  0  0  0  0  0  0  0
   -0.7898   -9.2800    4.8017 N   0  0  0  0  0  0  0  0  0  0  0  0
   -4.0397   -8.3911    6.2945 C   0  0  0  0  0  0  0  0  0  0  0  0
    2.4201  -11.6171    4.6431 O   0  0  0  0  0  0  0  0  0  0  0  0
  1  2  1  0
  3  4  1  0
  2  6  1  0
  5  6  1  0
  3  7  1  0
  7  8  1  0
  6  9  2  0
  7 10  1  0
 14 17  1  0
  8 18  2  0
 10 11  1  0
  1  3  1  0
  4  5  1  0
 11 12  2  0
 12 13  1  0
 13 14  2  0
 14 15  1  0
 15 16  2  0
 11 16  1  0
M  END

$$$$
No_4176-/export/home/yangzhenyu/potential_scad_32_flow//YTHDC2/2024-12-06-03-22-00/
     RDKit          3D

 17 18  0  0  0  0  0  0  0  0999 V2000
    1.1787   -8.0297    3.5154 N   0  0  0  0  0  0  0  0  0  0  0  0
    1.0818   -9.0751    3.2053 C   0  0  0  0  0  0  0  0  0  0  0  0
    0.7576   -9.3725    1.9159 C   0  0  0  0  0  0  0  0  0  0  0  0
    0.7445  -10.8746    1.6491 C   0  0  0  0  0  0  0  0  0  0  0  0
    0.9910  -11.7526    2.6067 C   0  0  0  0  0  0  0  0  0  0  0  0
    1.4405  -11.4331    3.8064 C   0  0  0  0  0  0  0  0  0  0  0  0
    1.4304  -10.0463    4.1669 C   0  0  0  0  0  0  0  0  0  0  0  0
    1.1303   -6.7964    2.6709 C   0  0  0  0  0  0  0  0  0  0  0  0
    0.9712   -7.2207    1.3238 N   0  0  0  0  0  0  0  0  0  0  0  0
    0.8820   -8.4265    0.9434 C   0  0  0  0  0  0  0  0  0  0  0  0
    0.6331   -8.6838   -0.3833 C   0  0  0  0  0  0  0  0  0  0  0  0
   -0.7997   -8.8610   -0.6696 N   0  0  0  0  0  0  0  0  0  0  0  0
   -1.6382   -8.4842    0.2604 C   0  0  0  0  0  0  0  0  0  0  0  0
   -2.2044   -7.2282    0.1814 C   0  0  0  0  0  0  0  0  0  0  0  0
   -2.8752   -6.6614    1.2968 C   0  0  0  0  0  0  0  0  0  0  0  0
   -3.2946   -7.5890    2.2169 C   0  0  0  0  0  0  0  0  0  0  0  0
   -2.8641   -8.9065    2.2542 C   0  0  0  0  0  0  0  0  0  0  0  0
 10 11  1  0
 11 12  1  0
 12 13  1  0
 13 14  1  0
 14 15  2  3
 15 16  1  0
 16 17  2  0
  3  4  1  0
  4  5  2  0
  5  6  1  0
  6  7  2  0
  2  7  1  0
  1  2  2  0
  2  3  1  0
  3 10  2  0
  9 10  1  0
  8  9  2  0
  1  8  1  0
M  END

$$$$
No_4177-/export/home/yangzhenyu/potential_scad_32_flow//YTHDC2/2024-12-06-03-22-00/
     RDKit          3D

 21 23  0  0  0  0  0  0  0  0999 V2000
    1.1787   -8.0297    3.5154 N   0  0  0  0  0  0  0  0  0  0  0  0
    1.0818   -9.0751    3.2053 C   0  0  0  0  0  0  0  0  0  0  0  0
    0.7576   -9.3725    1.9159 C   0  0  0  0  0  0  0  0  0  0  0  0
    0.8823   -8.4917    1.0547 C   0  0  0  0  0  0  0  0  0  0  0  0
    0.9679   -8.9061   -0.3794 C   0  0  0  0  0  0  0  0  0  0  0  0
    1.4872   -7.0697    2.4366 C   0  0  0  0  0  0  0  0  0  0  0  0
    1.2533   -7.2172    1.2831 N   0  0  0  0  0  0  0  0  0  0  0  0
    1.9717   -8.7970   -1.1547 O   0  0  0  0  0  0  0  0  0  0  0  0
   -0.1859   -9.2754   -0.9113 O   0  0  0  0  0  0  0  0  0  0  0  0
    0.9156  -10.1157    4.2033 C   0  0  0  0  0  0  0  0  0  0  0  0
    0.7510  -11.5509    3.6979 C   0  0  0  0  0  0  0  0  0  0  0  0
    0.5174  -11.8944    2.6051 C   0  0  0  0  0  0  0  0  0  0  0  0
    0.4932  -13.3077    2.0453 C   0  0  0  0  0  0  0  0  0  0  0  0
    1.1714  -14.2658    2.8672 C   0  0  0  0  0  0  0  0  0  0  0  0
    2.2456  -14.8777    2.5100 C   0  0  0  0  0  0  0  0  0  0  0  0
    2.2871  -16.2619    2.3959 C   0  0  0  0  0  0  0  0  0  0  0  0
    1.4388  -17.0523    2.8919 C   0  0  0  0  0  0  0  0  0  0  0  0
    0.3151  -16.4897    3.5584 C   0  0  0  0  0  0  0  0  0  0  0  0
    0.1287  -15.1497    3.4806 C   0  0  0  0  0  0  0  0  0  0  0  0
    0.6602  -10.8904    1.4431 C   0  0  0  0  0  0  0  0  0  0  0  0
    0.3332  -13.5124    0.7876 O   0  0  0  0  0  0  0  0  0  0  0  0
  4  5  1  0
  5  8  2  0
  5  9  1  0
 12 13  1  0
 13 14  1  0
 13 21  2  0
  3 20  1  0
 12 20  2  0
 11 12  1  0
 10 11  2  0
  2 10  1  0
 14 15  2  0
 15 16  1  0
 16 17  2  0
 17 18  1  0
 18 19  2  0
 14 19  1  0
  1  2  2  0
  2  3  1  0
  3  4  2  0
  4  7  1  0
  6  7  2  0
  1  6  1  0
M  END

$$$$
No_4178-/export/home/yangzhenyu/potential_scad_32_flow//YTHDC2/2024-12-06-03-22-00/
     RDKit          3D

 18 19  0  0  0  0  0  0  0  0999 V2000
    1.1787   -8.0297    3.5154 C   0  0  0  0  0  0  0  0  0  0  0  0
    1.1048   -9.2215    3.2892 C   0  0  0  0  0  0  0  0  0  0  0  0
    1.2339   -9.7611    2.0189 C   0  0  0  0  0  0  0  0  0  0  0  0
    1.3583   -9.0036    0.9764 C   0  0  0  0  0  0  0  0  0  0  0  0
    1.5996   -7.6362    1.1311 C   0  0  0  0  0  0  0  0  0  0  0  0
    1.4830   -7.0928    2.3626 C   0  0  0  0  0  0  0  0  0  0  0  0
    1.5395   -5.7300    2.6182 C   0  0  0  0  0  0  0  0  0  0  0  0
    1.1775  -11.2233    1.8407 C   0  0  0  0  0  0  0  0  0  0  0  0
    0.5085  -11.9762    2.1989 C   0  0  0  0  0  0  0  0  0  0  0  0
    0.4247  -13.3704    2.0465 C   0  0  0  0  0  0  0  0  0  0  0  0
   -0.6059  -14.0773    1.8608 C   0  0  0  0  0  0  0  0  0  0  0  0
   -0.5437  -15.5485    1.8404 N   0  0  0  0  0  0  0  0  0  0  0  0
    1.7178  -14.1476    2.4068 C   0  0  0  0  0  0  0  0  0  0  0  0
    1.7684  -15.4963    2.5416 C   0  0  0  0  0  0  0  0  0  0  0  0
    0.6820  -16.2087    2.2669 C   0  0  0  0  0  0  0  0  0  0  0  0
    0.7162  -17.5073    2.4057 C   0  0  0  0  0  0  0  0  0  0  0  0
    1.9486  -18.1412    2.4581 C   0  0  0  0  0  0  0  0  0  0  0  0
    3.2292  -17.3948    2.6264 C   0  0  0  0  0  0  0  0  0  0  0  0
  6  7  1  0
  3  8  1  0
  8  9  2  3
  9 10  1  0
 15 16  1  0
 16 17  2  3
 17 18  1  0
  1  2  2  0
  2  3  1  0
  3  4  2  0
  4  5  1  0
  5  6  2  0
  1  6  1  0
 10 11  2  0
 11 12  1  0
 12 15  2  0
 14 15  1  0
 13 14  2  0
 10 13  1  0
M  END

$$$$
No_4179-/export/home/yangzhenyu/potential_scad_32_flow//YTHDC2/2024-12-06-03-22-00/
     RDKit          3D

 19 20  0  0  1  0  0  0  0  0999 V2000
    1.1787   -8.0297    3.5154 C   0  0  0  0  0  0  0  0  0  0  0  0
    1.0491   -6.8434    2.9820 C   0  0  0  0  0  0  0  0  0  0  0  0
    0.9905   -9.0774    2.6527 C   0  0  0  0  0  0  0  0  0  0  0  0
    0.7897   -8.9519    1.3691 C   0  0  0  0  0  0  0  0  0  0  0  0
    0.7018   -7.7198    0.7892 C   0  0  0  0  0  0  0  0  0  0  0  0
    0.8918   -6.5957    1.6117 C   0  0  0  0  0  0  0  0  0  0  0  0
    1.0600  -10.5680    3.3321 C   0  0  2  0  0  0  0  0  0  0  0  0
    2.1422  -11.0089    3.6867 C   0  0  0  0  0  0  0  0  0  0  0  0
    0.8986   -5.2530    1.1685 O   0  0  0  0  0  0  0  0  0  0  0  0
    0.3651  -11.5290    2.4693 C   0  0  0  0  0  0  0  0  0  0  0  0
    1.0511  -12.4440    1.9489 C   0  0  2  0  0  0  0  0  0  0  0  0
    1.7747  -12.3070    0.9686 C   0  0  0  0  0  0  0  0  0  0  0  0
    0.3604  -13.8017    1.8142 C   0  0  0  0  0  0  0  0  0  0  0  0
    0.9499  -14.9178    2.1883 C   0  0  2  0  0  0  0  0  0  0  0  0
    2.1310  -14.8804    2.7338 N   0  0  0  0  0  0  0  0  0  0  0  0
    0.5288  -16.1501    2.0124 C   0  0  0  0  0  0  0  0  0  0  0  0
    1.4171  -17.2250    2.4459 C   0  0  0  0  0  0  0  0  0  0  0  0
    2.6046  -16.2698    2.9017 C   0  0  0  0  0  0  0  0  0  0  0  0
   -0.6829  -13.4331    1.3860 C   0  0  0  0  0  0  0  0  0  0  0  0
  1  2  1  0
  3  4  1  0
  2  6  1  0
  5  6  1  0
  3  7  1  0
  7  8  1  6
  6  9  2  0
  7 10  1  0
 10 11  1  0
 11 12  1  6
 11 13  1  0
 14 13  1  6
 14 15  1  0
 14 16  1  0
 16 17  2  0
 15 18  2  0
 17 18  1  0
 13 19  1  0
  1  3  1  0
  4  5  1  0
M  END

$$$$
No_4180-/export/home/yangzhenyu/potential_scad_32_flow//YTHDC2/2024-12-06-03-22-00/
     RDKit          3D

 19 20  0  0  1  0  0  0  0  0999 V2000
    1.1787   -8.0297    3.5154 C   0  0  0  0  0  0  0  0  0  0  0  0
    1.0491   -6.8434    2.9820 O   0  0  0  0  0  0  0  0  0  0  0  0
   -0.0075   -8.7761    3.2545 C   0  0  2  0  0  0  0  0  0  0  0  0
   -0.0511   -9.9415    3.9309 C   0  0  1  0  0  0  0  0  0  0  0  0
    0.9737  -10.6592    4.2013 C   0  0  0  0  0  0  0  0  0  0  0  0
    1.4928  -11.4189    3.0648 C   0  0  0  0  0  0  0  0  0  0  0  0
    1.1950  -12.7350    2.9844 C   0  0  0  0  0  0  0  0  0  0  0  0
    1.3310  -13.2577    1.6430 C   0  0  0  0  0  0  0  0  0  0  0  0
    1.4758  -14.7261    1.6224 C   0  0  0  0  0  0  0  0  0  0  0  0
    1.4642  -15.4548    2.5770 C   0  0  0  0  0  0  0  0  0  0  0  0
    1.2346  -14.8830    3.9375 C   0  0  0  0  0  0  0  0  0  0  0  0
    1.1075  -13.6035    4.0104 C   0  0  0  0  0  0  0  0  0  0  0  0
    0.6721   -6.6077    1.6666 C   0  0  2  0  0  0  0  0  0  0  0  0
   -0.4351   -7.2865    1.4036 C   0  0  0  0  0  0  0  0  0  0  0  0
   -0.5876   -8.5563    2.0306 C   0  0  0  0  0  0  0  0  0  0  0  0
   -1.2637  -10.3612    4.4697 C   0  0  0  0  0  0  0  0  0  0  0  0
    1.6465   -6.3786    0.8283 C   0  0  0  0  0  0  0  0  0  0  0  0
    1.6326  -16.8686    2.3676 N   0  0  0  0  0  0  0  0  0  0  0  0
    2.8551  -17.3986    2.5471 O   0  0  0  0  0  0  0  0  0  0  0  0
  1  2  1  0
  3  1  1  6
  3  4  1  0
  4  5  1  0
  5  6  1  0
  6  7  1  0
  2 13  1  0
 13 14  1  0
  3 15  1  0
 14 15  1  0
  4 16  1  1
 13 17  1  6
 10 18  1  0
 18 19  2  0
  7  8  2  0
  8  9  1  0
  9 10  2  0
 10 11  1  0
 11 12  2  0
  7 12  1  0
M  END

$$$$
No_4181-/export/home/yangzhenyu/potential_scad_32_flow//YTHDC2/2024-12-06-03-22-00/
     RDKit          3D

 17 17  0  0  1  0  0  0  0  0999 V2000
    1.1787   -8.0297    3.5154 C   0  0  0  0  0  0  0  0  0  0  0  0
    1.0491   -6.8434    2.9820 C   0  0  0  0  0  0  0  0  0  0  0  0
    1.9985   -8.9840    2.8958 C   0  0  2  0  0  0  0  0  0  0  0  0
    1.7297   -9.2108    1.6335 F   0  0  0  0  0  0  0  0  0  0  0  0
    1.5855  -10.4023    3.6054 C   0  0  0  0  0  0  0  0  0  0  0  0
    1.9729   -5.7437    3.1451 C   0  0  0  0  0  0  0  0  0  0  0  0
    1.4731   -4.6267    2.4600 C   0  0  0  0  0  0  0  0  0  0  0  0
    1.1126   -3.5056    2.9512 O   0  0  0  0  0  0  0  0  0  0  0  0
    1.4921  -11.5235    2.7959 C   0  0  0  0  0  0  0  0  0  0  0  0
    0.6036  -12.2936    3.1681 C   0  0  0  0  0  0  0  0  0  0  0  0
   -0.5767  -12.1257    3.0454 C   0  0  0  0  0  0  0  0  0  0  0  0
   -1.1344  -10.9082    3.4859 C   0  0  0  0  0  0  0  0  0  0  0  0
   -1.5466  -12.9654    2.6801 C   0  0  0  0  0  0  0  0  0  0  0  0
    1.3026   -4.7026    1.1283 O   0  0  0  0  0  0  0  0  0  0  0  0
   -2.9080  -12.6819    2.5796 C   0  0  0  0  0  0  0  0  0  0  0  0
   -3.3635  -11.5394    3.2141 C   0  0  0  0  0  0  0  0  0  0  0  0
   -2.4916  -10.6116    3.6875 C   0  0  0  0  0  0  0  0  0  0  0  0
  1  2  1  0
  1  3  1  0
  3  4  1  6
  3  5  1  0
  2  6  1  0
  6  7  1  0
  7  8  1  0
  5  9  1  0
  9 10  1  0
 10 11  1  0
  7 14  2  0
 11 12  2  0
 12 17  1  0
 16 17  2  0
 15 16  1  0
 13 15  2  0
 11 13  1  0
M  END

$$$$
No_4182-/export/home/yangzhenyu/potential_scad_32_flow//YTHDC2/2024-12-06-03-22-00/
     RDKit          3D

 19 19  0  0  0  0  0  0  0  0999 V2000
    1.1787   -8.0297    3.5154 C   0  0  0  0  0  0  0  0  0  0  0  0
    1.1048   -9.2215    3.2892 C   0  0  0  0  0  0  0  0  0  0  0  0
    1.2339   -9.7611    2.0189 C   0  0  0  0  0  0  0  0  0  0  0  0
    1.4306   -8.9466    1.1170 C   0  0  0  0  0  0  0  0  0  0  0  0
    1.7533   -9.5159   -0.2897 C   0  0  0  0  0  0  0  0  0  0  0  0
    1.4215   -7.0791    2.4025 C   0  0  0  0  0  0  0  0  0  0  0  0
    1.5409   -7.5780    1.1516 C   0  0  0  0  0  0  0  0  0  0  0  0
    2.0997   -8.7639   -1.2659 O   0  0  0  0  0  0  0  0  0  0  0  0
    1.2966  -10.6872   -0.4761 O   0  0  0  0  0  0  0  0  0  0  0  0
    0.9938  -10.1776    4.4115 C   0  0  0  0  0  0  0  0  0  0  0  0
    0.6961  -11.5729    3.8192 C   0  0  0  0  0  0  0  0  0  0  0  0
    1.7701  -12.5802    3.9584 C   0  0  0  0  0  0  0  0  0  0  0  0
    1.9082  -13.4140    2.8101 C   0  0  0  0  0  0  0  0  0  0  0  0
    1.6222  -13.1488    1.7360 O   0  0  0  0  0  0  0  0  0  0  0  0
    2.6069  -14.5936    3.0111 O   0  0  0  0  0  0  0  0  0  0  0  0
    1.4071   -5.5952    2.6687 Cl  0  0  0  0  0  0  0  0  0  0  0  0
    2.7455  -15.4656    1.8576 C   0  0  0  0  0  0  0  0  0  0  0  0
    1.5959  -15.8512    1.3451 C   0  0  0  0  0  0  0  0  0  0  0  0
    0.6561  -16.4519    2.2287 C   0  0  0  0  0  0  0  0  0  0  0  0
  4  5  1  0
  5  8  2  0
  5  9  1  0
  2 10  1  0
 10 11  1  0
 11 12  1  0
 12 13  1  0
 13 14  2  0
 13 15  1  0
  6 16  1  0
 15 17  1  0
 17 18  1  0
 18 19  1  0
  1  2  2  0
  2  3  1  0
  3  4  2  0
  4  7  1  0
  6  7  2  0
  1  6  1  0
M  END

$$$$
No_4183-/export/home/yangzhenyu/potential_scad_32_flow//YTHDC2/2024-12-06-03-22-00/
     RDKit          3D

 19 20  0  0  0  0  0  0  0  0999 V2000
    1.1787   -8.0297    3.5154 C   0  0  0  0  0  0  0  0  0  0  0  0
    1.1048   -9.2215    3.2892 C   0  0  0  0  0  0  0  0  0  0  0  0
    1.3627  -10.1721    4.3044 C   0  0  0  0  0  0  0  0  0  0  0  0
    1.0682  -11.5187    4.0618 C   0  0  0  0  0  0  0  0  0  0  0  0
    0.6332  -11.9655    2.9682 C   0  0  0  0  0  0  0  0  0  0  0  0
    0.4776  -11.1308    1.9203 C   0  0  0  0  0  0  0  0  0  0  0  0
    0.7470   -9.8274    2.0368 C   0  0  0  0  0  0  0  0  0  0  0  0
    0.5535   -7.1314    2.6861 C   0  0  0  0  0  0  0  0  0  0  0  0
    0.7496   -5.5830    2.7890 C   0  0  0  0  0  0  0  0  0  0  0  0
    0.2246   -4.7827    1.8039 C   0  0  0  0  0  0  0  0  0  0  0  0
    0.6741   -3.5934    1.6305 C   0  0  0  0  0  0  0  0  0  0  0  0
    1.8940   -3.1877    2.3058 C   0  0  0  0  0  0  0  0  0  0  0  0
    2.4638   -3.9729    3.2798 C   0  0  0  0  0  0  0  0  0  0  0  0
    1.9275   -5.2407    3.4778 C   0  0  0  0  0  0  0  0  0  0  0  0
    0.3475  -13.3336    2.7051 C   0  0  0  0  0  0  0  0  0  0  0  0
    1.2949  -14.3234    3.1880 N   0  0  0  0  0  0  0  0  0  0  0  0
    1.1223  -15.6356    3.0138 C   0  0  0  0  0  0  0  0  0  0  0  0
    0.7728  -15.9844    1.9096 C   0  0  0  0  0  0  0  0  0  0  0  0
   -0.0848  -15.1455    1.1401 C   0  0  0  0  0  0  0  0  0  0  0  0
  1  2  1  0
  1  8  2  3
  8  9  1  0
  5 15  1  0
 15 16  1  0
 16 17  1  0
 17 18  1  0
 18 19  1  0
  2  3  2  0
  3  4  1  0
  4  5  2  0
  5  6  1  0
  6  7  2  0
  2  7  1  0
  9 10  2  0
 10 11  1  0
 11 12  2  0
 12 13  1  0
 13 14  2  0
  9 14  1  0
M  END

$$$$
No_4184-/export/home/yangzhenyu/potential_scad_32_flow//YTHDC2/2024-12-06-03-22-00/
     RDKit          3D

 18 19  0  0  0  0  0  0  0  0999 V2000
    1.1787   -8.0297    3.5154 C   0  0  0  0  0  0  0  0  0  0  0  0
    1.1048   -9.2215    3.2892 C   0  0  0  0  0  0  0  0  0  0  0  0
    1.0239   -9.7790    2.0239 C   0  0  0  0  0  0  0  0  0  0  0  0
    1.1393   -9.0211    0.9686 C   0  0  0  0  0  0  0  0  0  0  0  0
    1.4050   -7.6500    1.1251 C   0  0  0  0  0  0  0  0  0  0  0  0
    1.4868   -7.1041    2.3534 C   0  0  0  0  0  0  0  0  0  0  0  0
    1.5562   -5.7208    2.5782 C   0  0  0  0  0  0  0  0  0  0  0  0
    0.8782  -11.3633    1.9235 C   0  0  0  0  0  0  0  0  0  0  0  0
    1.9186  -12.0693    2.0412 C   0  0  0  0  0  0  0  0  0  0  0  0
    1.7020  -13.4700    1.8844 C   0  0  0  0  0  0  0  0  0  0  0  0
    0.5712  -13.9781    1.6662 C   0  0  0  0  0  0  0  0  0  0  0  0
   -0.5551  -13.2597    1.6468 C   0  0  0  0  0  0  0  0  0  0  0  0
   -0.3723  -11.8326    1.7102 C   0  0  0  0  0  0  0  0  0  0  0  0
   -1.5024  -11.0180    1.5042 C   0  0  0  0  0  0  0  0  0  0  0  0
   -2.6320  -11.4206    1.4305 C   0  0  0  0  0  0  0  0  0  0  0  0
   -3.7754  -10.5590    1.0074 C   0  0  0  0  0  0  0  0  0  0  0  0
   -4.8138  -10.3321    1.6976 C   0  0  0  0  0  0  0  0  0  0  0  0
   -5.5259   -9.1808    1.4339 N   0  0  0  0  0  0  0  0  0  0  0  0
  6  7  1  0
  3  8  1  0
 13 14  1  0
 14 15  2  3
 15 16  1  0
 16 17  2  3
 17 18  1  0
  1  2  2  0
  2  3  1  0
  3  4  2  0
  4  5  1  0
  5  6  2  0
  1  6  1  0
  8  9  2  0
  9 10  1  0
 10 11  2  0
 11 12  1  0
 12 13  2  0
  8 13  1  0
M  END

$$$$
No_4185-/export/home/yangzhenyu/potential_scad_32_flow//YTHDC2/2024-12-06-03-22-00/
     RDKit          3D

 18 19  0  0  1  0  0  0  0  0999 V2000
    1.1787   -8.0297    3.5154 C   0  0  0  0  0  0  0  0  0  0  0  0
    1.1048   -9.2215    3.2892 C   0  0  0  0  0  0  0  0  0  0  0  0
    1.2339   -9.7611    2.0189 C   0  0  0  0  0  0  0  0  0  0  0  0
    1.1954  -11.2312    1.8661 C   0  0  0  0  0  0  0  0  0  0  0  0
    1.2996  -11.5815    0.5387 C   0  0  0  0  0  0  0  0  0  0  0  0
    1.3263   -7.1208    2.3229 C   0  0  1  0  0  0  0  0  0  0  0  0
    1.3693   -7.6408    1.0625 C   0  0  0  0  0  0  0  0  0  0  0  0
    1.4358   -8.9950    0.8622 C   0  0  0  0  0  0  0  0  0  0  0  0
    1.1800  -13.0763    0.6448 N   0  0  0  0  0  0  0  0  0  0  0  0
    1.3300  -11.7957    2.8070 C   0  0  0  0  0  0  0  0  0  0  0  0
    1.3116  -13.2296    2.7998 C   0  0  0  0  0  0  0  0  0  0  0  0
    1.1849  -13.8568    1.6521 C   0  0  0  0  0  0  0  0  0  0  0  0
    1.3078   -5.5383    2.5496 C   0  0  0  0  0  0  0  0  0  0  0  0
    1.6474   -9.3321   -0.3641 O   0  0  0  0  0  0  0  0  0  0  0  0
    1.3188  -15.1763    1.4722 C   0  0  0  0  0  0  0  0  0  0  0  0
    0.8225  -15.9547    2.2650 C   0  0  0  0  0  0  0  0  0  0  0  0
   -0.0584  -15.5160    3.3215 C   0  0  0  0  0  0  0  0  0  0  0  0
   -0.3732  -16.4959    4.3103 C   0  0  0  0  0  0  0  0  0  0  0  0
  1  2  1  0
  3  4  1  0
  6  7  1  0
  3  8  1  0
  7  8  1  0
  6 13  1  6
  8 14  2  0
 12 15  1  0
 15 16  2  3
 16 17  1  0
 17 18  2  0
  2  3  1  0
  1  6  1  0
  4  5  2  0
  5  9  1  0
  9 12  2  0
 11 12  1  0
 10 11  2  0
  4 10  1  0
M  END

$$$$
No_4186-/export/home/yangzhenyu/potential_scad_32_flow//YTHDC2/2024-12-06-03-22-00/
     RDKit          3D

 19 21  0  0  0  0  0  0  0  0999 V2000
    1.1787   -8.0297    3.5154 C   0  0  0  0  0  0  0  0  0  0  0  0
    1.0491   -6.8434    2.9820 C   0  0  0  0  0  0  0  0  0  0  0  0
    0.9905   -9.0774    2.6527 C   0  0  0  0  0  0  0  0  0  0  0  0
    0.7897   -8.9519    1.3691 C   0  0  0  0  0  0  0  0  0  0  0  0
    0.7018   -7.7198    0.7892 C   0  0  0  0  0  0  0  0  0  0  0  0
    0.8918   -6.5957    1.6117 C   0  0  0  0  0  0  0  0  0  0  0  0
    1.0998  -10.4710    3.2437 C   0  0  0  0  0  0  0  0  0  0  0  0
    2.1917  -10.8879    3.7399 C   0  0  0  0  0  0  0  0  0  0  0  0
    0.8983   -5.2566    1.2088 O   0  0  0  0  0  0  0  0  0  0  0  0
   -0.0200  -11.2248    3.3627 C   0  0  0  0  0  0  0  0  0  0  0  0
   -0.0780  -12.5021    3.1735 C   0  0  0  0  0  0  0  0  0  0  0  0
    1.2166  -13.1278    2.9672 C   0  0  0  0  0  0  0  0  0  0  0  0
    2.4119  -12.2526    3.3954 C   0  0  0  0  0  0  0  0  0  0  0  0
    1.3794  -14.4855    3.1851 C   0  0  0  0  0  0  0  0  0  0  0  0
    2.0732  -15.2441    3.1229 C   0  0  0  0  0  0  0  0  0  0  0  0
    2.0581  -16.6647    2.9388 C   0  0  0  0  0  0  0  0  0  0  0  0
    1.0509  -17.3175    3.0451 C   0  0  0  0  0  0  0  0  0  0  0  0
   -0.1158  -16.6251    3.1754 C   0  0  0  0  0  0  0  0  0  0  0  0
   -0.0396  -15.2407    3.2334 C   0  0  0  0  0  0  0  0  0  0  0  0
  1  2  1  0
  3  4  1  0
  2  6  1  0
  5  6  1  0
  3  7  1  0
  6  9  2  0
 12 14  1  0
  1  3  1  0
  4  5  1  0
  7  8  2  0
  8 13  1  0
 12 13  2  0
 11 12  1  0
 10 11  2  0
  7 10  1  0
 14 15  2  0
 15 16  1  0
 16 17  2  0
 17 18  1  0
 18 19  2  0
 14 19  1  0
M  END

$$$$
No_4187-/export/home/yangzhenyu/potential_scad_32_flow//YTHDC2/2024-12-06-03-22-00/
     RDKit          3D

 14 14  0  0  0  0  0  0  0  0999 V2000
    1.1787   -8.0297    3.5154 C   0  0  0  0  0  0  0  0  0  0  0  0
    1.1048   -9.2215    3.2892 C   0  0  0  0  0  0  0  0  0  0  0  0
    1.3627  -10.1721    4.3044 C   0  0  0  0  0  0  0  0  0  0  0  0
    1.7354  -11.4730    3.9023 C   0  0  0  0  0  0  0  0  0  0  0  0
    1.8080  -11.8127    2.7216 C   0  0  0  0  0  0  0  0  0  0  0  0
    1.5854  -11.0021    1.7249 C   0  0  0  0  0  0  0  0  0  0  0  0
    1.3735   -9.6614    1.9394 C   0  0  0  0  0  0  0  0  0  0  0  0
    1.3176   -8.7879    0.9243 C   0  0  0  0  0  0  0  0  0  0  0  0
    1.7176   -9.1388   -0.2863 C   0  0  0  0  0  0  0  0  0  0  0  0
    2.0719  -13.2173    2.3526 Cl  0  0  0  0  0  0  0  0  0  0  0  0
    1.7196   -8.1081   -1.3854 O   0  0  0  0  0  0  0  0  0  0  0  0
    0.7637   -7.0568    3.0240 O   0  0  0  0  0  0  0  0  0  0  0  0
    2.1211   -7.5610    4.4469 O   0  0  0  0  0  0  0  0  0  0  0  0
    2.3342  -10.1867   -0.6648 O   0  0  0  0  0  0  0  0  0  0  0  0
  1  2  1  0
  7  8  1  0
  8  9  2  3
  5 10  1  0
  9 11  1  0
  1 12  2  0
  1 13  1  0
  9 14  1  0
  2  3  2  0
  3  4  1  0
  4  5  2  0
  5  6  1  0
  6  7  2  0
  2  7  1  0
M  END

$$$$
No_4188-/export/home/yangzhenyu/potential_scad_32_flow//YTHDC2/2024-12-06-03-22-00/
     RDKit          3D

 18 19  0  0  1  0  0  0  0  0999 V2000
    1.1787   -8.0297    3.5154 C   0  0  0  0  0  0  0  0  0  0  0  0
    1.0491   -6.8434    2.9820 C   0  0  0  0  0  0  0  0  0  0  0  0
    0.9905   -9.0774    2.6527 C   0  0  0  0  0  0  0  0  0  0  0  0
    0.7897   -8.9519    1.3691 C   0  0  0  0  0  0  0  0  0  0  0  0
    0.7018   -7.7198    0.7892 C   0  0  0  0  0  0  0  0  0  0  0  0
    0.8918   -6.5957    1.6117 C   0  0  0  0  0  0  0  0  0  0  0  0
    1.0711  -10.4814    3.2282 C   0  0  0  0  0  0  0  0  0  0  0  0
   -0.1055  -11.1328    3.5223 C   0  0  0  0  0  0  0  0  0  0  0  0
   -0.1824  -12.4513    3.3816 C   0  0  0  0  0  0  0  0  0  0  0  0
    0.9472  -13.2655    3.1726 C   0  0  0  0  0  0  0  0  0  0  0  0
    2.1715  -12.6012    2.9116 C   0  0  0  0  0  0  0  0  0  0  0  0
    2.2064  -11.2741    2.8264 C   0  0  0  0  0  0  0  0  0  0  0  0
    0.8996  -14.6381    3.2447 C   0  0  0  0  0  0  0  0  0  0  0  0
    1.9200  -15.4182    2.8055 C   0  0  0  0  0  0  0  0  0  0  0  0
    1.8046  -16.8255    2.9268 C   0  0  2  0  0  0  0  0  0  0  0  0
    2.9719  -17.6073    2.5313 I   0  0  0  0  0  0  0  0  0  0  0  0
    0.8442   -5.2745    1.1127 O   0  0  0  0  0  0  0  0  0  0  0  0
    0.5437  -17.3289    3.2113 C   0  0  0  0  0  0  0  0  0  0  0  0
  3  7  1  0
 10 13  1  0
 13 14  2  3
 14 15  1  0
 15 16  1  0
  6 17  1  0
 15 18  1  6
  1  2  2  0
  2  6  1  0
  5  6  2  0
  4  5  1  0
  3  4  2  0
  1  3  1  0
  7  8  2  0
  8  9  1  0
  9 10  2  0
 10 11  1  0
 11 12  2  0
  7 12  1  0
M  END

$$$$
No_4189-/export/home/yangzhenyu/potential_scad_32_flow//YTHDC2/2024-12-06-03-22-00/
     RDKit          3D

 20 22  0  0  0  0  0  0  0  0999 V2000
    1.1787   -8.0297    3.5154 C   0  0  0  0  0  0  0  0  0  0  0  0
    1.0491   -6.8434    2.9820 C   0  0  0  0  0  0  0  0  0  0  0  0
    0.9905   -9.0774    2.6527 C   0  0  0  0  0  0  0  0  0  0  0  0
    1.1655  -10.4663    3.1286 C   0  0  0  0  0  0  0  0  0  0  0  0
    1.2197  -11.4898    2.5831 C   0  0  0  0  0  0  0  0  0  0  0  0
    1.0589  -11.4458    1.1293 C   0  0  0  0  0  0  0  0  0  0  0  0
    0.9638  -10.3069    0.4651 C   0  0  0  0  0  0  0  0  0  0  0  0
    0.9191   -9.0789    1.1942 C   0  0  0  0  0  0  0  0  0  0  0  0
    0.9198   -7.8339    0.6158 C   0  0  0  0  0  0  0  0  0  0  0  0
    1.0184   -6.6904    1.4953 C   0  0  0  0  0  0  0  0  0  0  0  0
    1.3450  -12.8153    3.0809 C   0  0  0  0  0  0  0  0  0  0  0  0
    1.4241  -13.9106    2.1510 C   0  0  0  0  0  0  0  0  0  0  0  0
    0.5362  -14.6248    1.8426 C   0  0  0  0  0  0  0  0  0  0  0  0
   -0.6396  -14.4845    2.4542 C   0  0  0  0  0  0  0  0  0  0  0  0
   -1.7048  -15.3865    2.0423 C   0  0  0  0  0  0  0  0  0  0  0  0
   -1.6829  -16.1645    1.0556 C   0  0  0  0  0  0  0  0  0  0  0  0
   -0.4992  -16.2625    0.3396 C   0  0  0  0  0  0  0  0  0  0  0  0
    0.6174  -15.4677    0.6810 C   0  0  0  0  0  0  0  0  0  0  0  0
    2.7886  -14.4974    2.1995 O   0  0  0  0  0  0  0  0  0  0  0  0
    0.9280   -7.6479   -0.5939 O   0  0  0  0  0  0  0  0  0  0  0  0
  1  2  1  0
  8  9  1  0
  9 10  1  0
  5 11  1  0
 11 12  1  0
 12 13  1  0
 12 19  2  0
  9 20  2  0
  1  3  1  0
  2 10  1  0
 13 14  2  0
 14 15  1  0
 15 16  2  0
 16 17  1  0
 17 18  2  0
 13 18  1  0
  3  4  2  0
  4  5  1  0
  5  6  2  0
  6  7  1  0
  7  8  2  0
  3  8  1  0
M  END

$$$$
No_4190-/export/home/yangzhenyu/potential_scad_32_flow//YTHDC2/2024-12-06-03-22-00/
     RDKit          3D

 19 19  0  0  0  0  0  0  0  0999 V2000
    1.1787   -8.0297    3.5154 C   0  0  0  0  0  0  0  0  0  0  0  0
    1.1048   -9.2215    3.2892 C   0  0  0  0  0  0  0  0  0  0  0  0
    1.2339   -9.7611    2.0189 C   0  0  0  0  0  0  0  0  0  0  0  0
    1.3583   -9.0036    0.9764 C   0  0  0  0  0  0  0  0  0  0  0  0
    1.5996   -7.6362    1.1311 C   0  0  0  0  0  0  0  0  0  0  0  0
    1.4830   -7.0928    2.3626 C   0  0  0  0  0  0  0  0  0  0  0  0
    1.5395   -5.7300    2.6182 C   0  0  0  0  0  0  0  0  0  0  0  0
    1.1775  -11.2233    1.8407 C   0  0  0  0  0  0  0  0  0  0  0  0
    1.9057  -12.1147    2.3397 C   0  0  0  0  0  0  0  0  0  0  0  0
    1.6867  -13.4551    2.0621 C   0  0  0  0  0  0  0  0  0  0  0  0
    0.7025  -13.8511    1.3021 Cl  0  0  0  0  0  0  0  0  0  0  0  0
    2.5289  -14.4593    2.7974 N   0  0  0  0  0  0  0  0  0  0  0  0
    0.6323   -4.8888    2.7653 O   0  0  0  0  0  0  0  0  0  0  0  0
    0.8328   -3.4986    3.0815 C   0  0  0  0  0  0  0  0  0  0  0  0
    1.5203   -9.4967   -0.3419 O   0  0  0  0  0  0  0  0  0  0  0  0
    2.3969  -15.8499    2.4859 C   0  0  0  0  0  0  0  0  0  0  0  0
    3.5331  -16.4891    1.9982 O   0  0  0  0  0  0  0  0  0  0  0  0
    1.3497  -16.6128    2.7058 C   0  0  0  0  0  0  0  0  0  0  0  0
    0.8030  -17.3407    1.7846 C   0  0  0  0  0  0  0  0  0  0  0  0
  6  7  1  0
  3  8  1  0
  8  9  1  0
  9 10  2  3
 10 11  1  0
 10 12  1  0
  7 13  1  0
 13 14  1  0
  4 15  1  0
 12 16  1  0
 16 17  2  0
 16 18  1  0
 18 19  2  0
  1  2  2  0
  2  3  1  0
  3  4  2  0
  4  5  1  0
  5  6  2  0
  1  6  1  0
M  END

$$$$
No_4191-/export/home/yangzhenyu/potential_scad_32_flow//YTHDC2/2024-12-06-03-22-00/
     RDKit          3D

 19 19  0  0  1  0  0  0  0  0999 V2000
    1.1787   -8.0297    3.5154 Br  0  0  0  0  0  0  0  0  0  0  0  0
    0.6895   -9.0837    2.8296 C   0  0  1  0  0  0  0  0  0  0  0  0
   -0.1313   -9.1153    1.9371 C   0  0  0  0  0  0  0  0  0  0  0  0
   -0.7836   -8.1692    1.6582 C   0  0  1  0  0  0  0  0  0  0  0  0
   -1.7260   -7.6715    2.2309 C   0  0  0  0  0  0  0  0  0  0  0  0
    1.4259  -10.3927    3.3007 C   0  0  1  0  0  0  0  0  0  0  0  0
    1.9544  -10.6166    4.4267 C   0  0  0  0  0  0  0  0  0  0  0  0
   -2.0438   -6.2806    2.5093 C   0  0  1  0  0  0  0  0  0  0  0  0
   -1.4521   -5.3830    1.6988 C   0  0  0  0  0  0  0  0  0  0  0  0
   -0.3622   -5.7084    0.9213 C   0  0  0  0  0  0  0  0  0  0  0  0
   -0.0257   -6.9615    0.8639 C   0  0  0  0  0  0  0  0  0  0  0  0
    0.8602   -7.3820   -0.0016 O   0  0  0  0  0  0  0  0  0  0  0  0
    1.2586  -11.4936    2.4007 C   0  0  0  0  0  0  0  0  0  0  0  0
    1.1571  -12.8025    2.8344 C   0  0  0  0  0  0  0  0  0  0  0  0
    1.0677  -13.9499    1.9070 C   0  0  0  0  0  0  0  0  0  0  0  0
    2.0513  -14.9439    1.8994 C   0  0  0  0  0  0  0  0  0  0  0  0
    1.9320  -15.9672    2.5179 O   0  0  0  0  0  0  0  0  0  0  0  0
    3.2568  -14.7107    1.4373 O   0  0  0  0  0  0  0  0  0  0  0  0
   -3.4116   -5.7864    3.2217 Cl  0  0  0  0  0  0  0  0  0  0  0  0
  2  1  1  6
  2  3  1  0
  4  3  1  1
  4  5  1  0
  2  6  1  0
  6  7  1  1
  8  9  1  0
  4 11  1  0
 10 11  1  0
 11 12  2  0
  6 13  1  0
 13 14  2  3
 14 15  1  0
 15 16  1  0
 16 17  1  0
 16 18  2  0
  8 19  1  6
  5  8  1  0
  9 10  1  0
M  END

$$$$
No_4192-/export/home/yangzhenyu/potential_scad_32_flow//YTHDC2/2024-12-06-03-22-00/
     RDKit          3D

 18 18  0  0  1  0  0  0  0  0999 V2000
    1.1787   -8.0297    3.5154 C   0  0  0  0  0  0  0  0  0  0  0  0
    1.0491   -6.8434    2.9820 C   0  0  0  0  0  0  0  0  0  0  0  0
    0.9905   -9.0774    2.6527 C   0  0  0  0  0  0  0  0  0  0  0  0
    0.7897   -8.9519    1.3691 C   0  0  0  0  0  0  0  0  0  0  0  0
    0.7018   -7.7198    0.7892 C   0  0  0  0  0  0  0  0  0  0  0  0
    0.8918   -6.5957    1.6117 C   0  0  0  0  0  0  0  0  0  0  0  0
    1.0998  -10.4710    3.2437 C   0  0  1  0  0  0  0  0  0  0  0  0
    2.1917  -10.8879    3.7399 C   0  0  0  0  0  0  0  0  0  0  0  0
    0.8983   -5.2566    1.2088 C   0  0  0  0  0  0  0  0  0  0  0  0
   -0.0163  -11.2298    3.3739 C   0  0  0  0  0  0  0  0  0  0  0  0
   -0.7265  -11.5031    2.5374 C   0  0  0  0  0  0  0  0  0  0  0  0
   -0.3611  -12.3340    1.4965 C   0  0  0  0  0  0  0  0  0  0  0  0
    0.7133  -13.1061    1.6059 N   0  0  0  0  0  0  0  0  0  0  0  0
   -1.0922  -12.4528    0.3442 C   0  0  0  0  0  0  0  0  0  0  0  0
   -1.8485  -11.3652   -0.1532 O   0  0  0  0  0  0  0  0  0  0  0  0
   -0.7071  -13.2718   -0.6936 N   0  0  0  0  0  0  0  0  0  0  0  0
    0.9800  -14.2340    1.4643 C   0  0  0  0  0  0  0  0  0  0  0  0
    0.2218  -15.0791    1.1934 C   0  0  0  0  0  0  0  0  0  0  0  0
  3  7  1  0
  7  8  1  1
  6  9  1  0
  7 10  1  0
 10 11  1  0
 11 12  1  0
 12 13  1  0
 12 14  1  0
 14 15  2  0
 14 16  1  0
 13 17  2  3
 17 18  1  0
  1  2  2  0
  2  6  1  0
  5  6  2  0
  4  5  1  0
  3  4  2  0
  1  3  1  0
M  END

$$$$
No_4193-/export/home/yangzhenyu/potential_scad_32_flow//YTHDC2/2024-12-06-03-22-00/
     RDKit          3D

 18 18  0  0  1  0  0  0  0  0999 V2000
    1.1787   -8.0297    3.5154 C   0  0  0  0  0  0  0  0  0  0  0  0
    1.0491   -6.8434    2.9820 C   0  0  0  0  0  0  0  0  0  0  0  0
    0.0950   -8.8404    3.2292 C   0  0  0  0  0  0  0  0  0  0  0  0
   -0.9173   -8.4596    2.5152 C   0  0  0  0  0  0  0  0  0  0  0  0
   -1.0331   -7.2162    2.0653 C   0  0  0  0  0  0  0  0  0  0  0  0
   -0.0105   -6.3168    2.3081 C   0  0  0  0  0  0  0  0  0  0  0  0
    0.1150   -4.9910    1.8495 C   0  0  0  0  0  0  0  0  0  0  0  0
   -0.1376   -4.7952    0.5550 O   0  0  0  0  0  0  0  0  0  0  0  0
    0.0281   -3.8955    2.7241 O   0  0  0  0  0  0  0  0  0  0  0  0
    0.1924  -10.2903    3.6208 O   0  0  0  0  0  0  0  0  0  0  0  0
    1.2660  -10.8815    4.0357 C   0  0  0  0  0  0  0  0  0  0  0  0
    2.2979  -10.6058    4.0353 C   0  0  0  0  0  0  0  0  0  0  0  0
    0.7992  -12.3608    4.1663 C   0  0  0  0  0  0  0  0  0  0  0  0
    1.1901  -13.2421    3.2943 C   0  0  0  0  0  0  0  0  0  0  0  0
    1.7240  -12.9252    2.0522 C   0  0  2  0  0  0  0  0  0  0  0  0
    2.2642  -14.0740    1.3007 O   0  0  0  0  0  0  0  0  0  0  0  0
    0.9009  -14.6931    3.4985 C   0  0  0  0  0  0  0  0  0  0  0  0
    1.9745  -11.7481    1.5438 C   0  0  0  0  0  0  0  0  0  0  0  0
  6  7  1  0
  7  8  1  0
  7  9  2  0
  3 10  1  0
 10 11  1  0
 11 12  2  0
 11 13  1  0
 13 14  2  3
 14 15  1  0
 15 16  1  0
 14 17  1  0
 15 18  1  1
  1  2  2  0
  2  6  1  0
  5  6  2  0
  4  5  1  0
  3  4  2  0
  1  3  1  0
M  END

$$$$
No_4194-/export/home/yangzhenyu/potential_scad_32_flow//YTHDC2/2024-12-06-03-22-00/
     RDKit          3D

 20 22  0  0  0  0  0  0  0  0999 V2000
    1.1787   -8.0297    3.5154 C   0  0  0  0  0  0  0  0  0  0  0  0
    1.0491   -6.8434    2.9820 C   0  0  0  0  0  0  0  0  0  0  0  0
    0.9905   -9.0774    2.6527 C   0  0  0  0  0  0  0  0  0  0  0  0
    0.7897   -8.9519    1.3691 C   0  0  0  0  0  0  0  0  0  0  0  0
    0.7018   -7.7198    0.7892 C   0  0  0  0  0  0  0  0  0  0  0  0
    0.8918   -6.5957    1.6117 C   0  0  0  0  0  0  0  0  0  0  0  0
    1.0711  -10.4814    3.2282 C   0  0  0  0  0  0  0  0  0  0  0  0
   -0.1055  -11.1328    3.5223 C   0  0  0  0  0  0  0  0  0  0  0  0
   -0.1824  -12.4513    3.3816 C   0  0  0  0  0  0  0  0  0  0  0  0
    0.9472  -13.2655    3.1726 C   0  0  0  0  0  0  0  0  0  0  0  0
    0.8434  -14.7235    3.0065 C   0  0  0  0  0  0  0  0  0  0  0  0
    0.8887  -15.1643    1.9946 C   0  0  0  0  0  0  0  0  0  0  0  0
    0.5797  -16.4085    1.7132 C   0  0  0  0  0  0  0  0  0  0  0  0
    0.4617  -17.2890    2.8439 C   0  0  0  0  0  0  0  0  0  0  0  0
    0.4639  -16.8495    4.0784 C   0  0  0  0  0  0  0  0  0  0  0  0
    0.6589  -15.4209    4.2494 C   0  0  0  0  0  0  0  0  0  0  0  0
    2.2947  -11.2128    3.2809 C   0  0  0  0  0  0  0  0  0  0  0  0
    2.2419  -12.5426    3.0849 N   0  0  0  0  0  0  0  0  0  0  0  0
    0.8138   -5.2842    1.1076 Cl  0  0  0  0  0  0  0  0  0  0  0  0
    0.1048  -17.6568    5.4483 F   0  0  0  0  0  0  0  0  0  0  0  0
  3  7  1  0
 10 11  1  0
  6 19  1  0
 15 20  1  0
 11 12  2  0
 12 13  1  0
 13 14  2  0
 14 15  1  0
 15 16  2  0
 11 16  1  0
  1  2  2  0
  2  6  1  0
  5  6  2  0
  4  5  1  0
  3  4  2  0
  1  3  1  0
  7  8  2  0
  8  9  1  0
  9 10  2  0
 10 18  1  0
 17 18  2  0
  7 17  1  0
M  END

$$$$
No_4195-/export/home/yangzhenyu/potential_scad_32_flow//YTHDC2/2024-12-06-03-22-00/
     RDKit          3D

 18 19  0  0  1  0  0  0  0  0999 V2000
    1.1787   -8.0297    3.5154 N   0  0  0  0  0  0  0  0  0  0  0  0
    0.8669   -7.0905    2.8589 C   0  0  1  0  0  0  0  0  0  0  0  0
    0.8842   -5.8387    3.2677 C   0  0  0  0  0  0  0  0  0  0  0  0
    1.2819   -9.4050    3.1259 C   0  0  0  0  0  0  0  0  0  0  0  0
    1.6244  -10.3514    4.1878 C   0  0  0  0  0  0  0  0  0  0  0  0
    1.6237  -11.7221    3.9802 C   0  0  0  0  0  0  0  0  0  0  0  0
    1.2204  -12.1882    2.7068 C   0  0  0  0  0  0  0  0  0  0  0  0
    1.0191  -11.2853    1.7108 C   0  0  0  0  0  0  0  0  0  0  0  0
    1.0929   -9.9210    1.9465 C   0  0  0  0  0  0  0  0  0  0  0  0
    0.3789   -4.8075    2.3397 C   0  0  0  0  0  0  0  0  0  0  0  0
    0.0745   -5.1895    1.0755 C   0  0  1  0  0  0  0  0  0  0  0  0
    0.5555   -6.9643    1.4012 C   0  0  0  0  0  0  0  0  0  0  0  0
    1.2999  -13.5603    2.3875 Cl  0  0  0  0  0  0  0  0  0  0  0  0
    0.1363   -3.3268    2.7119 C   0  0  0  0  0  0  0  0  0  0  0  0
    1.2466   -2.6321    2.3870 C   0  0  0  0  0  0  0  0  0  0  0  0
    2.3974   -2.9992    1.6845 C   0  0  0  0  0  0  0  0  0  0  0  0
   -0.3519   -4.9236    0.1413 C   0  0  0  0  0  0  0  0  0  0  0  0
   -0.2748   -3.6530   -0.2462 C   0  0  0  0  0  0  0  0  0  0  0  0
  2  1  1  6
  2  3  1  0
  1  4  1  0
  3 10  2  0
 10 11  1  0
  2 12  1  0
 11 12  1  0
  7 13  1  0
 10 14  1  0
 14 15  2  3
 15 16  1  0
 11 17  1  1
 17 18  2  0
  4  5  2  0
  5  6  1  0
  6  7  2  0
  7  8  1  0
  8  9  2  0
  4  9  1  0
M  END

$$$$
No_4196-/export/home/yangzhenyu/potential_scad_32_flow//YTHDC2/2024-12-06-03-22-00/
     RDKit          3D

 19 20  0  0  0  0  0  0  0  0999 V2000
    1.1787   -8.0297    3.5154 C   0  0  0  0  0  0  0  0  0  0  0  0
    1.1048   -9.2215    3.2892 C   0  0  0  0  0  0  0  0  0  0  0  0
    1.0239   -9.7790    2.0239 C   0  0  0  0  0  0  0  0  0  0  0  0
    1.2490   -9.1017    1.1040 C   0  0  0  0  0  0  0  0  0  0  0  0
    1.5911   -7.6425    1.3539 C   0  0  0  0  0  0  0  0  0  0  0  0
    1.5783   -7.1480    2.4130 C   0  0  0  0  0  0  0  0  0  0  0  0
    1.3241   -9.5516   -0.2751 C   0  0  0  0  0  0  0  0  0  0  0  0
    0.9135   -8.9856   -1.1624 O   0  0  0  0  0  0  0  0  0  0  0  0
    1.5614  -10.8026   -0.3840 O   0  0  0  0  0  0  0  0  0  0  0  0
    0.7461  -10.3366    4.5626 Cl  0  0  0  0  0  0  0  0  0  0  0  0
    1.6197   -5.6870    2.7079 Cl  0  0  0  0  0  0  0  0  0  0  0  0
    0.8628  -11.1888    1.9481 C   0  0  0  0  0  0  0  0  0  0  0  0
    1.2414  -11.9334    1.3349 C   0  0  0  0  0  0  0  0  0  0  0  0
    1.9884  -11.7409    0.1417 C   0  0  0  0  0  0  0  0  0  0  0  0
    1.2191  -13.5045    1.5161 C   0  0  0  0  0  0  0  0  0  0  0  0
    2.2625  -14.0666    2.1322 C   0  0  0  0  0  0  0  0  0  0  0  0
    2.0951  -15.5759    2.2870 N   0  0  0  0  0  0  0  0  0  0  0  0
    1.0698  -16.0760    2.7119 C   0  0  0  0  0  0  0  0  0  0  0  0
    0.9973  -17.4673    3.0519 C   0  0  0  0  0  0  0  0  0  0  0  0
  4  7  1  0
  7  8  2  0
  7  9  1  0
  2 10  1  0
  6 11  1  0
  3 12  1  0
 12 13  2  0
  9 14  1  0
 13 14  1  0
 13 15  1  0
 15 16  1  0
 16 17  1  0
 17 18  1  0
 18 19  1  0
  1  2  2  0
  2  3  1  0
  3  4  2  0
  4  5  1  0
  5  6  2  0
  1  6  1  0
M  END

$$$$
No_4197-/export/home/yangzhenyu/potential_scad_32_flow//YTHDC2/2024-12-06-03-22-00/
     RDKit          3D

 21 22  0  0  1  0  0  0  0  0999 V2000
    1.1787   -8.0297    3.5154 C   0  0  0  0  0  0  0  0  0  0  0  0
    1.0491   -6.8434    2.9820 C   0  0  0  0  0  0  0  0  0  0  0  0
    0.9905   -9.0774    2.6527 C   0  0  0  0  0  0  0  0  0  0  0  0
    0.7897   -8.9519    1.3691 C   0  0  0  0  0  0  0  0  0  0  0  0
    0.7018   -7.7198    0.7892 C   0  0  0  0  0  0  0  0  0  0  0  0
    0.8918   -6.5957    1.6117 C   0  0  0  0  0  0  0  0  0  0  0  0
    1.0711  -10.4814    3.2282 C   0  0  1  0  0  0  0  0  0  0  0  0
   -0.1055  -11.1328    3.5223 C   0  0  0  0  0  0  0  0  0  0  0  0
   -1.2061  -10.3495    3.8837 O   0  0  0  0  0  0  0  0  0  0  0  0
   -0.1954  -12.3482    3.5922 O   0  0  0  0  0  0  0  0  0  0  0  0
    0.8471   -5.3040    1.0879 C   0  0  0  0  0  0  0  0  0  0  0  0
    2.2253  -11.1158    3.3852 C   0  0  0  0  0  0  0  0  0  0  0  0
    2.3739  -11.7890    4.6070 C   0  0  0  0  0  0  0  0  0  0  0  0
   -0.3222   -4.7691    0.6992 C   0  0  0  0  0  0  0  0  0  0  0  0
   -1.4920   -5.5148    0.8966 C   0  0  0  0  0  0  0  0  0  0  0  0
   -0.3940   -3.3983    0.4060 C   0  0  0  0  0  0  0  0  0  0  0  0
   -2.7895   -4.8508    0.6642 C   0  0  0  0  0  0  0  0  0  0  0  0
   -2.7502   -3.5412    0.1537 C   0  0  0  0  0  0  0  0  0  0  0  0
   -1.6318   -2.8364    0.0055 C   0  0  0  0  0  0  0  0  0  0  0  0
   -3.9710   -2.9290   -0.1619 N   0  0  0  0  0  0  0  0  0  0  0  0
    2.5367  -10.7811    5.7824 N   0  0  0  0  0  0  0  0  0  0  0  0
  3  7  1  0
  7  8  1  0
  8  9  2  0
  8 10  1  0
  6 11  1  0
  7 12  1  6
 12 13  1  0
 11 14  1  0
 18 20  1  0
 13 21  1  0
  1  2  2  0
  2  6  1  0
  5  6  2  0
  4  5  1  0
  3  4  2  0
  1  3  1  0
 14 15  2  0
 15 17  1  0
 17 18  2  0
 18 19  1  0
 16 19  2  0
 14 16  1  0
M  END

$$$$
No_4198-/export/home/yangzhenyu/potential_scad_32_flow//YTHDC2/2024-12-06-03-22-00/
     RDKit          3D

 18 19  0  0  0  0  0  0  0  0999 V2000
    1.1787   -8.0297    3.5154 C   0  0  0  0  0  0  0  0  0  0  0  0
    1.1048   -9.2215    3.2892 C   0  0  0  0  0  0  0  0  0  0  0  0
    1.2339   -9.7611    2.0189 C   0  0  0  0  0  0  0  0  0  0  0  0
    1.3583   -9.0036    0.9764 C   0  0  0  0  0  0  0  0  0  0  0  0
    1.5996   -7.6362    1.1311 C   0  0  0  0  0  0  0  0  0  0  0  0
    1.4830   -7.0928    2.3626 C   0  0  0  0  0  0  0  0  0  0  0  0
    1.1008  -11.2372    1.8542 C   0  0  0  0  0  0  0  0  0  0  0  0
    0.5178  -11.9759    2.3445 C   0  0  0  0  0  0  0  0  0  0  0  0
    0.4575  -13.3705    2.1281 C   0  0  0  0  0  0  0  0  0  0  0  0
    1.3993  -14.2795    2.9783 C   0  0  0  0  0  0  0  0  0  0  0  0
    1.3982  -15.5837    2.7717 C   0  0  0  0  0  0  0  0  0  0  0  0
    0.6478  -16.1498    1.8129 C   0  0  0  0  0  0  0  0  0  0  0  0
   -0.1507  -15.4364    1.0075 C   0  0  0  0  0  0  0  0  0  0  0  0
   -0.2761  -14.0581    1.2370 C   0  0  0  0  0  0  0  0  0  0  0  0
    1.5852   -5.4637    2.7021 N   0  0  0  0  0  0  0  0  0  0  0  0
    1.5395   -9.3969   -0.5444 C   0  0  0  0  0  0  0  0  0  0  0  0
    2.5599   -9.4730   -1.0561 O   0  0  0  0  0  0  0  0  0  0  0  0
    0.3843   -9.3986   -1.1284 O   0  0  0  0  0  0  0  0  0  0  0  0
  3  7  1  0
  7  8  2  3
  8  9  1  0
  6 15  1  0
  4 16  1  0
 16 17  2  0
 16 18  1  0
  1  2  2  0
  2  3  1  0
  3  4  2  0
  4  5  1  0
  5  6  2  0
  1  6  1  0
  9 10  2  0
 10 11  1  0
 11 12  2  0
 12 13  1  0
 13 14  2  0
  9 14  1  0
M  END

$$$$
No_4199-/export/home/yangzhenyu/potential_scad_32_flow//YTHDC2/2024-12-06-03-22-00/
     RDKit          3D

 19 19  0  0  0  0  0  0  0  0999 V2000
    1.1787   -8.0297    3.5154 C   0  0  0  0  0  0  0  0  0  0  0  0
    1.1048   -9.2215    3.2892 C   0  0  0  0  0  0  0  0  0  0  0  0
    1.2339   -9.7611    2.0189 C   0  0  0  0  0  0  0  0  0  0  0  0
    1.1954  -11.2312    1.8661 C   0  0  0  0  0  0  0  0  0  0  0  0
    1.5546  -12.1691    2.7931 C   0  0  0  0  0  0  0  0  0  0  0  0
    0.9527   -7.0669    2.3918 C   0  0  0  0  0  0  0  0  0  0  0  0
    1.0618   -7.6392    1.0692 C   0  0  0  0  0  0  0  0  0  0  0  0
    1.2060   -8.9530    0.8578 C   0  0  0  0  0  0  0  0  0  0  0  0
    1.3917  -12.1173    3.8028 C   0  0  0  0  0  0  0  0  0  0  0  0
    2.2436  -13.3609    2.1722 C   0  0  0  0  0  0  0  0  0  0  0  0
    0.9850   -5.6011    2.4366 C   0  0  0  0  0  0  0  0  0  0  0  0
    2.3534  -14.4913    2.9140 C   0  0  0  0  0  0  0  0  0  0  0  0
    2.6911  -15.7185    2.1033 C   0  0  0  0  0  0  0  0  0  0  0  0
    1.2681   -9.4253   -0.3371 C   0  0  0  0  0  0  0  0  0  0  0  0
    2.4510   -9.5280   -0.9131 O   0  0  0  0  0  0  0  0  0  0  0  0
    0.2349   -9.5139   -1.0734 O   0  0  0  0  0  0  0  0  0  0  0  0
    1.7324  -16.8663    2.2304 O   0  0  0  0  0  0  0  0  0  0  0  0
    1.8158   -5.0925    3.4288 C   0  0  0  0  0  0  0  0  0  0  0  0
    1.1446   -4.0837    4.0866 O   0  0  0  0  0  0  0  0  0  0  0  0
  3  4  1  0
  4  5  1  0
  5  9  2  0
  5 10  1  0
  6 11  1  0
 10 12  2  3
 12 13  1  0
  8 14  1  0
 14 15  1  0
 14 16  2  0
 13 17  1  0
 11 18  1  0
 18 19  1  0
  1  2  2  0
  2  3  1  0
  3  8  2  0
  7  8  1  0
  6  7  2  0
  1  6  1  0
M  END

$$$$
No_4200-/export/home/yangzhenyu/potential_scad_32_flow//YTHDC2/2024-12-06-03-22-00/
     RDKit          3D

 18 19  0  0  1  0  0  0  0  0999 V2000
    1.1787   -8.0297    3.5154 N   0  0  0  0  0  0  0  0  0  0  0  0
    1.0818   -9.0751    3.2053 C   0  0  0  0  0  0  0  0  0  0  0  0
    1.5216  -10.1164    3.9747 C   0  0  0  0  0  0  0  0  0  0  0  0
    1.4420  -11.4363    3.6461 C   0  0  0  0  0  0  0  0  0  0  0  0
    0.5969  -11.7648    2.6785 C   0  0  0  0  0  0  0  0  0  0  0  0
    0.0096  -10.8332    1.9506 C   0  0  0  0  0  0  0  0  0  0  0  0
    0.3359   -9.5186    2.1388 C   0  0  0  0  0  0  0  0  0  0  0  0
    0.8819   -6.9011    2.6487 C   0  0  0  0  0  0  0  0  0  0  0  0
    0.4076   -7.2265    1.4607 C   0  0  0  0  0  0  0  0  0  0  0  0
    0.0604   -8.4780    1.1746 C   0  0  0  0  0  0  0  0  0  0  0  0
    1.3141   -5.5339    3.0609 Cl  0  0  0  0  0  0  0  0  0  0  0  0
    0.3115  -13.1682    2.3900 C   0  0  0  0  0  0  0  0  0  0  0  0
    1.2348  -14.1317    2.8300 C   0  0  0  0  0  0  0  0  0  0  0  0
    2.1085  -14.7649    2.0984 C   0  0  1  0  0  0  0  0  0  0  0  0
    2.6280  -14.0045    1.1184 C   0  0  0  0  0  0  0  0  0  0  0  0
    2.6664  -16.0225    2.4205 C   0  0  0  0  0  0  0  0  0  0  0  0
    3.6697  -16.5658    1.9046 O   0  0  0  0  0  0  0  0  0  0  0  0
    1.7668  -17.0211    2.9368 C   0  0  0  0  0  0  0  0  0  0  0  0
  8 11  1  0
  5 12  1  0
 12 13  1  0
 13 14  1  0
 14 15  1  1
 14 16  1  0
 16 17  2  0
 16 18  1  0
  2  3  1  0
  3  4  2  0
  4  5  1  0
  5  6  2  0
  6  7  1  0
  1  2  2  0
  2  7  1  0
  7 10  2  0
  9 10  1  0
  8  9  2  0
  1  8  1  0
M  END

$$$$
No_4201-/export/home/yangzhenyu/potential_scad_32_flow//YTHDC2/2024-12-06-03-22-00/
     RDKit          3D

 17 17  0  0  0  0  0  0  0  0999 V2000
    1.1787   -8.0297    3.5154 C   0  0  0  0  0  0  0  0  0  0  0  0
    1.0491   -6.8434    2.9820 N   0  0  0  0  0  0  0  0  0  0  0  0
    1.0164   -9.0814    2.6596 C   0  0  0  0  0  0  0  0  0  0  0  0
    0.8420   -8.8183    1.4191 C   0  0  0  0  0  0  0  0  0  0  0  0
    0.8845   -7.3142    1.0994 C   0  0  0  0  0  0  0  0  0  0  0  0
    1.0482   -6.4272    1.8642 C   0  0  0  0  0  0  0  0  0  0  0  0
    0.9867  -10.4498    3.1378 C   0  0  0  0  0  0  0  0  0  0  0  0
    1.1510  -11.4926    2.3637 N   0  0  0  0  0  0  0  0  0  0  0  0
    1.0544   -5.0961    1.5628 Br  0  0  0  0  0  0  0  0  0  0  0  0
    1.1982  -12.7608    2.8780 C   0  0  0  0  0  0  0  0  0  0  0  0
    1.1232  -13.8835    1.9309 C   0  0  0  0  0  0  0  0  0  0  0  0
    1.5186  -15.1560    2.3913 C   0  0  0  0  0  0  0  0  0  0  0  0
    1.1307  -10.6335    4.4800 O   0  0  0  0  0  0  0  0  0  0  0  0
    2.3966  -15.8574    2.0461 O   0  0  0  0  0  0  0  0  0  0  0  0
    0.6117  -15.8141    3.2845 O   0  0  0  0  0  0  0  0  0  0  0  0
    0.7938   -9.7506    0.3156 C   0  0  0  0  0  0  0  0  0  0  0  0
   -0.3627  -10.2258   -0.0796 O   0  0  0  0  0  0  0  0  0  0  0  0
  3  7  1  0
  7  8  1  0
  6  9  1  0
  8 10  1  0
 10 11  1  0
 11 12  1  0
  7 13  2  0
 12 14  2  0
 12 15  1  0
  4 16  1  0
 16 17  2  0
  1  2  2  0
  2  6  1  0
  5  6  2  0
  4  5  1  0
  3  4  2  0
  1  3  1  0
M  END

$$$$
No_4202-/export/home/yangzhenyu/potential_scad_32_flow//YTHDC2/2024-12-06-03-22-00/
     RDKit          3D

 18 19  0  0  0  0  0  0  0  0999 V2000
    1.1787   -8.0297    3.5154 C   0  0  0  0  0  0  0  0  0  0  0  0
    1.1048   -9.2215    3.2892 C   0  0  0  0  0  0  0  0  0  0  0  0
    1.2339   -9.7611    2.0189 C   0  0  0  0  0  0  0  0  0  0  0  0
    1.3583   -9.0036    0.9764 C   0  0  0  0  0  0  0  0  0  0  0  0
    1.5996   -7.6362    1.1311 C   0  0  0  0  0  0  0  0  0  0  0  0
    1.4830   -7.0928    2.3626 C   0  0  0  0  0  0  0  0  0  0  0  0
    1.4898   -5.7274    2.6199 C   0  0  0  0  0  0  0  0  0  0  0  0
    1.1681  -11.2222    1.8390 C   0  0  0  0  0  0  0  0  0  0  0  0
    1.9047  -12.1147    2.3357 C   0  0  0  0  0  0  0  0  0  0  0  0
    1.2927  -13.3233    2.7474 C   0  0  0  0  0  0  0  0  0  0  0  0
    0.1373  -13.7104    2.4054 C   0  0  0  0  0  0  0  0  0  0  0  0
   -0.6843  -12.8083    1.7745 C   0  0  0  0  0  0  0  0  0  0  0  0
   -0.1345  -11.5407    1.3391 C   0  0  0  0  0  0  0  0  0  0  0  0
   -0.3939  -15.1513    2.6850 C   0  0  0  0  0  0  0  0  0  0  0  0
   -1.6822  -15.3404    2.6813 C   0  0  0  0  0  0  0  0  0  0  0  0
   -1.9244  -16.7477    2.9976 C   0  0  0  0  0  0  0  0  0  0  0  0
   -3.2408  -17.0030    3.1011 C   0  0  0  0  0  0  0  0  0  0  0  0
    1.2363   -4.8641    1.6210 O   0  0  0  0  0  0  0  0  0  0  0  0
  6  7  1  0
  3  8  1  0
 11 14  1  0
 14 15  2  3
 15 16  1  0
 16 17  1  0
  7 18  2  0
  1  2  2  0
  2  3  1  0
  3  4  2  0
  4  5  1  0
  5  6  2  0
  1  6  1  0
  8  9  2  0
  9 10  1  0
 10 11  2  0
 11 12  1  0
 12 13  2  0
  8 13  1  0
M  END

$$$$
No_4203-/export/home/yangzhenyu/potential_scad_32_flow//YTHDC2/2024-12-06-03-22-00/
     RDKit          3D

 18 18  0  0  1  0  0  0  0  0999 V2000
    1.1787   -8.0297    3.5154 C   0  0  0  0  0  0  0  0  0  0  0  0
    1.0491   -6.8434    2.9820 C   0  0  0  0  0  0  0  0  0  0  0  0
    1.9985   -8.9840    2.8958 C   0  0  2  0  0  0  0  0  0  0  0  0
    1.7297   -9.2108    1.6335 C   0  0  0  0  0  0  0  0  0  0  0  0
    1.7343   -8.0566    0.8408 C   0  0  2  0  0  0  0  0  0  0  0  0
    1.0269   -6.8892    1.4456 C   0  0  0  0  0  0  0  0  0  0  0  0
    2.0740   -7.9416   -0.3682 C   0  0  0  0  0  0  0  0  0  0  0  0
    3.0714   -8.7358   -0.8759 O   0  0  0  0  0  0  0  0  0  0  0  0
    1.3567   -7.7558   -1.3212 O   0  0  0  0  0  0  0  0  0  0  0  0
    1.9485  -10.3568    3.6021 C   0  0  1  0  0  0  0  0  0  0  0  0
    2.9820  -10.6672    4.2155 C   0  0  0  0  0  0  0  0  0  0  0  0
    0.7045  -10.6340    4.2693 C   0  0  0  0  0  0  0  0  0  0  0  0
   -0.2802  -11.3864    3.5246 C   0  0  0  0  0  0  0  0  0  0  0  0
    0.1296  -12.5879    2.8974 C   0  0  0  0  0  0  0  0  0  0  0  0
   -0.4937  -13.0425    1.8684 C   0  0  0  0  0  0  0  0  0  0  0  0
    0.0453  -14.1992    1.0869 C   0  0  0  0  0  0  0  0  0  0  0  0
   -0.5866  -14.5598    0.0080 C   0  0  0  0  0  0  0  0  0  0  0  0
   -1.4492  -13.7764   -0.7063 C   0  0  0  0  0  0  0  0  0  0  0  0
  1  2  1  0
  3  1  1  1
  3  4  1  0
  4  5  1  0
  2  6  1  0
  5  6  1  0
  5  7  1  6
  7  8  1  0
  7  9  2  0
  3 10  1  0
 10 11  1  1
 10 12  1  0
 12 13  1  0
 13 14  1  0
 14 15  2  3
 15 16  1  0
 16 17  2  3
 17 18  1  0
M  END

$$$$
No_4204-/export/home/yangzhenyu/potential_scad_32_flow//YTHDC2/2024-12-06-03-22-00/
     RDKit          3D

 19 20  0  0  0  0  0  0  0  0999 V2000
    1.1787   -8.0297    3.5154 C   0  0  0  0  0  0  0  0  0  0  0  0
    1.1048   -9.2215    3.2892 C   0  0  0  0  0  0  0  0  0  0  0  0
    1.3627  -10.1721    4.3044 C   0  0  0  0  0  0  0  0  0  0  0  0
    1.0682  -11.5187    4.0618 C   0  0  0  0  0  0  0  0  0  0  0  0
    0.6332  -11.9655    2.9682 C   0  0  0  0  0  0  0  0  0  0  0  0
    0.4776  -11.1308    1.9203 C   0  0  0  0  0  0  0  0  0  0  0  0
    0.7470   -9.8274    2.0368 C   0  0  0  0  0  0  0  0  0  0  0  0
    0.5535   -7.1314    2.6861 C   0  0  0  0  0  0  0  0  0  0  0  0
    0.2950   -7.6000    1.3276 C   0  0  0  0  0  0  0  0  0  0  0  0
    0.2692   -8.8631    1.0973 C   0  0  0  0  0  0  0  0  0  0  0  0
    0.4787  -13.3960    2.7088 C   0  0  0  0  0  0  0  0  0  0  0  0
    0.8701  -14.0431    1.7712 N   0  0  0  0  0  0  0  0  0  0  0  0
    0.5591  -15.2035    1.4303 C   0  0  0  0  0  0  0  0  0  0  0  0
    1.5788  -16.2275    1.4778 C   0  0  0  0  0  0  0  0  0  0  0  0
    2.8807  -15.8527    2.0395 N   0  0  0  0  0  0  0  0  0  0  0  0
    1.4671  -17.5617    1.4630 O   0  0  0  0  0  0  0  0  0  0  0  0
   -0.1231   -9.3016   -0.3346 O   0  0  0  0  0  0  0  0  0  0  0  0
    0.7560   -5.4382    2.8429 C   0  0  0  0  0  0  0  0  0  0  0  0
    1.1356   -4.7374    1.9344 C   0  0  0  0  0  0  0  0  0  0  0  0
  5 11  1  0
 11 12  1  0
 12 13  1  0
 13 14  1  0
 14 15  1  0
 14 16  2  0
 10 17  1  0
  8 18  1  0
 18 19  1  0
  2  3  1  0
  3  4  2  0
  4  5  1  0
  5  6  2  0
  6  7  1  0
  1  2  2  0
  2  7  1  0
  7 10  2  0
  9 10  1  0
  8  9  2  0
  1  8  1  0
M  END

$$$$
No_4205-/export/home/yangzhenyu/potential_scad_32_flow//YTHDC2/2024-12-06-03-22-00/
     RDKit          3D

 19 21  0  0  0  0  0  0  0  0999 V2000
    1.1787   -8.0297    3.5154 C   0  0  0  0  0  0  0  0  0  0  0  0
    1.0491   -6.8434    2.9820 C   0  0  0  0  0  0  0  0  0  0  0  0
    1.0690   -9.1150    2.7206 C   0  0  0  0  0  0  0  0  0  0  0  0
    0.9689   -6.6391    1.6260 C   0  0  0  0  0  0  0  0  0  0  0  0
    0.9670   -9.0334    1.3824 C   0  0  0  0  0  0  0  0  0  0  0  0
    0.8189   -7.7113    0.8022 C   0  0  0  0  0  0  0  0  0  0  0  0
    1.2114  -10.5217    3.2468 C   0  0  0  0  0  0  0  0  0  0  0  0
    0.2824  -11.3381    3.2295 C   0  0  0  0  0  0  0  0  0  0  0  0
    0.6999  -12.7670    3.3490 C   0  0  0  0  0  0  0  0  0  0  0  0
    2.1817  -12.8476    3.2427 C   0  0  0  0  0  0  0  0  0  0  0  0
    2.4323  -11.2757    3.2361 N   0  0  0  0  0  0  0  0  0  0  0  0
    0.8773   -5.3552    1.0390 Cl  0  0  0  0  0  0  0  0  0  0  0  0
   -1.2638  -11.0473    3.2244 C   0  0  0  0  0  0  0  0  0  0  0  0
   -1.7310  -10.2655    4.2617 C   0  0  0  0  0  0  0  0  0  0  0  0
   -3.0461   -9.9353    4.2940 C   0  0  0  0  0  0  0  0  0  0  0  0
   -3.8642  -10.4121    3.3739 C   0  0  0  0  0  0  0  0  0  0  0  0
   -3.4063  -11.2047    2.4257 C   0  0  0  0  0  0  0  0  0  0  0  0
   -2.0122  -11.5046    2.3284 C   0  0  0  0  0  0  0  0  0  0  0  0
   -5.2255  -10.1039    3.3611 Cl  0  0  0  0  0  0  0  0  0  0  0  0
  3  7  1  0
  7  8  1  0
  8  9  2  0
  9 10  1  0
  7 11  2  0
 10 11  1  0
  4 12  1  0
  8 13  1  0
 16 19  1  0
 13 14  2  0
 14 15  1  0
 15 16  2  0
 16 17  1  0
 17 18  2  0
 13 18  1  0
  1  2  2  0
  2  4  1  0
  4  6  2  0
  5  6  1  0
  3  5  2  0
  1  3  1  0
M  END

$$$$
No_4206-/export/home/yangzhenyu/potential_scad_32_flow//YTHDC2/2024-12-06-03-22-00/
     RDKit          3D

 16 17  0  0  1  0  0  0  0  0999 V2000
    1.1787   -8.0297    3.5154 C   0  0  0  0  0  0  0  0  0  0  0  0
    1.0491   -6.8434    2.9820 C   0  0  0  0  0  0  0  0  0  0  0  0
    0.9905   -9.0774    2.6527 C   0  0  1  0  0  0  0  0  0  0  0  0
    0.7897   -8.9519    1.3691 C   0  0  0  0  0  0  0  0  0  0  0  0
    0.7018   -7.7198    0.7892 C   0  0  0  0  0  0  0  0  0  0  0  0
    0.8918   -6.5957    1.6117 C   0  0  0  0  0  0  0  0  0  0  0  0
    1.0998  -10.4710    3.2437 C   0  0  1  0  0  0  0  0  0  0  0  0
    2.1917  -10.8879    3.7399 C   0  0  0  0  0  0  0  0  0  0  0  0
    0.8624   -5.2493    1.2482 O   0  0  0  0  0  0  0  0  0  0  0  0
   -0.0197  -11.2254    3.3616 C   0  0  0  0  0  0  0  0  0  0  0  0
   -0.0771  -12.5027    3.1731 N   0  0  0  0  0  0  0  0  0  0  0  0
    2.2822  -12.3142    4.0258 C   0  0  0  0  0  0  0  0  0  0  0  0
    1.2030  -13.0416    3.7350 C   0  0  0  0  0  0  0  0  0  0  0  0
    1.3077  -14.3974    3.7296 O   0  0  0  0  0  0  0  0  0  0  0  0
    0.6375   -9.9724    0.3583 N   0  0  0  0  0  0  0  0  0  0  0  0
    1.6883  -10.7713   -0.0105 O   0  0  0  0  0  0  0  0  0  0  0  0
  1  2  1  0
  3  4  1  0
  2  6  1  0
  5  6  1  0
  3  7  1  0
  7  8  1  1
  6  9  2  0
  7 10  1  0
  8 12  1  0
 11 13  1  0
 12 13  1  0
 13 14  2  0
  4 15  1  0
 15 16  2  0
 10 11  1  0
  3  1  1  6
  4  5  1  0
M  END

$$$$
No_4207-/export/home/yangzhenyu/potential_scad_32_flow//YTHDC2/2024-12-06-03-22-00/
     RDKit          3D

 18 19  0  0  1  0  0  0  0  0999 V2000
    1.1787   -8.0297    3.5154 C   0  0  0  0  0  0  0  0  0  0  0  0
    1.0491   -6.8434    2.9820 C   0  0  0  0  0  0  0  0  0  0  0  0
    0.9905   -9.0774    2.6527 C   0  0  0  0  0  0  0  0  0  0  0  0
    0.7897   -8.9519    1.3691 C   0  0  0  0  0  0  0  0  0  0  0  0
    0.7018   -7.7198    0.7892 C   0  0  0  0  0  0  0  0  0  0  0  0
    0.8918   -6.5957    1.6117 C   0  0  0  0  0  0  0  0  0  0  0  0
    1.0711  -10.4814    3.2282 C   0  0  2  0  0  0  0  0  0  0  0  0
    2.1432  -11.0138    3.5962 C   0  0  0  0  0  0  0  0  0  0  0  0
   -0.0553  -11.2345    3.2841 C   0  0  2  0  0  0  0  0  0  0  0  0
   -0.1131  -12.4857    3.1636 N   0  0  0  0  0  0  0  0  0  0  0  0
    2.1837  -12.4540    3.8406 N   0  0  0  0  0  0  0  0  0  0  0  0
    1.1537  -13.1374    3.5751 C   0  0  0  0  0  0  0  0  0  0  0  0
    1.2011  -14.4545    3.7077 O   0  0  0  0  0  0  0  0  0  0  0  0
    0.8434   -5.2931    1.0997 O   0  0  0  0  0  0  0  0  0  0  0  0
    1.1767   -4.2005    1.8811 C   0  0  0  0  0  0  0  0  0  0  0  0
   -1.4005  -10.5166    3.1776 N   0  0  0  0  0  0  0  0  0  0  0  0
    3.2962  -10.3724    3.8341 O   0  0  0  0  0  0  0  0  0  0  0  0
   -1.9202  -10.0791    4.4231 C   0  0  0  0  0  0  0  0  0  0  0  0
  7  3  1  6
  7  8  1  0
  7  9  1  0
  8 11  1  0
 10 12  1  0
 11 12  1  0
 12 13  2  0
  6 14  1  0
 14 15  1  0
  9 16  1  6
  8 17  2  0
 16 18  1  0
  9 10  1  0
  1  2  2  0
  2  6  1  0
  5  6  2  0
  4  5  1  0
  3  4  2  0
  1  3  1  0
M  END

$$$$
No_4208-/export/home/yangzhenyu/potential_scad_32_flow//YTHDC2/2024-12-06-03-22-00/
     RDKit          3D

 17 18  0  0  1  0  0  0  0  0999 V2000
    1.1787   -8.0297    3.5154 C   0  0  0  0  0  0  0  0  0  0  0  0
    1.0491   -6.8434    2.9820 C   0  0  1  0  0  0  0  0  0  0  0  0
    0.9905   -9.0774    2.6527 C   0  0  1  0  0  0  0  0  0  0  0  0
    0.7897   -8.9519    1.3691 C   0  0  0  0  0  0  0  0  0  0  0  0
    0.7018   -7.7198    0.7892 C   0  0  0  0  0  0  0  0  0  0  0  0
    1.4312   -5.5794    3.7443 C   0  0  0  0  0  0  0  0  0  0  0  0
    0.9426   -6.6664    1.5322 C   0  0  0  0  0  0  0  0  0  0  0  0
    0.9111   -5.4001    1.0251 O   0  0  0  0  0  0  0  0  0  0  0  0
    1.1071  -10.5041    3.1810 C   0  0  2  0  0  0  0  0  0  0  0  0
    0.0578  -11.1835    3.4950 C   0  0  1  0  0  0  0  0  0  0  0  0
   -1.0566  -10.4816    3.8921 N   0  0  0  0  0  0  0  0  0  0  0  0
   -0.1616  -12.3730    2.7847 C   0  0  0  0  0  0  0  0  0  0  0  0
   -1.4351  -12.7230    2.4688 C   0  0  0  0  0  0  0  0  0  0  0  0
   -2.2096  -11.3749    3.1957 C   0  0  0  0  0  0  0  0  0  0  0  0
    2.1549  -10.3540    4.3501 C   0  0  0  0  0  0  0  0  0  0  0  0
    0.8648  -13.1852    2.1178 C   0  0  0  0  0  0  0  0  0  0  0  0
    1.5018  -12.7971    0.9719 C   0  0  0  0  0  0  0  0  0  0  0  0
  1  2  1  0
  3  4  1  6
  2  6  1  6
  2  7  1  0
  5  7  1  0
  7  8  2  0
  3  9  1  0
  9 10  1  0
 10 11  1  6
 10 12  1  0
 12 13  2  0
 11 14  2  0
 13 14  1  0
  9 15  1  1
 12 16  1  0
 16 17  1  0
  1  3  1  0
  4  5  1  0
M  END

$$$$
No_4209-/export/home/yangzhenyu/potential_scad_32_flow//YTHDC2/2024-12-06-03-22-00/
     RDKit          3D

 13 13  0  0  1  0  0  0  0  0999 V2000
    1.1787   -8.0297    3.5154 C   0  0  0  0  0  0  0  0  0  0  0  0
    1.0491   -6.8434    2.9820 C   0  0  0  0  0  0  0  0  0  0  0  0
    0.9905   -9.0774    2.6527 C   0  0  1  0  0  0  0  0  0  0  0  0
    0.7897   -8.9519    1.3691 C   0  0  1  0  0  0  0  0  0  0  0  0
    0.7018   -7.7198    0.7892 C   0  0  0  0  0  0  0  0  0  0  0  0
    0.8918   -6.5957    1.6117 C   0  0  1  0  0  0  0  0  0  0  0  0
    1.0998  -10.4710    3.2437 C   0  0  0  0  0  0  0  0  0  0  0  0
    0.0472  -11.2546    3.3963 O   0  0  0  0  0  0  0  0  0  0  0  0
    2.2481  -10.9805    3.7708 N   0  0  0  0  0  0  0  0  0  0  0  0
    0.8515   -5.2715    1.1695 C   0  0  0  0  0  0  0  0  0  0  0  0
    1.3064   -5.7532    3.8069 O   0  0  0  0  0  0  0  0  0  0  0  0
    0.7283  -10.0740    0.4132 N   0  0  0  0  0  0  0  0  0  0  0  0
   -0.4246  -10.4683    0.0326 O   0  0  0  0  0  0  0  0  0  0  0  0
  1  2  1  0
  3  4  1  0
  2  6  1  0
  5  6  1  0
  3  7  1  6
  7  8  2  0
  7  9  1  0
  6 10  1  1
  2 11  2  0
  4 12  1  6
 12 13  2  0
  1  3  1  0
  4  5  1  0
M  END

$$$$
No_4210-/export/home/yangzhenyu/potential_scad_32_flow//YTHDC2/2024-12-06-03-22-00/
     RDKit          3D

 16 17  0  0  0  0  0  0  0  0999 V2000
    1.1787   -8.0297    3.5154 C   0  0  0  0  0  0  0  0  0  0  0  0
    1.1048   -9.2215    3.2892 C   0  0  0  0  0  0  0  0  0  0  0  0
    1.3627  -10.1721    4.3044 C   0  0  0  0  0  0  0  0  0  0  0  0
    1.0682  -11.5187    4.0618 C   0  0  0  0  0  0  0  0  0  0  0  0
    0.6332  -11.9655    2.9682 C   0  0  0  0  0  0  0  0  0  0  0  0
    0.4776  -11.1308    1.9203 C   0  0  0  0  0  0  0  0  0  0  0  0
    0.7470   -9.8274    2.0368 C   0  0  0  0  0  0  0  0  0  0  0  0
    1.0387   -7.0301    2.5175 O   0  0  0  0  0  0  0  0  0  0  0  0
    0.4220  -13.4291    2.8032 C   0  0  0  0  0  0  0  0  0  0  0  0
   -0.7524  -13.9320    2.4107 C   0  0  0  0  0  0  0  0  0  0  0  0
   -0.8363  -15.3618    2.3378 C   0  0  0  0  0  0  0  0  0  0  0  0
    0.2094  -16.2081    2.6172 C   0  0  0  0  0  0  0  0  0  0  0  0
    1.4448  -15.6642    2.9986 C   0  0  0  0  0  0  0  0  0  0  0  0
    1.5907  -14.2474    3.1277 C   0  0  0  0  0  0  0  0  0  0  0  0
    0.6707   -9.0388    0.9283 C   0  0  0  0  0  0  0  0  0  0  0  0
    1.9095   -8.8675    0.2611 C   0  0  0  0  0  0  0  0  0  0  0  0
  1  2  1  0
  1  8  2  0
  5  9  1  0
  7 15  1  0
 15 16  1  0
  2  3  2  0
  3  4  1  0
  4  5  2  0
  5  6  1  0
  6  7  2  0
  2  7  1  0
  9 10  2  0
 10 11  1  0
 11 12  2  0
 12 13  1  0
 13 14  2  0
  9 14  1  0
M  END

$$$$
No_4211-/export/home/yangzhenyu/potential_scad_32_flow//YTHDC2/2024-12-06-03-22-00/
     RDKit          3D

 12 12  0  0  0  0  0  0  0  0999 V2000
    1.1787   -8.0297    3.5154 C   0  0  0  0  0  0  0  0  0  0  0  0
    1.1048   -9.2215    3.2892 C   0  0  0  0  0  0  0  0  0  0  0  0
    1.3627  -10.1721    4.3044 C   0  0  0  0  0  0  0  0  0  0  0  0
    1.7354  -11.4730    3.9023 C   0  0  0  0  0  0  0  0  0  0  0  0
    1.8080  -11.8127    2.7216 C   0  0  0  0  0  0  0  0  0  0  0  0
    1.5854  -11.0021    1.7249 C   0  0  0  0  0  0  0  0  0  0  0  0
    1.3573   -9.7389    1.9287 C   0  0  0  0  0  0  0  0  0  0  0  0
    1.1102   -8.8712    0.9017 C   0  0  0  0  0  0  0  0  0  0  0  0
    0.5299   -7.6926    1.0325 O   0  0  0  0  0  0  0  0  0  0  0  0
    1.3970   -9.2634   -0.4035 N   0  0  0  0  0  0  0  0  0  0  0  0
    2.1122  -13.2004    2.3256 N   0  0  0  0  0  0  0  0  0  0  0  0
    2.0882  -13.7464    1.0676 O   0  0  0  0  0  0  0  0  0  0  0  0
  1  2  1  0
  7  8  1  0
  8  9  2  0
  8 10  1  0
  5 11  1  0
 11 12  2  0
  2  3  2  0
  3  4  1  0
  4  5  2  0
  5  6  1  0
  6  7  2  0
  2  7  1  0
M  END

$$$$
No_4212-/export/home/yangzhenyu/potential_scad_32_flow//YTHDC2/2024-12-06-03-22-00/
     RDKit          3D

 21 22  0  0  0  0  0  0  0  0999 V2000
    1.1787   -8.0297    3.5154 C   0  0  0  0  0  0  0  0  0  0  0  0
    1.1048   -9.2215    3.2892 C   0  0  0  0  0  0  0  0  0  0  0  0
    1.2339   -9.7611    2.0189 C   0  0  0  0  0  0  0  0  0  0  0  0
    1.3583   -9.0036    0.9764 C   0  0  0  0  0  0  0  0  0  0  0  0
    1.5996   -7.6362    1.1311 C   0  0  0  0  0  0  0  0  0  0  0  0
    1.4830   -7.0928    2.3626 C   0  0  0  0  0  0  0  0  0  0  0  0
    1.1008  -11.2372    1.8542 C   0  0  0  0  0  0  0  0  0  0  0  0
    0.5178  -11.9759    2.3445 O   0  0  0  0  0  0  0  0  0  0  0  0
    0.6315  -13.1550    2.3793 C   0  0  0  0  0  0  0  0  0  0  0  0
   -0.3326  -14.0771    2.0620 C   0  0  0  0  0  0  0  0  0  0  0  0
   -0.1068  -15.5033    2.1506 C   0  0  0  0  0  0  0  0  0  0  0  0
    1.2002  -15.9751    2.6255 C   0  0  0  0  0  0  0  0  0  0  0  0
    2.1955  -15.0281    2.9556 C   0  0  0  0  0  0  0  0  0  0  0  0
    1.9650  -13.6292    2.7582 C   0  0  0  0  0  0  0  0  0  0  0  0
    1.9206  -11.6118    0.7093 O   0  0  0  0  0  0  0  0  0  0  0  0
    1.5268   -5.4750    2.6820 C   0  0  0  0  0  0  0  0  0  0  0  0
    1.7706   -5.0906    3.7943 N   0  0  0  0  0  0  0  0  0  0  0  0
    1.3910   -4.7734    1.5857 O   0  0  0  0  0  0  0  0  0  0  0  0
    1.5471  -17.2857    2.7185 Cl  0  0  0  0  0  0  0  0  0  0  0  0
   -1.5877  -13.7330    1.7201 N   0  0  0  0  0  0  0  0  0  0  0  0
   -2.1900  -13.4661    0.9519 C   0  0  0  0  0  0  0  0  0  0  0  0
  3  7  1  0
  7  8  1  0
  8  9  1  0
  7 15  2  0
  6 16  1  0
 16 17  1  0
 16 18  2  0
 12 19  1  0
 10 20  1  0
 20 21  1  0
  1  2  2  0
  2  3  1  0
  3  4  2  0
  4  5  1  0
  5  6  2  0
  1  6  1  0
  9 10  2  0
 10 11  1  0
 11 12  2  0
 12 13  1  0
 13 14  2  0
  9 14  1  0
M  END

$$$$
No_4213-/export/home/yangzhenyu/potential_scad_32_flow//YTHDC2/2024-12-06-03-22-00/
     RDKit          3D

 19 20  0  0  0  0  0  0  0  0999 V2000
    1.1787   -8.0297    3.5154 C   0  0  0  0  0  0  0  0  0  0  0  0
    1.1048   -9.2215    3.2892 C   0  0  0  0  0  0  0  0  0  0  0  0
    1.2339   -9.7611    2.0189 C   0  0  0  0  0  0  0  0  0  0  0  0
    1.3583   -9.0036    0.9764 C   0  0  0  0  0  0  0  0  0  0  0  0
    1.5996   -7.6362    1.1311 C   0  0  0  0  0  0  0  0  0  0  0  0
    1.4830   -7.0928    2.3626 C   0  0  0  0  0  0  0  0  0  0  0  0
    1.1008  -11.2372    1.8542 C   0  0  0  0  0  0  0  0  0  0  0  0
    1.9749  -12.0938    2.2342 C   0  0  0  0  0  0  0  0  0  0  0  0
    1.5180  -13.3509    2.5910 C   0  0  0  0  0  0  0  0  0  0  0  0
    0.4120  -13.9272    2.2191 C   0  0  0  0  0  0  0  0  0  0  0  0
   -0.5860  -13.0563    1.8308 C   0  0  0  0  0  0  0  0  0  0  0  0
   -0.2264  -11.7453    1.4928 C   0  0  0  0  0  0  0  0  0  0  0  0
    1.6029   -5.4505    2.6854 Cl  0  0  0  0  0  0  0  0  0  0  0  0
    0.0975  -15.2159    2.5385 N   0  0  0  0  0  0  0  0  0  0  0  0
    0.9715  -16.0432    3.1944 C   0  0  0  0  0  0  0  0  0  0  0  0
    2.2158  -16.2139    2.8379 C   0  0  0  0  0  0  0  0  0  0  0  0
    2.9910  -17.3364    3.0482 C   0  0  0  0  0  0  0  0  0  0  0  0
    2.4790  -18.2606    3.8400 C   0  0  0  0  0  0  0  0  0  0  0  0
    1.3384  -18.1805    4.3954 C   0  0  0  0  0  0  0  0  0  0  0  0
  3  7  1  0
  6 13  1  0
 10 14  1  0
 14 15  1  0
 15 16  1  0
 16 17  2  3
 17 18  1  0
 18 19  2  0
  1  2  2  0
  2  3  1  0
  3  4  2  0
  4  5  1  0
  5  6  2  0
  1  6  1  0
  7  8  2  0
  8  9  1  0
  9 10  2  0
 10 11  1  0
 11 12  2  0
  7 12  1  0
M  END

$$$$
No_4214-/export/home/yangzhenyu/potential_scad_32_flow//YTHDC2/2024-12-06-03-22-00/
     RDKit          3D

 18 18  0  0  0  0  0  0  0  0999 V2000
    1.1787   -8.0297    3.5154 C   0  0  0  0  0  0  0  0  0  0  0  0
    1.1048   -9.2215    3.2892 C   0  0  0  0  0  0  0  0  0  0  0  0
    1.2339   -9.7611    2.0189 C   0  0  0  0  0  0  0  0  0  0  0  0
    1.3583   -9.0036    0.9764 C   0  0  0  0  0  0  0  0  0  0  0  0
    1.7077   -9.6100   -0.3010 C   0  0  0  0  0  0  0  0  0  0  0  0
    1.3637   -7.1087    2.3226 C   0  0  0  0  0  0  0  0  0  0  0  0
    1.4257   -7.6645    1.0231 C   0  0  0  0  0  0  0  0  0  0  0  0
    1.6722  -10.7840   -0.4044 O   0  0  0  0  0  0  0  0  0  0  0  0
    1.2337   -8.9275   -1.4153 O   0  0  0  0  0  0  0  0  0  0  0  0
    1.1479  -10.1808    4.3865 Cl  0  0  0  0  0  0  0  0  0  0  0  0
    1.3164   -5.3653    2.6018 Cl  0  0  0  0  0  0  0  0  0  0  0  0
    1.2479  -11.1366    1.9066 C   0  0  0  0  0  0  0  0  0  0  0  0
    1.0521  -12.0745    2.3453 C   0  0  0  0  0  0  0  0  0  0  0  0
    0.9225  -13.6516    2.2547 C   0  0  0  0  0  0  0  0  0  0  0  0
   -0.2385  -14.1324    2.1861 C   0  0  0  0  0  0  0  0  0  0  0  0
   -0.4020  -15.4554    2.6156 C   0  0  0  0  0  0  0  0  0  0  0  0
    0.6406  -16.2336    3.0079 C   0  0  0  0  0  0  0  0  0  0  0  0
    1.9959  -15.5694    3.1149 C   0  0  0  0  0  0  0  0  0  0  0  0
  4  5  1  0
  5  8  2  0
  5  9  1  0
  2 10  1  0
  6 11  1  0
  3 12  1  0
 12 13  3  0
 13 14  1  0
 14 15  1  0
 15 16  2  3
 16 17  1  0
 17 18  2  0
  1  2  2  0
  2  3  1  0
  3  4  2  0
  4  7  1  0
  6  7  2  0
  1  6  1  0
M  END

$$$$
No_4215-/export/home/yangzhenyu/potential_scad_32_flow//YTHDC2/2024-12-06-03-22-00/
     RDKit          3D

 15 16  0  0  0  0  0  0  0  0999 V2000
    1.1787   -8.0297    3.5154 C   0  0  0  0  0  0  0  0  0  0  0  0
    1.0491   -6.8434    2.9820 C   0  0  0  0  0  0  0  0  0  0  0  0
    0.0950   -8.8404    3.2292 C   0  0  0  0  0  0  0  0  0  0  0  0
    0.0602  -10.1764    3.8231 C   0  0  0  0  0  0  0  0  0  0  0  0
    0.2248   -6.3830    2.0648 C   0  0  0  0  0  0  0  0  0  0  0  0
   -0.6745   -7.2322    1.6857 C   0  0  0  0  0  0  0  0  0  0  0  0
   -0.7374   -8.4992    2.1291 C   0  0  0  0  0  0  0  0  0  0  0  0
   -0.1792  -11.3045    3.0702 C   0  0  0  0  0  0  0  0  0  0  0  0
    0.7134  -11.5027    2.2140 C   0  0  0  0  0  0  0  0  0  0  0  0
    1.0787  -12.7133    2.0795 C   0  0  0  0  0  0  0  0  0  0  0  0
    0.4180  -13.8912    2.4232 C   0  0  0  0  0  0  0  0  0  0  0  0
   -0.5410  -13.6557    3.5268 C   0  0  0  0  0  0  0  0  0  0  0  0
   -0.8381  -12.3752    3.8179 C   0  0  0  0  0  0  0  0  0  0  0  0
    0.4430   -4.9591    1.4399 Cl  0  0  0  0  0  0  0  0  0  0  0  0
    0.8369  -15.2475    2.1934 C   0  0  0  0  0  0  0  0  0  0  0  0
  3  4  1  0
  4  8  1  0
  5 14  1  0
 11 15  1  0
  8  9  2  0
  9 10  1  0
 10 11  2  0
 11 12  1  0
 12 13  2  0
  8 13  1  0
  1  2  2  0
  2  5  1  0
  5  6  2  0
  6  7  1  0
  3  7  2  0
  1  3  1  0
M  END

$$$$
No_4216-/export/home/yangzhenyu/potential_scad_32_flow//YTHDC2/2024-12-06-03-22-00/
     RDKit          3D

 18 19  0  0  1  0  0  0  0  0999 V2000
    1.1787   -8.0297    3.5154 C   0  0  0  0  0  0  0  0  0  0  0  0
    1.1048   -9.2215    3.2892 C   0  0  0  0  0  0  0  0  0  0  0  0
    1.2339   -9.7611    2.0189 C   0  0  1  0  0  0  0  0  0  0  0  0
    1.1954  -11.2312    1.8661 C   0  0  0  0  0  0  0  0  0  0  0  0
    1.5546  -12.1691    2.7931 C   0  0  0  0  0  0  0  0  0  0  0  0
    0.5849   -7.0929    2.5729 C   0  0  2  0  0  0  0  0  0  0  0  0
    0.5567   -7.6699    1.1955 C   0  0  0  0  0  0  0  0  0  0  0  0
    0.7903   -8.9699    0.9209 C   0  0  0  0  0  0  0  0  0  0  0  0
    1.5521  -13.4960    2.3485 C   0  0  0  0  0  0  0  0  0  0  0  0
    1.2403  -13.8919    1.1557 C   0  0  0  0  0  0  0  0  0  0  0  0
    1.0311  -12.9707    0.1488 C   0  0  0  0  0  0  0  0  0  0  0  0
    0.9678  -11.6394    0.4949 C   0  0  0  0  0  0  0  0  0  0  0  0
    0.6075   -5.5221    2.6486 C   0  0  0  0  0  0  0  0  0  0  0  0
    0.3323   -6.8583    0.1749 O   0  0  0  0  0  0  0  0  0  0  0  0
   -0.6082   -4.9840    2.5593 C   0  0  0  0  0  0  0  0  0  0  0  0
   -0.6347   -3.5320    2.4599 C   0  0  0  0  0  0  0  0  0  0  0  0
    0.5817   -2.8795    2.6791 C   0  0  0  0  0  0  0  0  0  0  0  0
    1.7791   -3.5103    2.9578 C   0  0  0  0  0  0  0  0  0  0  0  0
  1  2  1  0
  3  4  1  1
  6  7  1  0
  3  8  1  0
  7  8  1  0
  6 13  1  6
  7 14  2  0
 13 15  1  0
 15 16  2  3
 16 17  1  0
 17 18  2  0
  1  6  1  0
  2  3  1  0
  4  5  2  0
  5  9  1  0
  9 10  2  0
 10 11  1  0
 11 12  2  0
  4 12  1  0
M  END

$$$$
No_4217-/export/home/yangzhenyu/potential_scad_32_flow//YTHDC2/2024-12-06-03-22-00/
     RDKit          3D

 19 19  0  0  1  0  0  0  0  0999 V2000
    1.1787   -8.0297    3.5154 C   0  0  0  0  0  0  0  0  0  0  0  0
    1.0491   -6.8434    2.9820 C   0  0  0  0  0  0  0  0  0  0  0  0
    0.0950   -8.8404    3.2292 C   0  0  0  0  0  0  0  0  0  0  0  0
   -0.9173   -8.4596    2.5152 C   0  0  0  0  0  0  0  0  0  0  0  0
   -1.0331   -7.2162    2.0653 C   0  0  0  0  0  0  0  0  0  0  0  0
   -0.0105   -6.3168    2.3081 C   0  0  0  0  0  0  0  0  0  0  0  0
    0.1150   -4.9910    1.8495 C   0  0  0  0  0  0  0  0  0  0  0  0
   -0.1376   -4.7952    0.5550 O   0  0  0  0  0  0  0  0  0  0  0  0
    0.8151   -4.0351    2.5205 O   0  0  0  0  0  0  0  0  0  0  0  0
    0.1918  -10.4836    3.7239 S   0  0  0  0  0  0  0  0  0  0  0  0
    0.4832  -11.4268    2.5279 N   0  0  0  0  0  0  0  0  0  0  0  0
    0.8361  -11.0977    1.5738 C   0  0  1  0  0  0  0  0  0  0  0  0
    2.2336  -10.7531    1.3052 C   0  0  0  0  0  0  0  0  0  0  0  0
    2.5470   -9.9309    0.2918 O   0  0  0  0  0  0  0  0  0  0  0  0
   -1.0968  -10.8183    4.4343 O   0  0  0  0  0  0  0  0  0  0  0  0
    1.4051  -10.6637    4.7433 O   0  0  0  0  0  0  0  0  0  0  0  0
    3.1745  -11.0889    2.0249 O   0  0  0  0  0  0  0  0  0  0  0  0
    0.4842  -12.0267    0.2728 C   0  0  0  0  0  0  0  0  0  0  0  0
    0.1408  -13.3140    0.6927 C   0  0  0  0  0  0  0  0  0  0  0  0
  6  7  1  0
  7  8  1  0
  7  9  2  0
  3 10  1  0
 10 11  1  0
 11 12  1  0
 12 13  1  0
 13 14  2  0
 10 15  2  0
 10 16  2  0
 13 17  1  0
 12 18  1  6
 18 19  1  0
  1  2  2  0
  2  6  1  0
  5  6  2  0
  4  5  1  0
  3  4  2  0
  1  3  1  0
M  END

$$$$
No_4218-/export/home/yangzhenyu/potential_scad_32_flow//YTHDC2/2024-12-06-03-22-00/
     RDKit          3D

 18 17  0  0  1  0  0  0  0  0999 V2000
    1.1787   -8.0297    3.5154 C   0  0  0  0  0  0  0  0  0  0  0  0
    1.1048   -9.2215    3.2892 C   0  0  0  0  0  0  0  0  0  0  0  0
    1.2339   -9.7611    2.0189 C   0  0  0  0  0  0  0  0  0  0  0  0
    1.1954  -11.2312    1.8661 C   0  0  0  0  0  0  0  0  0  0  0  0
    1.5546  -12.1691    2.7931 C   0  0  0  0  0  0  0  0  0  0  0  0
    1.9366   -7.1955    3.3930 O   0  0  0  0  0  0  0  0  0  0  0  0
    1.4082  -13.4932    2.4761 C   0  0  0  0  0  0  0  0  0  0  0  0
    0.8224  -13.9340    1.3915 C   0  0  0  0  0  0  0  0  0  0  0  0
    0.7533  -15.3760    1.1840 C   0  0  0  0  0  0  0  0  0  0  0  0
    1.6476  -16.2023    1.7944 C   0  0  1  0  0  0  0  0  0  0  0  0
    2.7782  -15.6201    2.4377 C   0  0  0  0  0  0  0  0  0  0  0  0
    1.4427  -17.5394    1.8789 C   0  0  0  0  0  0  0  0  0  0  0  0
    0.8036  -11.6174    0.6141 O   0  0  0  0  0  0  0  0  0  0  0  0
   -0.1738   -7.5338    3.5173 N   0  0  0  0  0  0  0  0  0  0  0  0
    0.6163  -18.1712    1.4515 O   0  0  0  0  0  0  0  0  0  0  0  0
    2.4769  -18.3540    2.7631 C   0  0  0  0  0  0  0  0  0  0  0  0
    1.0246   -8.9338    0.8228 C   0  0  0  0  0  0  0  0  0  0  0  0
    2.1973   -8.6238    0.0847 C   0  0  0  0  0  0  0  0  0  0  0  0
  1  2  1  0
  2  3  2  3
  3  4  1  0
  4  5  1  0
  1  6  2  0
  5  7  2  3
  7  8  1  0
  8  9  1  0
  9 10  1  0
 10 11  1  1
 10 12  1  0
  4 13  2  0
  1 14  1  0
 12 15  2  0
 12 16  1  0
  3 17  1  0
 17 18  1  0
M  END

$$$$
No_4219-/export/home/yangzhenyu/potential_scad_32_flow//YTHDC2/2024-12-06-03-22-00/
     RDKit          3D

 18 19  0  0  0  0  0  0  0  0999 V2000
    1.1787   -8.0297    3.5154 C   0  0  0  0  0  0  0  0  0  0  0  0
    1.0491   -6.8434    2.9820 C   0  0  0  0  0  0  0  0  0  0  0  0
    0.9905   -9.0774    2.6527 C   0  0  0  0  0  0  0  0  0  0  0  0
    1.1655  -10.4663    3.1286 C   0  0  0  0  0  0  0  0  0  0  0  0
    1.2197  -11.4898    2.5831 C   0  0  0  0  0  0  0  0  0  0  0  0
    1.0589  -11.4458    1.1293 C   0  0  0  0  0  0  0  0  0  0  0  0
    0.9638  -10.3069    0.4651 C   0  0  0  0  0  0  0  0  0  0  0  0
    0.9191   -9.0789    1.1942 C   0  0  0  0  0  0  0  0  0  0  0  0
    0.9103   -7.8220    0.6974 C   0  0  0  0  0  0  0  0  0  0  0  0
    1.0140   -6.6889    1.5108 C   0  0  0  0  0  0  0  0  0  0  0  0
    0.7979   -7.6553   -0.4974 O   0  0  0  0  0  0  0  0  0  0  0  0
    1.3503  -13.0221    3.2493 C   0  0  0  0  0  0  0  0  0  0  0  0
    0.1921  -13.8202    3.0510 O   0  0  0  0  0  0  0  0  0  0  0  0
    0.6568  -15.1570    3.1116 C   0  0  0  0  0  0  0  0  0  0  0  0
   -0.2610  -16.0324    3.3371 C   0  0  0  0  0  0  0  0  0  0  0  0
   -1.3989  -15.8848    2.8583 C   0  0  0  0  0  0  0  0  0  0  0  0
   -2.4675  -16.6118    3.4109 C   0  0  0  0  0  0  0  0  0  0  0  0
   -2.2658  -17.6505    4.1957 C   0  0  0  0  0  0  0  0  0  0  0  0
  1  2  1  0
  8  9  1  0
  9 10  1  0
  9 11  2  0
  5 12  1  0
 12 13  1  0
 13 14  1  0
 14 15  1  0
 15 16  1  0
 16 17  2  3
 17 18  1  0
  1  3  1  0
  2 10  1  0
  3  4  2  0
  4  5  1  0
  5  6  2  0
  6  7  1  0
  7  8  2  0
  3  8  1  0
M  END

$$$$
No_4220-/export/home/yangzhenyu/potential_scad_32_flow//YTHDC2/2024-12-06-03-22-00/
     RDKit          3D

 18 19  0  0  0  0  0  0  0  0999 V2000
    1.1787   -8.0297    3.5154 F   0  0  0  0  0  0  0  0  0  0  0  0
    0.9085   -8.9213    2.9287 C   0  0  0  0  0  0  0  0  0  0  0  0
    1.3284  -10.0674    3.4978 C   0  0  0  0  0  0  0  0  0  0  0  0
    1.1423  -11.3164    2.7763 C   0  0  0  0  0  0  0  0  0  0  0  0
    0.7524  -11.2218    1.5110 C   0  0  0  0  0  0  0  0  0  0  0  0
    0.3984  -10.1517    0.9083 C   0  0  0  0  0  0  0  0  0  0  0  0
    0.4799   -8.9022    1.6379 C   0  0  0  0  0  0  0  0  0  0  0  0
   -0.2847   -7.8360    1.1457 C   0  0  0  0  0  0  0  0  0  0  0  0
   -1.5590   -7.8706    1.0290 C   0  0  0  0  0  0  0  0  0  0  0  0
   -2.3918   -8.2368    1.8342 N   0  0  0  0  0  0  0  0  0  0  0  0
   -2.9511   -9.3199    1.8734 C   0  0  0  0  0  0  0  0  0  0  0  0
   -3.1849   -9.8734    0.6843 C   0  0  0  0  0  0  0  0  0  0  0  0
   -2.6247   -9.2465   -0.4834 C   0  0  0  0  0  0  0  0  0  0  0  0
   -1.6979   -8.2486   -0.2972 C   0  0  0  0  0  0  0  0  0  0  0  0
    1.4461  -12.5645    3.3746 C   0  0  0  0  0  0  0  0  0  0  0  0
    0.3568  -13.6006    3.0702 C   0  0  0  0  0  0  0  0  0  0  0  0
    0.9233  -14.8931    3.0421 C   0  0  0  0  0  0  0  0  0  0  0  0
    0.1851  -15.9871    3.0656 C   0  0  0  0  0  0  0  0  0  0  0  0
  1  2  1  0
  7  8  1  0
  8  9  1  0
  4 15  1  0
 15 16  1  0
 16 17  1  0
 17 18  2  0
  2  3  2  0
  3  4  1  0
  4  5  2  0
  5  6  1  0
  6  7  2  0
  2  7  1  0
  9 10  2  0
 10 11  1  0
 11 12  2  0
 12 13  1  0
 13 14  2  0
  9 14  1  0
M  END

$$$$
No_4221-/export/home/yangzhenyu/potential_scad_32_flow//YTHDC2/2024-12-06-03-22-00/
     RDKit          3D

 20 20  0  0  0  0  0  0  0  0999 V2000
    1.1787   -8.0297    3.5154 C   0  0  0  0  0  0  0  0  0  0  0  0
    1.1048   -9.2215    3.2892 C   0  0  0  0  0  0  0  0  0  0  0  0
    1.3627  -10.1721    4.3044 C   0  0  0  0  0  0  0  0  0  0  0  0
    1.7354  -11.4730    3.9023 C   0  0  0  0  0  0  0  0  0  0  0  0
    1.8080  -11.8127    2.7216 Cl  0  0  0  0  0  0  0  0  0  0  0  0
    1.0288   -7.1512    2.3639 C   0  0  0  0  0  0  0  0  0  0  0  0
    1.0231   -7.5785    1.1215 C   0  0  0  0  0  0  0  0  0  0  0  0
    1.1322   -8.8521    0.8441 C   0  0  0  0  0  0  0  0  0  0  0  0
    1.1685   -9.7711    1.8886 C   0  0  0  0  0  0  0  0  0  0  0  0
    1.1241   -9.3422   -0.4606 C   0  0  0  0  0  0  0  0  0  0  0  0
    0.5467  -10.5203   -0.5719 O   0  0  0  0  0  0  0  0  0  0  0  0
    1.1937   -8.7210   -1.5057 O   0  0  0  0  0  0  0  0  0  0  0  0
    1.1000   -5.6294    2.6481 C   0  0  0  0  0  0  0  0  0  0  0  0
    0.7874   -4.8046    1.6548 C   0  0  0  0  0  0  0  0  0  0  0  0
    0.3420   -3.4823    1.9365 O   0  0  0  0  0  0  0  0  0  0  0  0
    0.9828   -2.7795    2.9844 C   0  0  0  0  0  0  0  0  0  0  0  0
    2.0661   -2.1509    2.7957 Cl  0  0  0  0  0  0  0  0  0  0  0  0
    0.3134   -2.8690    4.2787 C   0  0  0  0  0  0  0  0  0  0  0  0
   -0.7030   -1.9083    4.4432 C   0  0  0  0  0  0  0  0  0  0  0  0
   -1.6665   -2.7664    4.6216 C   0  0  0  0  0  0  0  0  0  0  0  0
  2  3  1  0
  3  4  2  3
  4  5  1  0
  8 10  1  0
 10 11  2  0
 10 12  1  0
  6 13  1  0
 13 14  1  0
 14 15  1  0
 15 16  1  0
 16 17  1  0
 16 18  1  0
 18 19  1  0
 19 20  1  0
  1  2  2  0
  2  9  1  0
  8  9  2  0
  7  8  1  0
  6  7  2  0
  1  6  1  0
M  END

$$$$
No_4222-/export/home/yangzhenyu/potential_scad_32_flow//YTHDC2/2024-12-06-03-22-00/
     RDKit          3D

 20 21  0  0  1  0  0  0  0  0999 V2000
    1.1787   -8.0297    3.5154 C   0  0  0  0  0  0  0  0  0  0  0  0
    1.0491   -6.8434    2.9820 C   0  0  0  0  0  0  0  0  0  0  0  0
    0.0950   -8.8404    3.2292 C   0  0  0  0  0  0  0  0  0  0  0  0
   -0.9173   -8.4596    2.5152 C   0  0  0  0  0  0  0  0  0  0  0  0
   -1.0331   -7.2162    2.0653 C   0  0  0  0  0  0  0  0  0  0  0  0
   -0.0105   -6.3168    2.3081 C   0  0  0  0  0  0  0  0  0  0  0  0
    0.1465  -10.2446    3.6981 C   0  0  1  0  0  0  0  0  0  0  0  0
    1.2433  -10.8239    4.0166 C   0  0  0  0  0  0  0  0  0  0  0  0
    2.3358  -10.5952    4.0338 C   0  0  0  0  0  0  0  0  0  0  0  0
   -1.1504  -10.8607    3.9288 C   0  0  0  0  0  0  0  0  0  0  0  0
   -0.0702   -5.0108    1.8450 C   0  0  0  0  0  0  0  0  0  0  0  0
   -0.7675   -4.1736    2.3022 C   0  0  0  0  0  0  0  0  0  0  0  0
   -1.8236   -4.1948    2.7085 C   0  0  0  0  0  0  0  0  0  0  0  0
   -0.1026   -2.7663    2.4225 C   0  0  0  0  0  0  0  0  0  0  0  0
    3.4260  -11.3729    4.7174 F   0  0  0  0  0  0  0  0  0  0  0  0
   -2.6216   -3.2799    3.4633 C   0  0  0  0  0  0  0  0  0  0  0  0
   -0.7547   -1.7917    3.1836 C   0  0  0  0  0  0  0  0  0  0  0  0
   -1.9825   -2.0407    3.6298 C   0  0  0  0  0  0  0  0  0  0  0  0
    0.6622   -4.7614    0.7079 O   0  0  0  0  0  0  0  0  0  0  0  0
   -2.1620  -10.3780    4.6742 C   0  0  0  0  0  0  0  0  0  0  0  0
  3  7  1  0
  7  8  1  0
  8  9  2  3
  7 10  1  1
  6 11  1  0
 11 12  1  0
  9 15  1  0
 11 19  2  0
 10 20  1  0
  1  2  2  0
  2  6  1  0
  5  6  2  0
  4  5  1  0
  3  4  2  0
  1  3  1  0
 12 13  2  0
 13 16  1  0
 16 18  2  0
 17 18  1  0
 14 17  2  0
 12 14  1  0
M  END

$$$$
No_4223-/export/home/yangzhenyu/potential_scad_32_flow//YTHDC2/2024-12-06-03-22-00/
     RDKit          3D

 18 19  0  0  0  0  0  0  0  0999 V2000
    1.1787   -8.0297    3.5154 C   0  0  0  0  0  0  0  0  0  0  0  0
    1.1048   -9.2215    3.2892 C   0  0  0  0  0  0  0  0  0  0  0  0
    1.3627  -10.1721    4.3044 C   0  0  0  0  0  0  0  0  0  0  0  0
    1.0682  -11.5187    4.0618 C   0  0  0  0  0  0  0  0  0  0  0  0
    0.6332  -11.9655    2.9682 C   0  0  0  0  0  0  0  0  0  0  0  0
    0.4776  -11.1308    1.9203 C   0  0  0  0  0  0  0  0  0  0  0  0
    0.7470   -9.8274    2.0368 C   0  0  0  0  0  0  0  0  0  0  0  0
    0.5536   -7.1314    2.6861 C   0  0  0  0  0  0  0  0  0  0  0  0
    0.2950   -7.6000    1.3275 C   0  0  0  0  0  0  0  0  0  0  0  0
    0.2693   -8.8631    1.0973 C   0  0  0  0  0  0  0  0  0  0  0  0
   -0.0513   -6.7125    0.4242 C   0  0  0  0  0  0  0  0  0  0  0  0
   -0.2266   -5.3889    0.7493 C   0  0  0  0  0  0  0  0  0  0  0  0
    0.4853  -13.3942    2.7259 C   0  0  0  0  0  0  0  0  0  0  0  0
    1.4395  -14.3052    3.1095 C   0  0  0  0  0  0  0  0  0  0  0  0
    1.5301  -15.5467    2.5229 C   0  0  0  0  0  0  0  0  0  0  0  0
    2.5815  -15.7933    1.8341 C   0  0  0  0  0  0  0  0  0  0  0  0
    3.5154  -14.8744    1.6197 C   0  0  0  0  0  0  0  0  0  0  0  0
   -0.9520   -4.3590   -0.0259 C   0  0  0  0  0  0  0  0  0  0  0  0
  9 11  1  0
 11 12  2  3
  5 13  1  0
 13 14  1  0
 14 15  1  0
 15 16  1  0
 16 17  1  0
 12 18  1  0
  2  3  1  0
  3  4  2  0
  4  5  1  0
  5  6  2  0
  6  7  1  0
  1  2  2  0
  2  7  1  0
  7 10  2  0
  9 10  1  0
  8  9  2  0
  1  8  1  0
M  END

$$$$
No_4224-/export/home/yangzhenyu/potential_scad_32_flow//YTHDC2/2024-12-06-03-22-00/
     RDKit          3D

 18 18  0  0  1  0  0  0  0  0999 V2000
    1.1787   -8.0297    3.5154 C   0  0  0  0  0  0  0  0  0  0  0  0
    1.0491   -6.8434    2.9820 C   0  0  0  0  0  0  0  0  0  0  0  0
    0.0950   -8.8404    3.2292 C   0  0  0  0  0  0  0  0  0  0  0  0
   -0.9173   -8.4596    2.5152 C   0  0  0  0  0  0  0  0  0  0  0  0
   -1.0331   -7.2162    2.0653 C   0  0  0  0  0  0  0  0  0  0  0  0
   -0.0105   -6.3168    2.3081 C   0  0  0  0  0  0  0  0  0  0  0  0
    0.0485   -4.9783    1.8782 C   0  0  2  0  0  0  0  0  0  0  0  0
   -0.6974   -4.6139    0.8644 C   0  0  0  0  0  0  0  0  0  0  0  0
   -0.9552   -3.3006    0.6322 Cl  0  0  0  0  0  0  0  0  0  0  0  0
   -1.4681   -5.4677    0.1266 O   0  0  0  0  0  0  0  0  0  0  0  0
    0.2319  -10.2704    3.7143 F   0  0  0  0  0  0  0  0  0  0  0  0
    0.9875   -4.1755    2.3378 C   0  0  0  0  0  0  0  0  0  0  0  0
    0.9452   -3.7195    3.6618 C   0  0  0  0  0  0  0  0  0  0  0  0
    0.0383   -2.8513    4.0267 C   0  0  2  0  0  0  0  0  0  0  0  0
    0.4970   -1.5408    4.3976 C   0  0  0  0  0  0  0  0  0  0  0  0
    0.8171   -1.4875    5.5655 C   0  0  0  0  0  0  0  0  0  0  0  0
   -1.3196   -3.1501    4.1974 C   0  0  0  0  0  0  0  0  0  0  0  0
    0.5192   -0.5838    3.4660 C   0  0  0  0  0  0  0  0  0  0  0  0
  6  7  1  0
  7  8  1  0
  8  9  1  0
  8 10  2  0
  3 11  1  0
  7 12  1  6
 12 13  1  0
 13 14  1  0
 14 15  1  0
 15 16  1  0
 14 17  1  1
 15 18  1  0
  1  2  2  0
  2  6  1  0
  5  6  2  0
  4  5  1  0
  3  4  2  0
  1  3  1  0
M  END

$$$$
No_4225-/export/home/yangzhenyu/potential_scad_32_flow//YTHDC2/2024-12-06-03-22-00/
     RDKit          3D

 14 15  0  0  0  0  0  0  0  0999 V2000
    1.1787   -8.0297    3.5154 C   0  0  0  0  0  0  0  0  0  0  0  0
    1.1048   -9.2215    3.2892 C   0  0  0  0  0  0  0  0  0  0  0  0
    1.2339   -9.7611    2.0189 C   0  0  0  0  0  0  0  0  0  0  0  0
    1.3583   -9.0036    0.9764 C   0  0  0  0  0  0  0  0  0  0  0  0
    1.5996   -7.6362    1.1311 C   0  0  0  0  0  0  0  0  0  0  0  0
    1.4830   -7.0928    2.3626 C   0  0  0  0  0  0  0  0  0  0  0  0
    1.4898   -5.7274    2.6199 N   0  0  0  0  0  0  0  0  0  0  0  0
    1.1600  -11.2248    1.8597 C   0  0  0  0  0  0  0  0  0  0  0  0
    0.8052  -11.6120    0.6017 C   0  0  0  0  0  0  0  0  0  0  0  0
    0.6923  -13.0351    0.4854 C   0  0  0  0  0  0  0  0  0  0  0  0
    0.9804  -13.8983    1.4850 C   0  0  0  0  0  0  0  0  0  0  0  0
    1.4574  -13.3992    2.7074 C   0  0  0  0  0  0  0  0  0  0  0  0
    1.5332  -12.0367    2.9253 C   0  0  0  0  0  0  0  0  0  0  0  0
    1.1365   -4.9012    1.6912 O   0  0  0  0  0  0  0  0  0  0  0  0
  6  7  1  0
  3  8  1  0
  7 14  2  0
  1  2  2  0
  2  3  1  0
  3  4  2  0
  4  5  1  0
  5  6  2  0
  1  6  1  0
  8  9  2  0
  9 10  1  0
 10 11  2  0
 11 12  1  0
 12 13  2  0
  8 13  1  0
M  END

$$$$
No_4226-/export/home/yangzhenyu/potential_scad_32_flow//YTHDC2/2024-12-06-03-22-00/
     RDKit          3D

 19 20  0  0  0  0  0  0  0  0999 V2000
    1.1787   -8.0297    3.5154 C   0  0  0  0  0  0  0  0  0  0  0  0
    1.0491   -6.8434    2.9820 C   0  0  0  0  0  0  0  0  0  0  0  0
    0.9905   -9.0774    2.6527 C   0  0  0  0  0  0  0  0  0  0  0  0
    0.7897   -8.9519    1.3691 C   0  0  0  0  0  0  0  0  0  0  0  0
    0.7018   -7.7198    0.7892 C   0  0  0  0  0  0  0  0  0  0  0  0
    0.8918   -6.5957    1.6117 C   0  0  0  0  0  0  0  0  0  0  0  0
    1.0998  -10.4710    3.2437 C   0  0  0  0  0  0  0  0  0  0  0  0
    0.0472  -11.2546    3.3963 C   0  0  0  0  0  0  0  0  0  0  0  0
    0.1622  -12.5732    3.4140 C   0  0  0  0  0  0  0  0  0  0  0  0
    1.4566  -13.0980    3.0551 C   0  0  0  0  0  0  0  0  0  0  0  0
    2.5435  -12.3437    2.8391 C   0  0  0  0  0  0  0  0  0  0  0  0
    2.3667  -11.0303    2.7911 C   0  0  0  0  0  0  0  0  0  0  0  0
    0.8742   -5.2366    1.2221 N   0  0  0  0  0  0  0  0  0  0  0  0
    1.5122  -14.7355    3.1343 C   0  0  0  0  0  0  0  0  0  0  0  0
    0.4687  -15.3616    3.6072 O   0  0  0  0  0  0  0  0  0  0  0  0
    2.6056  -15.2173    2.8031 O   0  0  0  0  0  0  0  0  0  0  0  0
    0.9717   -4.3147    2.2083 N   0  0  0  0  0  0  0  0  0  0  0  0
    0.1237   -3.4643    2.2513 O   0  0  0  0  0  0  0  0  0  0  0  0
    0.5907  -10.0047    0.3648 C   0  0  0  0  0  0  0  0  0  0  0  0
  3  7  1  0
 10 14  1  0
 14 15  1  0
 14 16  2  0
 13 17  1  0
 17 18  2  0
  4 19  1  0
  6 13  1  0
  1  2  2  0
  2  6  1  0
  5  6  2  0
  4  5  1  0
  3  4  2  0
  1  3  1  0
  7  8  2  0
  8  9  1  0
  9 10  2  0
 10 11  1  0
 11 12  2  0
  7 12  1  0
M  END

$$$$
No_4227-/export/home/yangzhenyu/potential_scad_32_flow//YTHDC2/2024-12-06-03-22-00/
     RDKit          3D

 21 22  0  0  1  0  0  0  0  0999 V2000
    1.1787   -8.0297    3.5154 C   0  0  0  0  0  0  0  0  0  0  0  0
    1.0491   -6.8434    2.9820 C   0  0  0  0  0  0  0  0  0  0  0  0
    0.9905   -9.0774    2.6527 C   0  0  0  0  0  0  0  0  0  0  0  0
    0.7897   -8.9519    1.3691 C   0  0  0  0  0  0  0  0  0  0  0  0
    0.7018   -7.7198    0.7892 C   0  0  0  0  0  0  0  0  0  0  0  0
    0.8918   -6.5957    1.6117 C   0  0  0  0  0  0  0  0  0  0  0  0
    1.0711  -10.4814    3.2282 C   0  0  0  0  0  0  0  0  0  0  0  0
   -0.1055  -11.1328    3.5223 C   0  0  0  0  0  0  0  0  0  0  0  0
   -0.1824  -12.4513    3.3816 C   0  0  0  0  0  0  0  0  0  0  0  0
    0.9872  -13.1679    2.9157 C   0  0  0  0  0  0  0  0  0  0  0  0
    2.2023  -12.5183    2.6748 C   0  0  0  0  0  0  0  0  0  0  0  0
    2.1918  -11.1651    2.6759 C   0  0  0  0  0  0  0  0  0  0  0  0
    0.9469  -14.5378    2.8274 C   0  0  2  0  0  0  0  0  0  0  0  0
   -0.0264  -15.3022    3.2689 C   0  0  0  0  0  0  0  0  0  0  0  0
    2.1311  -15.2034    2.4266 C   0  0  0  0  0  0  0  0  0  0  0  0
    3.1061  -14.7594    1.9270 C   0  0  0  0  0  0  0  0  0  0  0  0
    0.8565   -5.2700    1.1235 Cl  0  0  0  0  0  0  0  0  0  0  0  0
    2.1017  -16.6690    2.7054 C   0  0  0  0  0  0  0  0  0  0  0  0
    3.3265  -17.3766    2.2236 N   0  0  0  0  0  0  0  0  0  0  0  0
    4.1842  -15.3773    1.4202 C   0  0  0  0  0  0  0  0  0  0  0  0
    4.0616  -16.8580    1.7644 H   0  0  0  0  0  0  0  0  0  0  0  0
  3  7  1  0
 10 13  1  0
 13 14  1  1
 13 15  1  0
 15 16  2  3
  6 17  1  0
 15 18  1  0
 18 19  2  0
 16 20  1  0
  1  2  2  0
  2  6  1  0
  5  6  2  0
  4  5  1  0
  3  4  2  0
  1  3  1  0
  7  8  2  0
  8  9  1  0
  9 10  2  0
 10 11  1  0
 11 12  2  0
  7 12  1  0
 19 21  1  0
M  END

$$$$
No_4228-/export/home/yangzhenyu/potential_scad_32_flow//YTHDC2/2024-12-06-03-22-00/
     RDKit          3D

 18 18  0  0  0  0  0  0  0  0999 V2000
    1.1787   -8.0297    3.5154 C   0  0  0  0  0  0  0  0  0  0  0  0
    1.1048   -9.2215    3.2892 C   0  0  0  0  0  0  0  0  0  0  0  0
    1.0239   -9.7790    2.0239 C   0  0  0  0  0  0  0  0  0  0  0  0
    1.1393   -9.0211    0.9686 C   0  0  0  0  0  0  0  0  0  0  0  0
    1.4051   -7.6500    1.1251 C   0  0  0  0  0  0  0  0  0  0  0  0
    1.4868   -7.1041    2.3534 C   0  0  0  0  0  0  0  0  0  0  0  0
    0.9740  -10.2562    4.5561 C   0  0  0  0  0  0  0  0  0  0  0  0
    0.8495  -11.7039    4.0242 C   0  0  0  0  0  0  0  0  0  0  0  0
    2.1588  -12.3837    4.0049 P   0  0  0  0  0  0  0  0  0  0  0  0
    2.7790  -12.2254    2.6105 O   0  0  0  0  0  0  0  0  0  0  0  0
    2.1502  -13.7590    4.2751 O   0  0  0  0  0  0  0  0  0  0  0  0
    1.1424   -9.4629   -0.4023 S   0  0  0  0  0  0  0  0  0  0  0  0
    0.2076   -9.0045   -1.0620 O   0  0  0  0  0  0  0  0  0  0  0  0
    1.0357  -10.9271   -0.3512 O   0  0  0  0  0  0  0  0  0  0  0  0
    3.3449  -11.6455    4.7412 O   0  0  0  0  0  0  0  0  0  0  0  0
    2.4129   -9.0414   -1.2871 C   0  0  0  0  0  0  0  0  0  0  0  0
    1.4876   -5.6747    2.5718 O   0  0  0  0  0  0  0  0  0  0  0  0
    0.8058   -4.8049    1.9284 C   0  0  0  0  0  0  0  0  0  0  0  0
  2  7  1  0
  7  8  1  0
  8  9  1  0
  9 10  2  0
  9 11  1  0
  4 12  1  0
 12 13  2  0
 12 14  2  0
  9 15  1  0
 12 16  1  0
  6 17  1  0
 17 18  1  0
  1  2  2  0
  2  3  1  0
  3  4  2  0
  4  5  1  0
  5  6  2  0
  1  6  1  0
M  END

$$$$
No_4229-/export/home/yangzhenyu/potential_scad_32_flow//YTHDC2/2024-12-06-03-22-00/
     RDKit          3D

 19 20  0  0  1  0  0  0  0  0999 V2000
    1.1787   -8.0297    3.5154 C   0  0  0  0  0  0  0  0  0  0  0  0
    1.1048   -9.2215    3.2892 C   0  0  0  0  0  0  0  0  0  0  0  0
    1.2339   -9.7611    2.0189 C   0  0  0  0  0  0  0  0  0  0  0  0
    1.3583   -9.0036    0.9764 C   0  0  0  0  0  0  0  0  0  0  0  0
    1.5996   -7.6362    1.1311 C   0  0  0  0  0  0  0  0  0  0  0  0
    1.4830   -7.0928    2.3626 C   0  0  0  0  0  0  0  0  0  0  0  0
    1.1171  -11.3311    1.8661 C   0  0  1  0  0  0  0  0  0  0  0  0
    0.5022  -11.6388    0.6531 C   0  0  0  0  0  0  0  0  0  0  0  0
    0.5683  -13.0838    0.5424 C   0  0  0  0  0  0  0  0  0  0  0  0
    1.2665  -13.8887    1.3003 C   0  0  0  0  0  0  0  0  0  0  0  0
    1.9989  -13.3977    2.4029 C   0  0  1  0  0  0  0  0  0  0  0  0
    1.8520  -12.0917    2.7212 C   0  0  0  0  0  0  0  0  0  0  0  0
    2.4204  -11.5469    3.8139 O   0  0  0  0  0  0  0  0  0  0  0  0
    1.5549   -5.6500    2.6308 C   0  0  0  0  0  0  0  0  0  0  0  0
    1.7180   -5.1327    3.7702 N   0  0  0  0  0  0  0  0  0  0  0  0
    1.1326   -4.8035    1.5724 O   0  0  0  0  0  0  0  0  0  0  0  0
    1.6385   -9.4687   -0.5859 O   0  0  0  0  0  0  0  0  0  0  0  0
    2.5198  -14.2993    3.3135 O   0  0  0  0  0  0  0  0  0  0  0  0
    1.2834  -15.2421    1.0862 O   0  0  0  0  0  0  0  0  0  0  0  0
  7  3  1  6
  7  8  1  0
  9 10  1  0
  7 12  1  0
 11 12  1  0
 12 13  2  0
  6 14  1  0
 14 15  1  0
 14 16  2  0
  4 17  1  0
 11 18  1  1
 10 19  1  0
  8  9  1  0
 10 11  1  0
  1  2  2  0
  2  3  1  0
  3  4  2  0
  4  5  1  0
  5  6  2  0
  1  6  1  0
M  END

$$$$
No_4230-/export/home/yangzhenyu/potential_scad_32_flow//YTHDC2/2024-12-06-03-22-00/
     RDKit          3D

 20 21  0  0  0  0  0  0  0  0999 V2000
    1.1787   -8.0297    3.5154 C   0  0  0  0  0  0  0  0  0  0  0  0
    1.1048   -9.2215    3.2892 C   0  0  0  0  0  0  0  0  0  0  0  0
    1.2339   -9.7611    2.0189 C   0  0  0  0  0  0  0  0  0  0  0  0
    1.3583   -9.0036    0.9764 C   0  0  0  0  0  0  0  0  0  0  0  0
    1.5996   -7.6362    1.1311 C   0  0  0  0  0  0  0  0  0  0  0  0
    1.4830   -7.0928    2.3626 C   0  0  0  0  0  0  0  0  0  0  0  0
    1.5395   -5.7300    2.6182 C   0  0  0  0  0  0  0  0  0  0  0  0
    1.1775  -11.2233    1.8407 C   0  0  0  0  0  0  0  0  0  0  0  0
    1.9057  -12.1147    2.3397 C   0  0  0  0  0  0  0  0  0  0  0  0
    1.6867  -13.4551    2.0621 C   0  0  0  0  0  0  0  0  0  0  0  0
    0.7025  -13.8511    1.3021 C   0  0  0  0  0  0  0  0  0  0  0  0
   -0.1111  -12.9140    0.6527 C   0  0  0  0  0  0  0  0  0  0  0  0
    0.1535  -11.5434    0.9240 C   0  0  0  0  0  0  0  0  0  0  0  0
    1.6688   -5.1779    3.8866 O   0  0  0  0  0  0  0  0  0  0  0  0
    1.0241   -4.8409    1.7123 O   0  0  0  0  0  0  0  0  0  0  0  0
    2.5145  -14.4243    2.7646 O   0  0  0  0  0  0  0  0  0  0  0  0
   -0.7721  -10.7098    0.4401 C   0  0  0  0  0  0  0  0  0  0  0  0
   -1.9102  -10.3740    1.1010 O   0  0  0  0  0  0  0  0  0  0  0  0
   -0.7349  -10.1610   -0.7639 N   0  0  0  0  0  0  0  0  0  0  0  0
   -1.5285   -9.2501   -1.4786 C   0  0  0  0  0  0  0  0  0  0  0  0
  6  7  1  0
  3  8  1  0
  7 14  1  0
  7 15  2  0
 10 16  1  0
 13 17  1  0
 17 18  2  0
 17 19  1  0
 19 20  1  0
  1  2  2  0
  2  3  1  0
  3  4  2  0
  4  5  1  0
  5  6  2  0
  1  6  1  0
  8  9  2  0
  9 10  1  0
 10 11  2  0
 11 12  1  0
 12 13  2  0
  8 13  1  0
M  END

$$$$
No_4231-/export/home/yangzhenyu/potential_scad_32_flow//YTHDC2/2024-12-06-03-22-00/
     RDKit          3D

 18 19  0  0  1  0  0  0  0  0999 V2000
    1.1787   -8.0297    3.5154 C   0  0  0  0  0  0  0  0  0  0  0  0
    1.1048   -9.2215    3.2892 C   0  0  0  0  0  0  0  0  0  0  0  0
    1.3627  -10.1721    4.3044 C   0  0  0  0  0  0  0  0  0  0  0  0
    1.0682  -11.5187    4.0618 C   0  0  0  0  0  0  0  0  0  0  0  0
    0.6332  -11.9655    2.9682 C   0  0  0  0  0  0  0  0  0  0  0  0
    0.4776  -11.1308    1.9203 C   0  0  0  0  0  0  0  0  0  0  0  0
    0.7470   -9.8274    2.0368 C   0  0  0  0  0  0  0  0  0  0  0  0
    0.5535   -7.1314    2.6861 N   0  0  0  0  0  0  0  0  0  0  0  0
    0.4462   -7.5890    1.3163 C   0  0  0  0  0  0  0  0  0  0  0  0
    0.3166   -8.8396    1.0546 C   0  0  1  0  0  0  0  0  0  0  0  0
    0.0293   -9.1967   -0.1763 C   0  0  0  0  0  0  0  0  0  0  0  0
   -1.3284   -9.6599   -0.4094 O   0  0  0  0  0  0  0  0  0  0  0  0
    0.2806   -6.5686    0.4845 O   0  0  0  0  0  0  0  0  0  0  0  0
    0.7972   -9.1010   -1.2122 O   0  0  0  0  0  0  0  0  0  0  0  0
    0.5593  -13.3999    2.7064 C   0  0  0  0  0  0  0  0  0  0  0  0
    0.9459  -14.1005    1.7479 C   0  0  0  0  0  0  0  0  0  0  0  0
    2.3835  -13.9394    1.3645 C   0  0  0  0  0  0  0  0  0  0  0  0
    0.8326  -15.5762    1.7588 C   0  0  0  0  0  0  0  0  0  0  0  0
  1  2  1  0
  1  8  1  0
  8  9  1  0
  7 10  1  0
  9 10  1  0
 10 11  1  6
 11 12  1  0
  9 13  2  0
 11 14  2  0
  5 15  1  0
 15 16  1  0
 16 17  1  0
 16 18  1  0
  2  3  2  0
  3  4  1  0
  4  5  2  0
  5  6  1  0
  6  7  2  0
  2  7  1  0
M  END

$$$$
No_4232-/export/home/yangzhenyu/potential_scad_32_flow//YTHDC2/2024-12-06-03-22-00/
     RDKit          3D

 18 20  0  0  0  0  0  0  0  0999 V2000
    1.1787   -8.0297    3.5154 C   0  0  0  0  0  0  0  0  0  0  0  0
    1.0491   -6.8434    2.9820 C   0  0  0  0  0  0  0  0  0  0  0  0
    0.0950   -8.8404    3.2292 C   0  0  0  0  0  0  0  0  0  0  0  0
   -0.9173   -8.4596    2.5152 C   0  0  0  0  0  0  0  0  0  0  0  0
   -1.0331   -7.2162    2.0653 C   0  0  0  0  0  0  0  0  0  0  0  0
   -0.0105   -6.3168    2.3081 C   0  0  0  0  0  0  0  0  0  0  0  0
    0.0485   -4.9783    1.8782 C   0  0  0  0  0  0  0  0  0  0  0  0
    0.9625   -4.1072    2.3252 N   0  0  0  0  0  0  0  0  0  0  0  0
   -0.8420   -4.3903    1.0303 N   0  0  0  0  0  0  0  0  0  0  0  0
    0.1908  -10.2865    3.6557 C   0  0  0  0  0  0  0  0  0  0  0  0
    1.2418  -10.9397    4.0873 C   0  0  0  0  0  0  0  0  0  0  0  0
    1.1690  -12.3263    4.0035 C   0  0  0  0  0  0  0  0  0  0  0  0
    0.0561  -12.9349    3.6606 C   0  0  0  0  0  0  0  0  0  0  0  0
   -0.9445  -12.3406    3.2039 C   0  0  0  0  0  0  0  0  0  0  0  0
   -0.9581  -10.9477    3.2151 C   0  0  0  0  0  0  0  0  0  0  0  0
   -0.4244   -3.0872    0.7148 C   0  0  0  0  0  0  0  0  0  0  0  0
    0.8037   -2.9956    1.6023 C   0  0  0  0  0  0  0  0  0  0  0  0
    0.1326  -14.3548    3.6958 Cl  0  0  0  0  0  0  0  0  0  0  0  0
  6  7  1  0
  7  8  2  0
  7  9  1  0
  3 10  1  0
  9 16  2  0
  8 17  1  0
 16 17  1  0
 13 18  1  0
  1  2  2  0
  2  6  1  0
  5  6  2  0
  4  5  1  0
  3  4  2  0
  1  3  1  0
 10 11  2  0
 11 12  1  0
 12 13  2  0
 13 14  1  0
 14 15  2  0
 10 15  1  0
M  END

$$$$
No_4233-/export/home/yangzhenyu/potential_scad_32_flow//YTHDC2/2024-12-06-03-22-00/
     RDKit          3D

 18 19  0  0  1  0  0  0  0  0999 V2000
    1.1787   -8.0297    3.5154 C   0  0  0  0  0  0  0  0  0  0  0  0
    1.0491   -6.8434    2.9820 C   0  0  1  0  0  0  0  0  0  0  0  0
    0.9905   -9.0774    2.6527 C   0  0  1  0  0  0  0  0  0  0  0  0
    0.7897   -8.9519    1.3691 C   0  0  0  0  0  0  0  0  0  0  0  0
    0.7018   -7.7198    0.7892 C   0  0  0  0  0  0  0  0  0  0  0  0
    1.4312   -5.5794    3.7443 C   0  0  0  0  0  0  0  0  0  0  0  0
    0.9426   -6.6664    1.5322 C   0  0  0  0  0  0  0  0  0  0  0  0
    0.9111   -5.4001    1.0251 O   0  0  0  0  0  0  0  0  0  0  0  0
    1.1071  -10.5041    3.1810 C   0  0  2  0  0  0  0  0  0  0  0  0
    2.2672  -10.9371    3.6173 C   0  0  0  0  0  0  0  0  0  0  0  0
    2.2295  -12.2826    4.0897 N   0  0  0  0  0  0  0  0  0  0  0  0
    1.1176  -12.8049    3.6436 N   0  0  0  0  0  0  0  0  0  0  0  0
    0.4289  -11.6360    3.1300 C   0  0  1  0  0  0  0  0  0  0  0  0
   -0.8162  -11.7785    2.7529 C   0  0  0  0  0  0  0  0  0  0  0  0
   -1.2598  -12.8405    2.0809 N   0  0  0  0  0  0  0  0  0  0  0  0
   -1.7575  -10.8427    3.2964 O   0  0  0  0  0  0  0  0  0  0  0  0
   -2.6242  -12.8728    1.6359 C   0  0  0  0  0  0  0  0  0  0  0  0
   -2.9438  -12.3847    0.3418 C   0  0  0  0  0  0  0  0  0  0  0  0
  1  2  1  0
  3  4  1  6
  2  6  1  6
  2  7  1  0
  5  7  1  0
  7  8  2  0
  3  9  1  0
  9 10  1  6
 10 11  2  0
 11 12  1  0
  9 13  1  0
 12 13  1  0
 13 14  1  1
 14 15  1  0
 14 16  2  0
 15 17  1  0
 17 18  1  0
  1  3  1  0
  4  5  1  0
M  END

$$$$
No_4234-/export/home/yangzhenyu/potential_scad_32_flow//YTHDC2/2024-12-06-03-22-00/
     RDKit          3D

 19 20  0  0  0  0  0  0  0  0999 V2000
    1.1787   -8.0297    3.5154 C   0  0  0  0  0  0  0  0  0  0  0  0
    1.0491   -6.8434    2.9820 C   0  0  0  0  0  0  0  0  0  0  0  0
    0.9905   -9.0774    2.6527 C   0  0  0  0  0  0  0  0  0  0  0  0
    0.7897   -8.9519    1.3691 C   0  0  0  0  0  0  0  0  0  0  0  0
    0.7018   -7.7198    0.7892 C   0  0  0  0  0  0  0  0  0  0  0  0
    0.8918   -6.5957    1.6117 C   0  0  0  0  0  0  0  0  0  0  0  0
    1.0711  -10.4814    3.2282 C   0  0  0  0  0  0  0  0  0  0  0  0
    2.1432  -11.0138    3.5962 C   0  0  0  0  0  0  0  0  0  0  0  0
   -0.0553  -11.2345    3.2841 C   0  0  0  0  0  0  0  0  0  0  0  0
   -0.1131  -12.4857    3.1636 C   0  0  0  0  0  0  0  0  0  0  0  0
    1.1361  -13.1925    3.4825 C   0  0  0  0  0  0  0  0  0  0  0  0
    2.2643  -12.4364    3.7039 C   0  0  0  0  0  0  0  0  0  0  0  0
    1.2558  -14.5512    3.4930 O   0  0  0  0  0  0  0  0  0  0  0  0
    0.8286   -5.2841    1.0952 O   0  0  0  0  0  0  0  0  0  0  0  0
   -0.2589   -4.4684    1.2443 C   0  0  0  0  0  0  0  0  0  0  0  0
   -1.4296   -5.1894    1.2482 C   0  0  0  0  0  0  0  0  0  0  0  0
   -1.9385   -5.3652   -0.1254 C   0  0  0  0  0  0  0  0  0  0  0  0
   -2.3125   -6.6589   -0.3210 C   0  0  0  0  0  0  0  0  0  0  0  0
   -2.9997   -7.4147    0.5491 C   0  0  0  0  0  0  0  0  0  0  0  0
  3  7  1  0
  7  8  1  0
  7  9  1  0
 10 11  1  0
  8 12  1  0
 11 12  1  0
 11 13  2  0
  6 14  1  0
 14 15  1  0
 15 16  1  0
 16 17  1  0
 17 18  1  0
 18 19  1  0
  9 10  1  0
  1  2  2  0
  2  6  1  0
  5  6  2  0
  4  5  1  0
  3  4  2  0
  1  3  1  0
M  END

$$$$
No_4235-/export/home/yangzhenyu/potential_scad_32_flow//YTHDC2/2024-12-06-03-22-00/
     RDKit          3D

 19 20  0  0  0  0  0  0  0  0999 V2000
    1.1787   -8.0297    3.5154 C   0  0  0  0  0  0  0  0  0  0  0  0
    1.0491   -6.8434    2.9820 C   0  0  0  0  0  0  0  0  0  0  0  0
    0.0950   -8.8404    3.2292 C   0  0  0  0  0  0  0  0  0  0  0  0
   -0.9173   -8.4596    2.5152 C   0  0  0  0  0  0  0  0  0  0  0  0
   -1.0331   -7.2162    2.0653 C   0  0  0  0  0  0  0  0  0  0  0  0
   -0.0105   -6.3168    2.3081 C   0  0  0  0  0  0  0  0  0  0  0  0
    0.1935  -10.3737    3.7416 N   0  0  0  0  0  0  0  0  0  0  0  0
    1.2005  -10.9254    4.0295 C   0  0  0  0  0  0  0  0  0  0  0  0
    2.3184  -10.5298    4.2673 C   0  0  0  0  0  0  0  0  0  0  0  0
    0.8857  -12.4118    3.9814 C   0  0  0  0  0  0  0  0  0  0  0  0
    1.9959  -13.2265    3.8750 C   0  0  0  0  0  0  0  0  0  0  0  0
    3.2383  -12.7162    3.9206 C   0  0  0  0  0  0  0  0  0  0  0  0
    3.4496  -11.4144    4.3778 C   0  0  0  0  0  0  0  0  0  0  0  0
   -0.0031   -4.9704    1.8410 O   0  0  0  0  0  0  0  0  0  0  0  0
    0.8763   -4.0659    2.3265 C   0  0  0  0  0  0  0  0  0  0  0  0
    1.9147  -14.5567    3.4298 C   0  0  0  0  0  0  0  0  0  0  0  0
    2.8726  -15.2315    2.6472 O   0  0  0  0  0  0  0  0  0  0  0  0
    0.7484  -15.2428    3.6619 O   0  0  0  0  0  0  0  0  0  0  0  0
   -2.3517   -6.6743    1.3788 O   0  0  0  0  0  0  0  0  0  0  0  0
  3  7  1  0
  7  8  1  0
  6 14  1  0
 14 15  1  0
 11 16  1  0
 16 17  2  0
 16 18  1  0
  5 19  1  0
  1  2  2  0
  2  6  1  0
  5  6  2  0
  4  5  1  0
  3  4  2  0
  1  3  1  0
  8  9  2  0
  9 13  1  0
 12 13  2  0
 11 12  1  0
 10 11  2  0
  8 10  1  0
M  END

$$$$
No_4236-/export/home/yangzhenyu/potential_scad_32_flow//YTHDC2/2024-12-06-03-22-00/
     RDKit          3D

 19 20  0  0  0  0  0  0  0  0999 V2000
    1.1787   -8.0297    3.5154 C   0  0  0  0  0  0  0  0  0  0  0  0
    1.1048   -9.2215    3.2892 C   0  0  0  0  0  0  0  0  0  0  0  0
    1.2339   -9.7611    2.0189 C   0  0  0  0  0  0  0  0  0  0  0  0
    1.3583   -9.0036    0.9764 C   0  0  0  0  0  0  0  0  0  0  0  0
    1.5996   -7.6362    1.1311 C   0  0  0  0  0  0  0  0  0  0  0  0
    1.4830   -7.0928    2.3626 C   0  0  0  0  0  0  0  0  0  0  0  0
    1.1171  -11.3311    1.8661 C   0  0  0  0  0  0  0  0  0  0  0  0
    0.5042  -11.9974    2.3631 C   0  0  0  0  0  0  0  0  0  0  0  0
    0.4547  -13.3874    2.1599 C   0  0  0  0  0  0  0  0  0  0  0  0
    1.6053  -14.2337    2.6336 C   0  0  0  0  0  0  0  0  0  0  0  0
    1.6405  -15.5635    2.4227 C   0  0  0  0  0  0  0  0  0  0  0  0
    0.5329  -16.1828    1.9320 C   0  0  0  0  0  0  0  0  0  0  0  0
   -0.4545  -15.5158    1.3547 C   0  0  0  0  0  0  0  0  0  0  0  0
   -0.5125  -14.1019    1.5567 C   0  0  0  0  0  0  0  0  0  0  0  0
    1.5911   -5.4738    2.6984 P   0  0  0  0  0  0  0  0  0  0  0  0
    1.8570   -4.9456    1.5469 O   0  0  0  0  0  0  0  0  0  0  0  0
    2.5288   -5.3093    3.7467 O   0  0  0  0  0  0  0  0  0  0  0  0
    0.1399   -5.0017    3.0439 O   0  0  0  0  0  0  0  0  0  0  0  0
   -1.7085  -13.5646    1.2838 C   0  0  0  0  0  0  0  0  0  0  0  0
  3  7  1  0
  7  8  2  3
  8  9  1  0
  6 15  1  0
 15 16  2  0
 15 17  1  0
 15 18  1  0
 14 19  1  0
  1  2  2  0
  2  3  1  0
  3  4  2  0
  4  5  1  0
  5  6  2  0
  1  6  1  0
  9 10  2  0
 10 11  1  0
 11 12  2  0
 12 13  1  0
 13 14  2  0
  9 14  1  0
M  END

$$$$
No_4237-/export/home/yangzhenyu/potential_scad_32_flow//YTHDC2/2024-12-06-03-22-00/
     RDKit          3D

 21 22  0  0  0  0  0  0  0  0999 V2000
    1.1787   -8.0297    3.5154 N   0  0  0  0  0  0  0  0  0  0  0  0
    0.8669   -7.0905    2.8589 C   0  0  0  0  0  0  0  0  0  0  0  0
    0.8842   -5.8387    3.2677 N   0  0  0  0  0  0  0  0  0  0  0  0
    1.1509   -7.3366    1.4030 C   0  0  0  0  0  0  0  0  0  0  0  0
    1.0750   -9.2897    3.1319 C   0  0  0  0  0  0  0  0  0  0  0  0
    1.4320  -10.3964    4.1038 N   0  0  0  0  0  0  0  0  0  0  0  0
    0.5531   -9.7693    1.9903 C   0  0  0  0  0  0  0  0  0  0  0  0
    0.9014   -8.6297    0.9874 C   0  0  0  0  0  0  0  0  0  0  0  0
    0.8314   -8.8066   -0.3787 C   0  0  0  0  0  0  0  0  0  0  0  0
    1.2049   -7.9547   -1.1176 O   0  0  0  0  0  0  0  0  0  0  0  0
    0.3864  -10.0550   -0.8604 O   0  0  0  0  0  0  0  0  0  0  0  0
    1.8515  -11.6199    3.8483 C   0  0  0  0  0  0  0  0  0  0  0  0
    0.8354  -12.6302    3.6463 C   0  0  0  0  0  0  0  0  0  0  0  0
    1.1570  -13.9153    3.1119 C   0  0  0  0  0  0  0  0  0  0  0  0
    0.9534  -14.0756    2.0841 N   0  0  0  0  0  0  0  0  0  0  0  0
    1.3860  -14.9642    3.9984 O   0  0  0  0  0  0  0  0  0  0  0  0
    1.5254  -16.0627    3.0546 C   0  0  0  0  0  0  0  0  0  0  0  0
    1.2501  -15.4380    1.8347 C   0  0  0  0  0  0  0  0  0  0  0  0
    1.7650  -17.3181    3.5123 C   0  0  0  0  0  0  0  0  0  0  0  0
    1.4432  -18.3138    2.8623 C   0  0  0  0  0  0  0  0  0  0  0  0
    1.9191  -19.6580    3.1928 C   0  0  0  0  0  0  0  0  0  0  0  0
  2  3  1  0
  5  6  1  0
  8  9  1  0
  9 10  2  0
  9 11  1  0
  6 12  1  0
 12 13  1  0
 13 14  1  0
 14 15  2  0
 14 16  1  0
 16 17  1  0
 15 18  1  0
 17 18  2  0
 17 19  1  0
 19 20  2  3
 20 21  1  0
  1  2  2  0
  2  4  1  0
  4  8  2  0
  7  8  1  0
  5  7  2  0
  1  5  1  0
M  END

$$$$
No_4238-/export/home/yangzhenyu/potential_scad_32_flow//YTHDC2/2024-12-06-03-22-00/
     RDKit          3D

 13 14  0  0  0  0  0  0  0  0999 V2000
    1.1787   -8.0297    3.5154 C   0  0  0  0  0  0  0  0  0  0  0  0
    1.1048   -9.2215    3.2892 C   0  0  0  0  0  0  0  0  0  0  0  0
    1.2339   -9.7611    2.0189 C   0  0  0  0  0  0  0  0  0  0  0  0
    1.1954  -11.2312    1.8661 C   0  0  0  0  0  0  0  0  0  0  0  0
    1.5546  -12.1691    2.7931 C   0  0  0  0  0  0  0  0  0  0  0  0
    1.5212  -13.5491    2.4676 N   0  0  0  0  0  0  0  0  0  0  0  0
    0.5938   -7.1605    2.5710 C   0  0  0  0  0  0  0  0  0  0  0  0
    0.5965   -7.6817    1.1913 C   0  0  0  0  0  0  0  0  0  0  0  0
    0.7749   -8.9691    0.9322 C   0  0  0  0  0  0  0  0  0  0  0  0
    1.4208  -14.0492    1.3788 C   0  0  0  0  0  0  0  0  0  0  0  0
    1.2840  -13.1634    0.3181 C   0  0  0  0  0  0  0  0  0  0  0  0
    1.1409  -11.7945    0.5333 C   0  0  0  0  0  0  0  0  0  0  0  0
    0.5978   -5.6565    2.6303 C   0  0  0  0  0  0  0  0  0  0  0  0
  3  4  1  0
  7 13  1  0
  4  5  2  0
  5  6  1  0
  6 10  2  0
 10 11  1  0
 11 12  2  0
  4 12  1  0
  1  2  2  0
  2  3  1  0
  3  9  2  0
  8  9  1  0
  7  8  2  0
  1  7  1  0
M  END

$$$$
No_4239-/export/home/yangzhenyu/potential_scad_32_flow//YTHDC2/2024-12-06-03-22-00/
     RDKit          3D

 17 17  0  0  1  0  0  0  0  0999 V2000
    1.1787   -8.0297    3.5154 C   0  0  0  0  0  0  0  0  0  0  0  0
    1.1048   -9.2215    3.2892 C   0  0  0  0  0  0  0  0  0  0  0  0
    1.2339   -9.7611    2.0189 C   0  0  0  0  0  0  0  0  0  0  0  0
    1.3583   -9.0036    0.9764 C   0  0  0  0  0  0  0  0  0  0  0  0
    1.5996   -7.6362    1.1311 C   0  0  0  0  0  0  0  0  0  0  0  0
    1.4830   -7.0928    2.3626 C   0  0  0  0  0  0  0  0  0  0  0  0
    1.5395   -5.7300    2.6182 C   0  0  0  0  0  0  0  0  0  0  0  0
    1.1775  -11.2233    1.8407 C   0  0  1  0  0  0  0  0  0  0  0  0
    0.7252  -11.5870    0.5412 N   0  0  0  0  0  0  0  0  0  0  0  0
    1.6030  -12.0513    2.6420 C   0  0  0  0  0  0  0  0  0  0  0  0
    1.9285  -11.8569    3.8700 C   0  0  0  0  0  0  0  0  0  0  0  0
    1.5157  -13.4763    2.1570 C   0  0  0  0  0  0  0  0  0  0  0  0
    1.8056  -14.4908    3.0679 C   0  0  0  0  0  0  0  0  0  0  0  0
    1.0328  -15.4710    3.1840 C   0  0  0  0  0  0  0  0  0  0  0  0
    1.1725  -16.6519    3.8582 O   0  0  0  0  0  0  0  0  0  0  0  0
   -0.2706  -15.6241    2.6522 C   0  0  0  0  0  0  0  0  0  0  0  0
    1.3012   -4.8027    1.6797 O   0  0  0  0  0  0  0  0  0  0  0  0
  6  7  1  0
  3  8  1  0
  8  9  1  6
  8 10  1  0
 10 11  2  0
 10 12  1  0
 12 13  2  3
 13 14  1  0
 14 15  1  0
 14 16  1  0
  7 17  2  0
  1  2  2  0
  2  3  1  0
  3  4  2  0
  4  5  1  0
  5  6  2  0
  1  6  1  0
M  END

$$$$
No_4240-/export/home/yangzhenyu/potential_scad_32_flow//YTHDC2/2024-12-06-03-22-00/
     RDKit          3D

 18 19  0  0  1  0  0  0  0  0999 V2000
    1.1787   -8.0297    3.5154 C   0  0  0  0  0  0  0  0  0  0  0  0
    1.1048   -9.2215    3.2892 C   0  0  0  0  0  0  0  0  0  0  0  0
    1.3627  -10.1721    4.3044 C   0  0  0  0  0  0  0  0  0  0  0  0
    1.0682  -11.5187    4.0618 C   0  0  0  0  0  0  0  0  0  0  0  0
    0.6332  -11.9655    2.9682 C   0  0  1  0  0  0  0  0  0  0  0  0
    0.4776  -11.1308    1.9203 C   0  0  0  0  0  0  0  0  0  0  0  0
    0.7470   -9.8274    2.0368 C   0  0  0  0  0  0  0  0  0  0  0  0
    1.8805   -7.1616    3.5538 C   0  0  0  0  0  0  0  0  0  0  0  0
    0.3661  -13.4265    2.7867 C   0  0  2  0  0  0  0  0  0  0  0  0
    1.3569  -14.3327    3.1423 C   0  0  0  0  0  0  0  0  0  0  0  0
    1.1359  -15.7043    3.0228 C   0  0  0  0  0  0  0  0  0  0  0  0
   -0.0207  -16.1306    2.5660 C   0  0  0  0  0  0  0  0  0  0  0  0
   -0.9484  -15.2894    2.1282 C   0  0  0  0  0  0  0  0  0  0  0  0
   -0.7046  -13.9106    2.2634 C   0  0  0  0  0  0  0  0  0  0  0  0
    0.7657   -9.0443    0.9428 O   0  0  0  0  0  0  0  0  0  0  0  0
   -1.7896  -13.0640    1.9621 O   0  0  0  0  0  0  0  0  0  0  0  0
    1.4933   -5.6748    3.6563 O   0  0  0  0  0  0  0  0  0  0  0  0
    0.8059   -4.9220    2.8534 C   0  0  0  0  0  0  0  0  0  0  0  0
  1  2  1  0
  2  3  1  0
  5  4  1  6
  2  7  1  0
  6  7  1  0
  1  8  2  3
  5  9  1  0
  9 10  1  6
 11 12  1  0
  9 14  1  0
 13 14  1  0
  7 15  2  0
 14 16  2  0
  8 17  1  0
 17 18  1  0
 10 11  1  0
 12 13  1  0
  3  4  1  0
  5  6  1  0
M  END

$$$$
No_4241-/export/home/yangzhenyu/potential_scad_32_flow//YTHDC2/2024-12-06-03-22-00/
     RDKit          3D

 20 22  0  0  1  0  0  0  0  0999 V2000
    1.1787   -8.0297    3.5154 C   0  0  0  0  0  0  0  0  0  0  0  0
    1.1048   -9.2215    3.2892 C   0  0  0  0  0  0  0  0  0  0  0  0
    1.2339   -9.7611    2.0189 C   0  0  0  0  0  0  0  0  0  0  0  0
    1.3583   -9.0036    0.9764 C   0  0  0  0  0  0  0  0  0  0  0  0
    1.5996   -7.6362    1.1311 C   0  0  0  0  0  0  0  0  0  0  0  0
    1.4830   -7.0928    2.3626 C   0  0  0  0  0  0  0  0  0  0  0  0
    1.1008  -11.2372    1.8542 C   0  0  0  0  0  0  0  0  0  0  0  0
    1.9749  -12.0938    2.2342 C   0  0  0  0  0  0  0  0  0  0  0  0
    1.5180  -13.3509    2.5910 C   0  0  0  0  0  0  0  0  0  0  0  0
    0.4120  -13.9272    2.2191 C   0  0  0  0  0  0  0  0  0  0  0  0
   -0.5860  -13.0563    1.8308 C   0  0  0  0  0  0  0  0  0  0  0  0
   -0.2264  -11.7453    1.4928 C   0  0  0  0  0  0  0  0  0  0  0  0
    1.5759   -5.6593    2.6277 C   0  0  0  0  0  0  0  0  0  0  0  0
    0.0964  -15.2149    2.5390 C   0  0  1  0  0  0  0  0  0  0  0  0
    1.0228  -16.0188    3.2059 C   0  0  0  0  0  0  0  0  0  0  0  0
    0.8672  -17.3648    3.5365 C   0  0  0  0  0  0  0  0  0  0  0  0
   -0.2738  -17.7830    4.1297 C   0  0  0  0  0  0  0  0  0  0  0  0
   -1.3980  -16.9361    3.7323 C   0  0  0  0  0  0  0  0  0  0  0  0
   -1.2490  -15.7021    3.0932 C   0  0  0  0  0  0  0  0  0  0  0  0
   -2.6864  -17.3618    4.0886 O   0  0  0  0  0  0  0  0  0  0  0  0
  3  7  1  0
  6 13  1  0
 14 10  1  1
 15 16  1  0
 17 18  1  0
 14 19  1  0
 18 19  1  0
 18 20  2  0
 16 17  1  0
 14 15  1  0
  1  2  2  0
  2  3  1  0
  3  4  2  0
  4  5  1  0
  5  6  2  0
  1  6  1  0
  7  8  2  0
  8  9  1  0
  9 10  2  0
 10 11  1  0
 11 12  2  0
  7 12  1  0
M  END

$$$$
No_4242-/export/home/yangzhenyu/potential_scad_32_flow//YTHDC2/2024-12-06-03-22-00/
     RDKit          3D

 20 21  0  0  0  0  0  0  0  0999 V2000
    1.1787   -8.0297    3.5154 C   0  0  0  0  0  0  0  0  0  0  0  0
    1.1048   -9.2215    3.2892 C   0  0  0  0  0  0  0  0  0  0  0  0
    1.2339   -9.7611    2.0189 C   0  0  0  0  0  0  0  0  0  0  0  0
    1.1954  -11.2312    1.8661 C   0  0  0  0  0  0  0  0  0  0  0  0
    1.5546  -12.1691    2.7931 C   0  0  0  0  0  0  0  0  0  0  0  0
    1.9366   -7.1955    3.3930 C   0  0  0  0  0  0  0  0  0  0  0  0
    1.2958  -11.7045    4.0882 C   0  0  0  0  0  0  0  0  0  0  0  0
    1.2608  -10.2905    4.3542 C   0  0  0  0  0  0  0  0  0  0  0  0
    1.2098  -13.4924    2.4593 N   0  0  0  0  0  0  0  0  0  0  0  0
    0.2896  -13.7103    1.6242 C   0  0  0  0  0  0  0  0  0  0  0  0
   -0.6165  -12.8719    1.2657 C   0  0  0  0  0  0  0  0  0  0  0  0
   -1.6244  -13.2338    0.2696 C   0  0  0  0  0  0  0  0  0  0  0  0
   -1.7203  -14.5112    0.0099 C   0  0  0  0  0  0  0  0  0  0  0  0
   -0.8814  -15.5107    0.5615 C   0  0  0  0  0  0  0  0  0  0  0  0
    0.1378  -15.1377    1.3917 C   0  0  0  0  0  0  0  0  0  0  0  0
    1.4471   -8.9507    0.9113 C   0  0  0  0  0  0  0  0  0  0  0  0
    2.4726   -8.9956    0.1204 C   0  0  0  0  0  0  0  0  0  0  0  0
    2.4134   -8.0972   -0.9084 O   0  0  0  0  0  0  0  0  0  0  0  0
    3.3979   -9.7192    0.2297 O   0  0  0  0  0  0  0  0  0  0  0  0
   -2.7490  -14.9713   -0.8952 O   0  0  0  0  0  0  0  0  0  0  0  0
  1  2  1  0
  1  6  2  0
  5  9  1  0
  9 10  1  0
  3 16  1  0
 16 17  1  0
 17 18  1  0
 17 19  2  0
 13 20  1  0
 10 11  2  0
 11 12  1  0
 12 13  2  0
 13 14  1  0
 14 15  2  0
 10 15  1  0
  2  3  2  0
  3  4  1  0
  4  5  2  0
  5  7  1  0
  7  8  2  0
  2  8  1  0
M  END

$$$$
No_4243-/export/home/yangzhenyu/potential_scad_32_flow//YTHDC2/2024-12-06-03-22-00/
     RDKit          3D

 18 19  0  0  1  0  0  0  0  0999 V2000
    1.1787   -8.0297    3.5154 C   0  0  0  0  0  0  0  0  0  0  0  0
    1.0491   -6.8434    2.9820 C   0  0  0  0  0  0  0  0  0  0  0  0
    0.9905   -9.0774    2.6527 C   0  0  0  0  0  0  0  0  0  0  0  0
    0.7897   -8.9519    1.3691 C   0  0  0  0  0  0  0  0  0  0  0  0
    0.7018   -7.7198    0.7892 C   0  0  0  0  0  0  0  0  0  0  0  0
    0.8918   -6.5957    1.6117 C   0  0  0  0  0  0  0  0  0  0  0  0
    1.0998  -10.4710    3.2437 C   0  0  1  0  0  0  0  0  0  0  0  0
    2.1917  -10.8879    3.7399 C   0  0  0  0  0  0  0  0  0  0  0  0
    0.8983   -5.2566    1.2088 O   0  0  0  0  0  0  0  0  0  0  0  0
   -0.0200  -11.2248    3.3627 C   0  0  0  0  0  0  0  0  0  0  0  0
   -0.7200  -11.5139    2.5344 C   0  0  0  0  0  0  0  0  0  0  0  0
   -1.9561  -12.2751    2.6897 C   0  0  0  0  0  0  0  0  0  0  0  0
   -2.0341  -13.5693    2.5805 C   0  0  0  0  0  0  0  0  0  0  0  0
   -0.8226  -14.2845    2.2740 C   0  0  0  0  0  0  0  0  0  0  0  0
    0.2600  -13.8147    1.8064 C   0  0  0  0  0  0  0  0  0  0  0  0
    0.2017  -12.2315    1.8837 C   0  0  0  0  0  0  0  0  0  0  0  0
    2.2590  -11.1889    5.1849 O   0  0  0  0  0  0  0  0  0  0  0  0
    1.3794  -14.5448    1.3789 F   0  0  0  0  0  0  0  0  0  0  0  0
  1  2  1  0
  3  4  1  0
  2  6  1  0
  5  6  1  0
  3  7  1  0
  7  8  1  0
  6  9  2  0
  7 10  1  1
  8 17  2  0
 15 18  1  0
 10 11  1  0
  1  3  1  0
  4  5  1  0
 11 12  2  0
 12 13  1  0
 13 14  2  0
 14 15  1  0
 15 16  2  0
 11 16  1  0
M  END

$$$$
No_4244-/export/home/yangzhenyu/potential_scad_32_flow//YTHDC2/2024-12-06-03-22-00/
     RDKit          3D

 19 20  0  0  0  0  0  0  0  0999 V2000
    1.1787   -8.0297    3.5154 C   0  0  0  0  0  0  0  0  0  0  0  0
    1.0491   -6.8434    2.9820 F   0  0  0  0  0  0  0  0  0  0  0  0
    0.0305   -8.5911    3.7360 C   0  0  0  0  0  0  0  0  0  0  0  0
    0.0909   -9.9772    4.1302 C   0  0  0  0  0  0  0  0  0  0  0  0
   -1.2351  -10.5763    4.4000 C   0  0  0  0  0  0  0  0  0  0  0  0
   -2.2497  -10.3147    3.7652 C   0  0  0  0  0  0  0  0  0  0  0  0
   -2.3020   -8.9027    3.1877 C   0  0  0  0  0  0  0  0  0  0  0  0
   -1.1635   -8.1345    3.1718 C   0  0  0  0  0  0  0  0  0  0  0  0
    1.9351   -7.9447    4.6100 F   0  0  0  0  0  0  0  0  0  0  0  0
    1.8743   -8.6888    2.5956 F   0  0  0  0  0  0  0  0  0  0  0  0
   -3.4703  -10.9493    3.8671 C   0  0  0  0  0  0  0  0  0  0  0  0
   -4.4069  -10.7581    4.7195 C   0  0  0  0  0  0  0  0  0  0  0  0
   -5.4189  -11.7245    4.9608 C   0  0  0  0  0  0  0  0  0  0  0  0
   -5.5211  -12.8837    4.3699 C   0  0  0  0  0  0  0  0  0  0  0  0
   -4.5110  -13.1879    3.3895 C   0  0  0  0  0  0  0  0  0  0  0  0
   -3.4849  -12.2968    3.2397 C   0  0  0  0  0  0  0  0  0  0  0  0
   -2.4844  -12.5985    2.2922 C   0  0  0  0  0  0  0  0  0  0  0  0
   -2.4641  -13.3808    1.3485 C   0  0  0  0  0  0  0  0  0  0  0  0
   -1.6187  -13.7685    0.6655 C   0  0  0  0  0  0  0  0  0  0  0  0
  1  2  1  0
  1  3  1  0
  1  9  1  0
  1 10  1  0
  6 11  1  0
 16 17  1  0
 17 18  2  3
 18 19  1  0
 11 12  2  0
 12 13  1  0
 13 14  2  0
 14 15  1  0
 15 16  2  0
 11 16  1  0
  3  4  2  0
  4  5  1  0
  5  6  2  0
  6  7  1  0
  7  8  2  0
  3  8  1  0
M  END

$$$$
No_4245-/export/home/yangzhenyu/potential_scad_32_flow//YTHDC2/2024-12-06-03-22-00/
     RDKit          3D

 17 18  0  0  0  0  0  0  0  0999 V2000
    1.1787   -8.0297    3.5154 C   0  0  0  0  0  0  0  0  0  0  0  0
    1.0491   -6.8434    2.9820 C   0  0  0  0  0  0  0  0  0  0  0  0
    2.0004   -8.9805    3.0498 C   0  0  0  0  0  0  0  0  0  0  0  0
    2.3555   -9.0813    1.8033 C   0  0  0  0  0  0  0  0  0  0  0  0
    1.5516   -6.8448    1.5633 C   0  0  0  0  0  0  0  0  0  0  0  0
    2.2171   -7.9366    1.0002 C   0  0  0  0  0  0  0  0  0  0  0  0
    2.6007   -7.8474   -0.2178 C   0  0  0  0  0  0  0  0  0  0  0  0
    2.1290  -10.4784    3.8415 C   0  0  0  0  0  0  0  0  0  0  0  0
    1.1645  -10.9822    4.3056 C   0  0  0  0  0  0  0  0  0  0  0  0
   -0.0404  -10.8862    3.6550 C   0  0  0  0  0  0  0  0  0  0  0  0
   -0.4356  -11.7099    2.6773 C   0  0  0  0  0  0  0  0  0  0  0  0
   -1.6647  -11.5697    2.0670 C   0  0  0  0  0  0  0  0  0  0  0  0
   -2.5722  -10.6994    2.5640 C   0  0  0  0  0  0  0  0  0  0  0  0
   -2.3349   -9.9909    3.7466 C   0  0  0  0  0  0  0  0  0  0  0  0
   -1.0878  -10.1014    4.3816 C   0  0  0  0  0  0  0  0  0  0  0  0
    1.9988   -8.7991   -1.0587 C   0  0  0  0  0  0  0  0  0  0  0  0
    2.7150   -9.8191   -1.5042 O   0  0  0  0  0  0  0  0  0  0  0  0
  6  7  1  0
  3  8  1  0
  8  9  1  0
  9 10  1  0
  7 16  1  0
 16 17  2  0
  1  2  2  0
  2  5  1  0
  5  6  2  0
  4  6  1  0
  3  4  2  0
  1  3  1  0
 10 11  2  0
 11 12  1  0
 12 13  2  0
 13 14  1  0
 14 15  2  0
 10 15  1  0
M  END

$$$$
No_4246-/export/home/yangzhenyu/potential_scad_32_flow//YTHDC2/2024-12-06-03-22-00/
     RDKit          3D

 19 20  0  0  0  0  0  0  0  0999 V2000
    1.1787   -8.0297    3.5154 C   0  0  0  0  0  0  0  0  0  0  0  0
    1.0491   -6.8434    2.9820 C   0  0  0  0  0  0  0  0  0  0  0  0
    0.0950   -8.8404    3.2292 C   0  0  0  0  0  0  0  0  0  0  0  0
   -0.9173   -8.4596    2.5152 C   0  0  0  0  0  0  0  0  0  0  0  0
   -1.0331   -7.2162    2.0653 C   0  0  0  0  0  0  0  0  0  0  0  0
   -0.0105   -6.3168    2.3081 C   0  0  0  0  0  0  0  0  0  0  0  0
    0.2231   -5.1198    1.8180 C   0  0  0  0  0  0  0  0  0  0  0  0
   -0.5488   -4.1535    1.9675 N   0  0  0  0  0  0  0  0  0  0  0  0
    0.1564  -10.2890    3.7065 C   0  0  0  0  0  0  0  0  0  0  0  0
   -1.0864  -10.9477    3.8418 C   0  0  0  0  0  0  0  0  0  0  0  0
    1.2755  -10.7346    4.5450 C   0  0  0  0  0  0  0  0  0  0  0  0
    1.3888  -12.0842    4.6473 C   0  0  0  0  0  0  0  0  0  0  0  0
   -0.9662  -12.3245    4.0580 C   0  0  0  0  0  0  0  0  0  0  0  0
    0.3438  -12.8790    4.3802 C   0  0  0  0  0  0  0  0  0  0  0  0
   -1.5864   -4.0959    2.0936 C   0  0  0  0  0  0  0  0  0  0  0  0
   -2.3561   -3.4599    2.4338 C   0  0  0  0  0  0  0  0  0  0  0  0
    1.3763   -4.9650    0.8694 O   0  0  0  0  0  0  0  0  0  0  0  0
   -1.9504   -2.1176    2.8553 C   0  0  0  0  0  0  0  0  0  0  0  0
   -0.5632   -2.2063    2.8491 C   0  0  0  0  0  0  0  0  0  0  0  0
  6  7  1  0
  7  8  1  0
  3  9  1  0
  8 15  2  3
 15 16  1  0
  7 17  2  0
 16 18  2  3
 18 19  1  0
  9 10  2  0
 10 13  1  0
 13 14  2  0
 12 14  1  0
 11 12  2  0
  9 11  1  0
  1  2  2  0
  2  6  1  0
  5  6  2  0
  4  5  1  0
  3  4  2  0
  1  3  1  0
M  END

$$$$
No_4247-/export/home/yangzhenyu/potential_scad_32_flow//YTHDC2/2024-12-06-03-22-00/
     RDKit          3D

 18 19  0  0  1  0  0  0  0  0999 V2000
    1.1787   -8.0297    3.5154 C   0  0  0  0  0  0  0  0  0  0  0  0
    1.1048   -9.2215    3.2892 C   0  0  0  0  0  0  0  0  0  0  0  0
    1.3627  -10.1721    4.3044 C   0  0  0  0  0  0  0  0  0  0  0  0
    1.0682  -11.5187    4.0618 C   0  0  0  0  0  0  0  0  0  0  0  0
    0.6332  -11.9655    2.9682 C   0  0  1  0  0  0  0  0  0  0  0  0
    0.4776  -11.1308    1.9203 C   0  0  0  0  0  0  0  0  0  0  0  0
    0.7470   -9.8274    2.0368 C   0  0  0  0  0  0  0  0  0  0  0  0
    1.8805   -7.1616    3.5538 C   0  0  0  0  0  0  0  0  0  0  0  0
    0.3661  -13.4265    2.7867 C   0  0  0  0  0  0  0  0  0  0  0  0
   -0.7765  -13.9095    2.4152 C   0  0  0  0  0  0  0  0  0  0  0  0
   -0.8801  -15.3436    2.3271 C   0  0  0  0  0  0  0  0  0  0  0  0
    0.2279  -16.1799    2.6084 C   0  0  0  0  0  0  0  0  0  0  0  0
    1.4263  -15.6152    2.9103 C   0  0  0  0  0  0  0  0  0  0  0  0
    1.5998  -14.2312    3.0892 C   0  0  0  0  0  0  0  0  0  0  0  0
    0.7662   -9.0676    0.9403 O   0  0  0  0  0  0  0  0  0  0  0  0
    2.5206  -16.3567    2.7793 O   0  0  0  0  0  0  0  0  0  0  0  0
    1.4393   -5.7365    3.2703 C   0  0  0  0  0  0  0  0  0  0  0  0
    1.1475   -5.4152    1.9158 C   0  0  0  0  0  0  0  0  0  0  0  0
  1  2  1  0
  2  3  1  0
  4  5  1  0
  2  7  1  0
  6  7  1  0
  1  8  2  3
  5  9  1  6
 10 11  1  0
 12 13  1  0
  9 14  1  0
 13 14  1  0
  7 15  2  0
 13 16  2  0
  8 17  1  0
 17 18  1  0
  3  4  1  0
  5  6  1  0
 11 12  1  0
  9 10  1  0
M  END

$$$$
No_4248-/export/home/yangzhenyu/potential_scad_32_flow//YTHDC2/2024-12-06-03-22-00/
     RDKit          3D

 19 21  0  0  1  0  0  0  0  0999 V2000
    1.1787   -8.0297    3.5154 C   0  0  0  0  0  0  0  0  0  0  0  0
    1.1048   -9.2215    3.2892 C   0  0  0  0  0  0  0  0  0  0  0  0
    1.2339   -9.7611    2.0189 C   0  0  0  0  0  0  0  0  0  0  0  0
    1.1954  -11.2312    1.8661 C   0  0  0  0  0  0  0  0  0  0  0  0
    1.5546  -12.1691    2.7931 C   0  0  0  0  0  0  0  0  0  0  0  0
    0.9527   -7.0669    2.3918 C   0  0  0  0  0  0  0  0  0  0  0  0
    1.0618   -7.6392    1.0692 C   0  0  0  0  0  0  0  0  0  0  0  0
    1.2060   -8.9530    0.8578 C   0  0  0  0  0  0  0  0  0  0  0  0
    0.8228  -13.3051    2.8966 C   0  0  0  0  0  0  0  0  0  0  0  0
    0.6943  -14.0548    1.7228 C   0  0  2  0  0  0  0  0  0  0  0  0
    0.3598  -13.1506    0.6089 C   0  0  2  0  0  0  0  0  0  0  0  0
   -0.0267  -13.7718   -0.4190 C   0  0  0  0  0  0  0  0  0  0  0  0
   -0.2117  -15.1907   -0.4444 C   0  0  0  0  0  0  0  0  0  0  0  0
    0.0001  -15.9559    0.5801 C   0  0  0  0  0  0  0  0  0  0  0  0
    0.4071  -15.3786    1.8000 C   0  0  0  0  0  0  0  0  0  0  0  0
    0.9785   -5.4269    2.4543 C   0  0  0  0  0  0  0  0  0  0  0  0
    0.7122  -11.8396    0.7126 C   0  0  0  0  0  0  0  0  0  0  0  0
    0.4246  -15.9234    2.8568 O   0  0  0  0  0  0  0  0  0  0  0  0
    0.3427   -4.8713    1.5960 O   0  0  0  0  0  0  0  0  0  0  0  0
  3  4  1  0
  4  5  1  0
  5  9  1  0
 10  9  1  1
 10 11  1  0
 12 13  1  0
 10 15  1  0
 14 15  1  0
  6 16  1  0
  4 17  1  0
 11 17  1  6
 15 18  2  0
 16 19  2  0
 11 12  1  0
 13 14  1  0
  1  2  2  0
  2  3  1  0
  3  8  2  0
  7  8  1  0
  6  7  2  0
  1  6  1  0
M  END

$$$$
No_4249-/export/home/yangzhenyu/potential_scad_32_flow//YTHDC2/2024-12-06-03-22-00/
     RDKit          3D

 19 20  0  0  0  0  0  0  0  0999 V2000
    1.1787   -8.0297    3.5154 C   0  0  0  0  0  0  0  0  0  0  0  0
    1.0491   -6.8434    2.9820 C   0  0  0  0  0  0  0  0  0  0  0  0
    0.9905   -9.0774    2.6527 C   0  0  0  0  0  0  0  0  0  0  0  0
    0.7897   -8.9519    1.3691 C   0  0  0  0  0  0  0  0  0  0  0  0
    0.7018   -7.7198    0.7892 C   0  0  0  0  0  0  0  0  0  0  0  0
    0.8918   -6.5957    1.6117 C   0  0  0  0  0  0  0  0  0  0  0  0
    1.0711  -10.4814    3.2282 C   0  0  0  0  0  0  0  0  0  0  0  0
   -0.1055  -11.1328    3.5223 C   0  0  0  0  0  0  0  0  0  0  0  0
   -0.1824  -12.4513    3.3816 C   0  0  0  0  0  0  0  0  0  0  0  0
    0.9472  -13.2655    3.1726 C   0  0  0  0  0  0  0  0  0  0  0  0
    2.1715  -12.6012    2.9116 C   0  0  0  0  0  0  0  0  0  0  0  0
    2.2064  -11.2741    2.8264 C   0  0  0  0  0  0  0  0  0  0  0  0
    0.9212  -14.7926    3.2458 C   0  0  0  0  0  0  0  0  0  0  0  0
   -0.0094  -15.4226    3.6096 C   0  0  0  0  0  0  0  0  0  0  0  0
    2.1093  -15.3697    2.8224 C   0  0  0  0  0  0  0  0  0  0  0  0
    2.0608  -16.8131    2.9165 C   0  0  0  0  0  0  0  0  0  0  0  0
    3.4927  -17.3943    2.4222 C   0  0  0  0  0  0  0  0  0  0  0  0
    0.8439   -5.2743    1.1128 Cl  0  0  0  0  0  0  0  0  0  0  0  0
   -0.0104  -16.8576    3.6419 C   0  0  0  0  0  0  0  0  0  0  0  0
  3  7  1  0
 10 13  1  0
 13 14  1  0
 13 15  1  0
 15 16  2  3
 16 17  1  0
  6 18  1  0
 14 19  2  0
  1  2  2  0
  2  6  1  0
  5  6  2  0
  4  5  1  0
  3  4  2  0
  1  3  1  0
  7  8  2  0
  8  9  1  0
  9 10  2  0
 10 11  1  0
 11 12  2  0
  7 12  1  0
M  END

$$$$
No_4250-/export/home/yangzhenyu/potential_scad_32_flow//YTHDC2/2024-12-06-03-22-00/
     RDKit          3D

 19 19  0  0  0  0  0  0  0  0999 V2000
    1.1787   -8.0297    3.5154 C   0  0  0  0  0  0  0  0  0  0  0  0
    1.1048   -9.2215    3.2892 C   0  0  0  0  0  0  0  0  0  0  0  0
    1.3627  -10.1721    4.3044 C   0  0  0  0  0  0  0  0  0  0  0  0
    1.0682  -11.5187    4.0618 C   0  0  0  0  0  0  0  0  0  0  0  0
    0.7653  -11.7320    2.7387 C   0  0  0  0  0  0  0  0  0  0  0  0
    0.5661  -10.9730    1.8367 C   0  0  0  0  0  0  0  0  0  0  0  0
    0.7745   -9.6758    2.0361 C   0  0  0  0  0  0  0  0  0  0  0  0
    2.1923   -7.2179    3.1744 N   0  0  0  0  0  0  0  0  0  0  0  0
    0.6917   -8.7103    1.0496 C   0  0  0  0  0  0  0  0  0  0  0  0
    1.8756   -8.5442    0.1988 C   0  0  0  0  0  0  0  0  0  0  0  0
    2.2394   -9.1477   -0.8210 O   0  0  0  0  0  0  0  0  0  0  0  0
    2.5598   -7.3400    0.2548 O   0  0  0  0  0  0  0  0  0  0  0  0
    0.5149  -13.2813    2.4557 C   0  0  0  0  0  0  0  0  0  0  0  0
    0.9472  -13.8506    1.7050 C   0  0  0  0  0  0  0  0  0  0  0  0
    0.9033  -15.2907    1.4548 Cl  0  0  0  0  0  0  0  0  0  0  0  0
    1.8849  -13.2093    0.5420 O   0  0  0  0  0  0  0  0  0  0  0  0
    0.0784   -7.3506    3.9120 O   0  0  0  0  0  0  0  0  0  0  0  0
   -0.3575  -13.9758    3.3242 O   0  0  0  0  0  0  0  0  0  0  0  0
    2.0740   -5.8452    3.4047 C   0  0  0  0  0  0  0  0  0  0  0  0
  1  2  1  0
  1  8  1  0
  7  9  1  0
  9 10  1  0
 10 11  2  0
 10 12  1  0
  5 13  1  0
 13 14  2  3
 14 15  1  0
 14 16  1  0
  1 17  2  0
 13 18  1  0
  8 19  1  0
  2  3  2  0
  3  4  1  0
  4  5  2  0
  5  6  1  0
  6  7  2  0
  2  7  1  0
M  END

$$$$
No_4251-/export/home/yangzhenyu/potential_scad_32_flow//YTHDC2/2024-12-06-03-22-00/
     RDKit          3D

 18 18  0  0  1  0  0  0  0  0999 V2000
    1.1787   -8.0297    3.5154 Cl  0  0  0  0  0  0  0  0  0  0  0  0
    0.6986   -7.2038    2.6409 C   0  0  1  0  0  0  0  0  0  0  0  0
    0.4102   -5.8836    2.8581 C   0  0  1  0  0  0  0  0  0  0  0  0
    1.4283   -4.9605    3.0639 C   0  0  0  0  0  0  0  0  0  0  0  0
    0.6554   -7.6184    1.2437 C   0  0  0  0  0  0  0  0  0  0  0  0
    1.5726   -8.2895    0.6008 C   0  0  0  0  0  0  0  0  0  0  0  0
    1.9487   -9.3869    0.8350 C   0  0  0  0  0  0  0  0  0  0  0  0
    1.2920  -10.3770    1.1168 O   0  0  0  0  0  0  0  0  0  0  0  0
    3.2404   -9.8361    0.9264 O   0  0  0  0  0  0  0  0  0  0  0  0
    1.0059   -3.5532    3.0865 O   0  0  0  0  0  0  0  0  0  0  0  0
    0.8523   -3.0248    4.0494 C   0  0  0  0  0  0  0  0  0  0  0  0
    2.1662   -7.6650   -0.4145 O   0  0  0  0  0  0  0  0  0  0  0  0
   -0.7977   -5.3857    2.7406 C   0  0  0  0  0  0  0  0  0  0  0  0
   -1.9135   -6.1995    3.1334 C   0  0  0  0  0  0  0  0  0  0  0  0
   -3.0517   -5.6749    3.3165 C   0  0  0  0  0  0  0  0  0  0  0  0
   -3.2659   -4.2889    3.1359 C   0  0  0  0  0  0  0  0  0  0  0  0
   -2.3235   -3.4637    2.7551 C   0  0  0  0  0  0  0  0  0  0  0  0
   -1.0073   -4.0190    2.5609 C   0  0  0  0  0  0  0  0  0  0  0  0
  2  1  1  6
  2  3  1  0
  3  4  1  6
  2  5  1  0
  5  6  1  0
  6  7  1  0
  7  8  2  0
  7  9  1  0
  4 10  1  0
 10 11  1  0
  6 12  2  0
  3 13  1  0
 13 14  2  0
 14 15  1  0
 15 16  2  0
 16 17  1  0
 17 18  2  0
 13 18  1  0
M  END

$$$$
No_4252-/export/home/yangzhenyu/potential_scad_32_flow//YTHDC2/2024-12-06-03-22-00/
     RDKit          3D

 17 17  0  0  0  0  0  0  0  0999 V2000
    1.1787   -8.0297    3.5154 N   0  0  0  0  0  0  0  0  0  0  0  0
    0.8669   -7.0905    2.8589 C   0  0  0  0  0  0  0  0  0  0  0  0
    1.0447   -7.3244    1.4123 C   0  0  0  0  0  0  0  0  0  0  0  0
    1.3746   -8.4389    1.0864 C   0  0  0  0  0  0  0  0  0  0  0  0
    1.8493   -9.4093    1.8124 C   0  0  0  0  0  0  0  0  0  0  0  0
    1.7421   -9.2119    3.1541 C   0  0  0  0  0  0  0  0  0  0  0  0
    2.0608  -10.3132    4.0586 N   0  0  0  0  0  0  0  0  0  0  0  0
    1.7502   -8.6763   -0.3755 C   0  0  0  0  0  0  0  0  0  0  0  0
    2.6585   -9.4105   -0.8650 O   0  0  0  0  0  0  0  0  0  0  0  0
    0.8743   -8.3283   -1.2922 O   0  0  0  0  0  0  0  0  0  0  0  0
    1.8423  -11.5070    3.7370 C   0  0  0  0  0  0  0  0  0  0  0  0
    0.5458  -12.0561    3.6879 N   0  0  0  0  0  0  0  0  0  0  0  0
    0.4045  -13.3104    3.2341 C   0  0  0  0  0  0  0  0  0  0  0  0
    1.6584  -13.9652    2.8525 C   0  0  0  0  0  0  0  0  0  0  0  0
    1.6849  -15.3019    2.2160 C   0  0  0  0  0  0  0  0  0  0  0  0
    2.9404  -15.7847    1.9633 C   0  0  0  0  0  0  0  0  0  0  0  0
    0.5737  -15.8967    1.9448 C   0  0  0  0  0  0  0  0  0  0  0  0
  4  8  1  0
  8  9  2  0
  8 10  1  0
  7 11  1  0
 11 12  1  0
 12 13  2  3
 13 14  1  0
 14 15  1  0
 15 16  1  0
 15 17  1  0
  6  7  1  0
  1  2  2  0
  2  3  1  0
  3  4  2  0
  4  5  1  0
  5  6  2  0
  1  6  1  0
M  END

$$$$
No_4253-/export/home/yangzhenyu/potential_scad_32_flow//YTHDC2/2024-12-06-03-22-00/
     RDKit          3D

 17 17  0  0  1  0  0  0  0  0999 V2000
    1.1787   -8.0297    3.5154 C   0  0  0  0  0  0  0  0  0  0  0  0
    1.0491   -6.8434    2.9820 C   0  0  0  0  0  0  0  0  0  0  0  0
    0.9905   -9.0774    2.6527 C   0  0  0  0  0  0  0  0  0  0  0  0
    0.7897   -8.9519    1.3691 C   0  0  0  0  0  0  0  0  0  0  0  0
    0.7018   -7.7198    0.7892 C   0  0  0  0  0  0  0  0  0  0  0  0
    0.8918   -6.5957    1.6117 C   0  0  0  0  0  0  0  0  0  0  0  0
    1.0998  -10.4710    3.2437 C   0  0  1  0  0  0  0  0  0  0  0  0
    2.1917  -10.8879    3.7399 C   0  0  0  0  0  0  0  0  0  0  0  0
    0.8983   -5.2566    1.2088 C   0  0  0  0  0  0  0  0  0  0  0  0
   -0.0775  -10.6645    4.2505 C   0  0  0  0  0  0  0  0  0  0  0  0
   -0.1969   -4.7345    0.7483 O   0  0  0  0  0  0  0  0  0  0  0  0
    1.7800   -4.3407    1.6608 O   0  0  0  0  0  0  0  0  0  0  0  0
    2.3654  -12.2114    4.0323 C   0  0  0  0  0  0  0  0  0  0  0  0
   -1.3035  -10.1310    3.7482 C   0  0  0  0  0  0  0  0  0  0  0  0
   -1.9688   -9.2616    4.4987 C   0  0  0  0  0  0  0  0  0  0  0  0
   -1.3669   -8.2916    5.0722 O   0  0  0  0  0  0  0  0  0  0  0  0
   -3.2796   -9.3172    4.5920 O   0  0  0  0  0  0  0  0  0  0  0  0
  3  7  1  0
  7  8  1  0
  6  9  1  0
  7 10  1  1
  9 11  2  0
  9 12  1  0
  8 13  2  0
 10 14  1  0
 14 15  1  0
 15 16  2  0
 15 17  1  0
  1  2  2  0
  2  6  1  0
  5  6  2  0
  4  5  1  0
  3  4  2  0
  1  3  1  0
M  END

$$$$
No_4254-/export/home/yangzhenyu/potential_scad_32_flow//YTHDC2/2024-12-06-03-22-00/
     RDKit          3D

 18 19  0  0  0  0  0  0  0  0999 V2000
    1.1787   -8.0297    3.5154 C   0  0  0  0  0  0  0  0  0  0  0  0
    1.0491   -6.8434    2.9820 C   0  0  0  0  0  0  0  0  0  0  0  0
    0.9905   -9.0774    2.6527 C   0  0  0  0  0  0  0  0  0  0  0  0
    0.7897   -8.9519    1.3691 C   0  0  0  0  0  0  0  0  0  0  0  0
    0.7018   -7.7198    0.7892 C   0  0  0  0  0  0  0  0  0  0  0  0
    0.8918   -6.5957    1.6117 C   0  0  0  0  0  0  0  0  0  0  0  0
    1.0711  -10.4814    3.2282 C   0  0  0  0  0  0  0  0  0  0  0  0
    1.1227  -11.5770    2.4616 C   0  0  0  0  0  0  0  0  0  0  0  0
    1.1500  -12.9052    3.0782 C   0  0  0  0  0  0  0  0  0  0  0  0
    1.8689  -13.5339    3.4230 C   0  0  0  0  0  0  0  0  0  0  0  0
    1.8363  -14.9944    3.5816 N   0  0  0  0  0  0  0  0  0  0  0  0
    0.7883  -15.4810    3.0849 C   0  0  0  0  0  0  0  0  0  0  0  0
   -0.1721  -14.9404    2.5373 C   0  0  0  0  0  0  0  0  0  0  0  0
   -0.0892  -13.5352    2.4312 C   0  0  0  0  0  0  0  0  0  0  0  0
    0.8408   -5.2758    1.1541 Cl  0  0  0  0  0  0  0  0  0  0  0  0
    0.6489  -17.1093    3.1356 C   0  0  0  0  0  0  0  0  0  0  0  0
   -1.3701  -15.5051    2.0382 C   0  0  0  0  0  0  0  0  0  0  0  0
   -1.1549  -16.2533    0.8889 C   0  0  0  0  0  0  0  0  0  0  0  0
  3  7  1  0
  7  8  2  3
  8  9  1  0
  6 15  1  0
 12 16  1  0
 13 17  1  0
 17 18  1  0
  1  2  2  0
  2  6  1  0
  5  6  2  0
  4  5  1  0
  3  4  2  0
  1  3  1  0
  9 10  2  0
 10 11  1  0
 11 12  2  0
 12 13  1  0
 13 14  2  0
  9 14  1  0
M  END

$$$$
No_4255-/export/home/yangzhenyu/potential_scad_32_flow//YTHDC2/2024-12-06-03-22-00/
     RDKit          3D

 17 17  0  0  1  0  0  0  0  0999 V2000
    1.1787   -8.0297    3.5154 C   0  0  2  0  0  0  0  0  0  0  0  0
    1.0491   -6.8434    2.9820 C   0  0  0  0  0  0  0  0  0  0  0  0
    0.9905   -9.0774    2.6527 F   0  0  0  0  0  0  0  0  0  0  0  0
    0.9730   -6.7725    1.5676 C   0  0  0  0  0  0  0  0  0  0  0  0
    1.5794   -7.5375    0.8575 C   0  0  0  0  0  0  0  0  0  0  0  0
    1.2530   -8.5124    0.3666 C   0  0  1  0  0  0  0  0  0  0  0  0
    0.0348   -8.8430    0.2921 C   0  0  0  0  0  0  0  0  0  0  0  0
   -0.3014  -10.2842    0.0088 C   0  0  0  0  0  0  0  0  0  0  0  0
   -1.4416  -10.7215   -0.4072 C   0  0  0  0  0  0  0  0  0  0  0  0
   -2.4423   -9.8561   -0.6314 C   0  0  0  0  0  0  0  0  0  0  0  0
   -2.2384   -8.4658   -0.5319 C   0  0  0  0  0  0  0  0  0  0  0  0
   -0.9938   -7.9878   -0.0426 C   0  0  0  0  0  0  0  0  0  0  0  0
    2.1280   -9.0169   -0.6415 C   0  0  0  0  0  0  0  0  0  0  0  0
    2.9316  -10.0573   -0.3009 N   0  0  0  0  0  0  0  0  0  0  0  0
    2.2874   -8.6127   -1.7788 O   0  0  0  0  0  0  0  0  0  0  0  0
    0.5787   -8.4165    4.5073 Cl  0  0  0  0  0  0  0  0  0  0  0  0
   -3.6217  -10.3162   -1.1582 F   0  0  0  0  0  0  0  0  0  0  0  0
  1  2  1  0
  1  3  1  6
  2  4  1  0
  4  5  1  0
  6  5  1  6
  6  7  1  0
  6 13  1  0
 13 14  1  0
 13 15  2  0
  1 16  1  0
 10 17  1  0
  7  8  2  0
  8  9  1  0
  9 10  2  0
 10 11  1  0
 11 12  2  0
  7 12  1  0
M  END

$$$$
No_4256-/export/home/yangzhenyu/potential_scad_32_flow//YTHDC2/2024-12-06-03-22-00/
     RDKit          3D

 19 20  0  0  0  0  0  0  0  0999 V2000
    1.1787   -8.0297    3.5154 C   0  0  0  0  0  0  0  0  0  0  0  0
    1.0491   -6.8434    2.9820 C   0  0  0  0  0  0  0  0  0  0  0  0
    0.9905   -9.0774    2.6527 C   0  0  0  0  0  0  0  0  0  0  0  0
    0.7897   -8.9519    1.3691 N   0  0  0  0  0  0  0  0  0  0  0  0
    0.8618   -6.5727    1.6755 C   0  0  0  0  0  0  0  0  0  0  0  0
    0.7085   -5.1683    1.1636 C   0  0  0  0  0  0  0  0  0  0  0  0
    0.6729   -7.6754    0.8404 C   0  0  0  0  0  0  0  0  0  0  0  0
    1.1459  -10.5334    3.0355 C   0  0  0  0  0  0  0  0  0  0  0  0
    2.0756  -10.8375    3.7897 C   0  0  0  0  0  0  0  0  0  0  0  0
    2.1483  -12.2201    4.2366 C   0  0  0  0  0  0  0  0  0  0  0  0
    1.4558  -13.1351    3.6082 C   0  0  0  0  0  0  0  0  0  0  0  0
    0.4456  -12.8088    2.8145 C   0  0  0  0  0  0  0  0  0  0  0  0
    0.3524  -11.4351    2.4006 C   0  0  0  0  0  0  0  0  0  0  0  0
    1.5515   -4.2565    1.6343 C   0  0  0  0  0  0  0  0  0  0  0  0
    1.4397   -2.9153    1.3351 C   0  0  0  0  0  0  0  0  0  0  0  0
    0.4864   -7.5835   -0.4171 C   0  0  0  0  0  0  0  0  0  0  0  0
   -0.0109   -8.4348   -1.1734 O   0  0  0  0  0  0  0  0  0  0  0  0
   -0.3552  -13.6886    2.0962 C   0  0  0  0  0  0  0  0  0  0  0  0
   -1.3500  -13.1841    1.4244 C   0  0  0  0  0  0  0  0  0  0  0  0
  5  6  1  0
  3  8  1  0
  6 14  2  3
 14 15  1  0
  7 16  1  0
 16 17  2  0
 12 18  1  0
 18 19  2  0
  8  9  2  0
  9 10  1  0
 10 11  2  0
 11 12  1  0
 12 13  2  0
  8 13  1  0
  1  2  2  0
  2  5  1  0
  5  7  2  0
  4  7  1  0
  3  4  2  0
  1  3  1  0
M  END

$$$$
No_4257-/export/home/yangzhenyu/potential_scad_32_flow//YTHDC2/2024-12-06-03-22-00/
     RDKit          3D

 18 20  0  0  0  0  0  0  0  0999 V2000
    1.1787   -8.0297    3.5154 C   0  0  0  0  0  0  0  0  0  0  0  0
    1.0491   -6.8434    2.9820 C   0  0  0  0  0  0  0  0  0  0  0  0
    0.9905   -9.0774    2.6527 C   0  0  0  0  0  0  0  0  0  0  0  0
    1.1655  -10.4663    3.1286 C   0  0  0  0  0  0  0  0  0  0  0  0
    1.2197  -11.4898    2.5831 C   0  0  0  0  0  0  0  0  0  0  0  0
    1.0589  -11.4458    1.1293 C   0  0  0  0  0  0  0  0  0  0  0  0
    0.9638  -10.3069    0.4651 C   0  0  0  0  0  0  0  0  0  0  0  0
    0.9191   -9.0789    1.1942 C   0  0  0  0  0  0  0  0  0  0  0  0
    0.9198   -7.8339    0.6158 C   0  0  0  0  0  0  0  0  0  0  0  0
    1.0184   -6.6904    1.4953 C   0  0  0  0  0  0  0  0  0  0  0  0
    1.3836  -13.0393    3.2033 N   0  0  0  0  0  0  0  0  0  0  0  0
    1.3039  -14.0455    2.3888 C   0  0  0  0  0  0  0  0  0  0  0  0
    2.4872  -14.3669    1.7303 C   0  0  0  0  0  0  0  0  0  0  0  0
    0.3499  -14.9811    2.5458 C   0  0  0  0  0  0  0  0  0  0  0  0
    0.3953  -16.0548    1.9959 C   0  0  0  0  0  0  0  0  0  0  0  0
    1.5980  -16.5162    1.3425 C   0  0  0  0  0  0  0  0  0  0  0  0
    2.5471  -15.6319    1.1816 C   0  0  0  0  0  0  0  0  0  0  0  0
    1.3900   -5.5927    3.6141 Cl  0  0  0  0  0  0  0  0  0  0  0  0
  5 11  1  0
 11 12  1  0
  2 18  1  0
 12 13  2  0
 13 17  1  0
 16 17  2  0
 15 16  1  0
 14 15  2  0
 12 14  1  0
  1  2  2  0
  2 10  1  0
  9 10  2  0
  8  9  1  0
  1  3  1  0
  3  4  2  0
  4  5  1  0
  5  6  2  0
  6  7  1  0
  7  8  2  0
  3  8  1  0
M  END

$$$$
No_4258-/export/home/yangzhenyu/potential_scad_32_flow//YTHDC2/2024-12-06-03-22-00/
     RDKit          3D

 18 20  0  0  0  0  0  0  0  0999 V2000
    1.1787   -8.0297    3.5154 C   0  0  0  0  0  0  0  0  0  0  0  0
    1.1048   -9.2215    3.2892 C   0  0  0  0  0  0  0  0  0  0  0  0
    1.2339   -9.7611    2.0189 C   0  0  0  0  0  0  0  0  0  0  0  0
    1.1954  -11.2312    1.8661 C   0  0  0  0  0  0  0  0  0  0  0  0
    1.5546  -12.1691    2.7931 C   0  0  0  0  0  0  0  0  0  0  0  0
    0.9527   -7.0669    2.3918 C   0  0  0  0  0  0  0  0  0  0  0  0
    1.0618   -7.6392    1.0692 C   0  0  0  0  0  0  0  0  0  0  0  0
    1.2060   -8.9530    0.8578 C   0  0  0  0  0  0  0  0  0  0  0  0
    1.5159  -13.5011    2.3738 C   0  0  0  0  0  0  0  0  0  0  0  0
    1.1409  -13.8990    1.1908 C   0  0  0  0  0  0  0  0  0  0  0  0
    0.9249  -13.0546    0.2183 C   0  0  0  0  0  0  0  0  0  0  0  0
    0.9227  -11.6707    0.5316 C   0  0  0  0  0  0  0  0  0  0  0  0
    1.0078   -5.6071    2.4628 C   0  0  0  0  0  0  0  0  0  0  0  0
    1.4830   -9.3509   -0.3550 C   0  0  0  0  0  0  0  0  0  0  0  0
    1.0752  -10.8008   -0.5724 N   0  0  0  0  0  0  0  0  0  0  0  0
    1.4632   -8.7687   -1.4325 O   0  0  0  0  0  0  0  0  0  0  0  0
    1.7662  -14.4547    3.4479 Cl  0  0  0  0  0  0  0  0  0  0  0  0
    1.8018   -5.0992    3.4736 C   0  0  0  0  0  0  0  0  0  0  0  0
  3  4  1  0
  6 13  1  0
  8 14  1  0
 12 15  1  0
 14 15  1  0
 14 16  2  0
  9 17  1  0
 13 18  2  0
  1  2  2  0
  2  3  1  0
  3  8  2  0
  7  8  1  0
  6  7  2  0
  1  6  1  0
  4  5  2  0
  5  9  1  0
  9 10  2  0
 10 11  1  0
 11 12  2  0
  4 12  1  0
M  END

$$$$
No_4259-/export/home/yangzhenyu/potential_scad_32_flow//YTHDC2/2024-12-06-03-22-00/
     RDKit          3D

 16 17  0  0  0  0  0  0  0  0999 V2000
    1.1787   -8.0297    3.5154 C   0  0  0  0  0  0  0  0  0  0  0  0
    1.0491   -6.8434    2.9820 C   0  0  0  0  0  0  0  0  0  0  0  0
    0.9905   -9.0774    2.6527 C   0  0  0  0  0  0  0  0  0  0  0  0
    0.7897   -8.9519    1.3691 C   0  0  0  0  0  0  0  0  0  0  0  0
    0.7018   -7.7198    0.7892 C   0  0  0  0  0  0  0  0  0  0  0  0
    0.8918   -6.5957    1.6117 C   0  0  0  0  0  0  0  0  0  0  0  0
    1.0711  -10.4814    3.2282 C   0  0  0  0  0  0  0  0  0  0  0  0
   -0.1055  -11.1328    3.5223 C   0  0  0  0  0  0  0  0  0  0  0  0
   -0.1824  -12.4513    3.3816 C   0  0  0  0  0  0  0  0  0  0  0  0
    0.9472  -13.2655    3.1726 C   0  0  0  0  0  0  0  0  0  0  0  0
    2.1715  -12.6012    2.9116 C   0  0  0  0  0  0  0  0  0  0  0  0
    2.2064  -11.2741    2.8264 C   0  0  0  0  0  0  0  0  0  0  0  0
    0.8996  -14.6381    3.2447 C   0  0  0  0  0  0  0  0  0  0  0  0
    1.9200  -15.4182    2.8055 C   0  0  0  0  0  0  0  0  0  0  0  0
    1.8046  -16.8255    2.9268 C   0  0  0  0  0  0  0  0  0  0  0  0
    2.9719  -17.6073    2.5313 C   0  0  0  0  0  0  0  0  0  0  0  0
  3  7  1  0
 10 13  1  0
 13 14  2  3
 14 15  1  0
 15 16  1  0
  1  2  2  0
  2  6  1  0
  5  6  2  0
  4  5  1  0
  3  4  2  0
  1  3  1  0
  7  8  2  0
  8  9  1  0
  9 10  2  0
 10 11  1  0
 11 12  2  0
  7 12  1  0
M  END

$$$$
No_4260-/export/home/yangzhenyu/potential_scad_32_flow//YTHDC2/2024-12-06-03-22-00/
     RDKit          3D

 19 19  0  0  1  0  0  0  0  0999 V2000
    1.1787   -8.0297    3.5154 N   0  0  0  0  0  0  0  0  0  0  0  0
    0.8669   -7.0905    2.8589 C   0  0  0  0  0  0  0  0  0  0  0  0
    1.0447   -7.3244    1.4123 C   0  0  0  0  0  0  0  0  0  0  0  0
    1.3746   -8.4389    1.0864 C   0  0  2  0  0  0  0  0  0  0  0  0
    1.8493   -9.4093    1.8124 Cl  0  0  0  0  0  0  0  0  0  0  0  0
    1.7482   -8.5794   -0.4465 C   0  0  0  0  0  0  0  0  0  0  0  0
    2.6045   -9.3863   -0.9272 O   0  0  0  0  0  0  0  0  0  0  0  0
    0.7800   -8.3006   -1.2170 O   0  0  0  0  0  0  0  0  0  0  0  0
    0.4836   -5.7317    3.1878 C   0  0  0  0  0  0  0  0  0  0  0  0
    0.5464   -4.7149    2.5637 C   0  0  2  0  0  0  0  0  0  0  0  0
    1.3805   -4.5240    1.5091 C   0  0  0  0  0  0  0  0  0  0  0  0
    0.1239   -3.3855    3.4538 C   0  0  0  0  0  0  0  0  0  0  0  0
    0.5332   -2.2448    2.9924 C   0  0  1  0  0  0  0  0  0  0  0  0
    1.3278   -2.0541    1.8929 C   0  0  0  0  0  0  0  0  0  0  0  0
    1.6376   -3.0505    1.0953 C   0  0  0  0  0  0  0  0  0  0  0  0
    0.8876   -0.9694    1.0260 O   0  0  0  0  0  0  0  0  0  0  0  0
   -0.0394   -1.1831    3.6552 Cl  0  0  0  0  0  0  0  0  0  0  0  0
    0.2968   -8.9137    3.8826 C   0  0  0  0  0  0  0  0  0  0  0  0
    0.6662  -10.1913    4.4926 C   0  0  0  0  0  0  0  0  0  0  0  0
  1  2  1  0
  2  3  2  3
  3  4  1  0
  4  5  1  1
  4  6  1  0
  6  7  1  0
  6  8  2  0
  2  9  1  0
 10 11  1  0
 10 12  1  0
 13 14  1  0
 14 15  1  0
 14 16  2  0
 13 17  1  6
  1 18  1  0
 18 19  1  0
 10  9  1  1
 12 13  1  0
 11 15  1  0
M  END

$$$$
No_4261-/export/home/yangzhenyu/potential_scad_32_flow//YTHDC2/2024-12-06-03-22-00/
     RDKit          3D

 18 18  0  0  0  0  0  0  0  0999 V2000
    1.1787   -8.0297    3.5154 C   0  0  0  0  0  0  0  0  0  0  0  0
    1.1048   -9.2215    3.2892 C   0  0  0  0  0  0  0  0  0  0  0  0
    1.2339   -9.7611    2.0189 C   0  0  0  0  0  0  0  0  0  0  0  0
    1.3583   -9.0036    0.9764 C   0  0  0  0  0  0  0  0  0  0  0  0
    1.5996   -7.6362    1.1311 C   0  0  0  0  0  0  0  0  0  0  0  0
    1.4830   -7.0928    2.3626 C   0  0  0  0  0  0  0  0  0  0  0  0
    1.5395   -5.7300    2.6182 C   0  0  0  0  0  0  0  0  0  0  0  0
    1.1775  -11.2233    1.8407 C   0  0  0  0  0  0  0  0  0  0  0  0
    0.7252  -11.5870    0.5412 O   0  0  0  0  0  0  0  0  0  0  0  0
    2.0095  -12.0297    2.4291 N   0  0  0  0  0  0  0  0  0  0  0  0
    1.5560  -13.3183    2.6484 C   0  0  0  0  0  0  0  0  0  0  0  0
    2.2221  -14.4500    2.0446 C   0  0  0  0  0  0  0  0  0  0  0  0
    1.8996  -15.7496    2.4735 O   0  0  0  0  0  0  0  0  0  0  0  0
    2.6982  -16.7600    2.1662 C   0  0  0  0  0  0  0  0  0  0  0  0
    1.2537   -4.8025    1.7249 O   0  0  0  0  0  0  0  0  0  0  0  0
    1.8230   -5.1760    3.8335 O   0  0  0  0  0  0  0  0  0  0  0  0
    2.9091  -14.2478    1.0244 O   0  0  0  0  0  0  0  0  0  0  0  0
    1.5757   -9.3688   -0.3795 C   0  0  0  0  0  0  0  0  0  0  0  0
  6  7  1  0
  3  8  1  0
  8  9  2  0
  8 10  1  0
 10 11  1  0
 11 12  1  0
 12 13  1  0
 13 14  1  0
  7 15  2  0
  7 16  1  0
 12 17  2  0
  4 18  1  0
  1  2  2  0
  2  3  1  0
  3  4  2  0
  4  5  1  0
  5  6  2  0
  1  6  1  0
M  END

$$$$
No_4262-/export/home/yangzhenyu/potential_scad_32_flow//YTHDC2/2024-12-06-03-22-00/
     RDKit          3D

 19 21  0  0  1  0  0  0  0  0999 V2000
    1.1787   -8.0297    3.5154 C   0  0  0  0  0  0  0  0  0  0  0  0
    1.1048   -9.2215    3.2892 C   0  0  0  0  0  0  0  0  0  0  0  0
    1.3627  -10.1721    4.3044 C   0  0  0  0  0  0  0  0  0  0  0  0
    1.0682  -11.5187    4.0618 C   0  0  0  0  0  0  0  0  0  0  0  0
    0.7653  -11.7320    2.7387 C   0  0  0  0  0  0  0  0  0  0  0  0
    0.7465  -10.3365    2.0821 C   0  0  0  0  0  0  0  0  0  0  0  0
    1.0657   -7.1804    2.2093 C   0  0  0  0  0  0  0  0  0  0  0  0
    1.1068   -5.6316    2.5857 C   0  0  0  0  0  0  0  0  0  0  0  0
    0.4852  -12.6951    2.0196 C   0  0  0  0  0  0  0  0  0  0  0  0
   -0.0309  -12.5646    0.8199 C   0  0  0  0  0  0  0  0  0  0  0  0
    0.1194  -11.3139    0.1250 C   0  0  0  0  0  0  0  0  0  0  0  0
    0.4669  -10.2610    0.8526 C   0  0  0  0  0  0  0  0  0  0  0  0
    0.3641  -14.2163    2.8108 C   0  0  2  0  0  0  0  0  0  0  0  0
    1.6516  -14.7070    3.0593 C   0  0  0  0  0  0  0  0  0  0  0  0
    1.3905  -16.1372    3.3300 C   0  0  0  0  0  0  0  0  0  0  0  0
    0.1214  -16.6438    3.3472 C   0  0  0  0  0  0  0  0  0  0  0  0
   -0.6900  -15.2613    2.8002 C   0  0  0  0  0  0  0  0  0  0  0  0
    0.8546   -4.7200    1.6180 O   0  0  0  0  0  0  0  0  0  0  0  0
    1.6773   -5.1752    3.6050 O   0  0  0  0  0  0  0  0  0  0  0  0
  1  2  1  0
  2  3  1  0
  3  4  2  0
  4  5  1  0
  2  6  1  0
  1  7  2  3
  7  8  1  0
 13  9  1  6
 13 14  1  0
 14 15  2  0
 15 16  1  0
 13 17  1  0
 16 17  1  0
  8 18  2  0
  8 19  1  0
  5  6  2  0
  6 12  1  0
 11 12  2  0
 10 11  1  0
  9 10  2  0
  5  9  1  0
M  END

$$$$
No_4263-/export/home/yangzhenyu/potential_scad_32_flow//YTHDC2/2024-12-06-03-22-00/
     RDKit          3D

 18 20  0  0  0  0  0  0  0  0999 V2000
    1.1787   -8.0297    3.5154 C   0  0  0  0  0  0  0  0  0  0  0  0
    1.0491   -6.8434    2.9820 C   0  0  0  0  0  0  0  0  0  0  0  0
    0.0950   -8.8404    3.2292 C   0  0  0  0  0  0  0  0  0  0  0  0
   -0.9173   -8.4596    2.5152 C   0  0  0  0  0  0  0  0  0  0  0  0
   -1.0331   -7.2162    2.0653 C   0  0  0  0  0  0  0  0  0  0  0  0
   -0.0105   -6.3168    2.3081 C   0  0  0  0  0  0  0  0  0  0  0  0
    0.1465  -10.2446    3.6981 C   0  0  0  0  0  0  0  0  0  0  0  0
    1.2433  -10.8239    4.0166 C   0  0  0  0  0  0  0  0  0  0  0  0
    1.0790  -12.2885    4.3779 C   0  0  0  0  0  0  0  0  0  0  0  0
    0.8834  -12.9822    3.2583 C   0  0  0  0  0  0  0  0  0  0  0  0
    0.0265  -12.5445    2.3035 C   0  0  0  0  0  0  0  0  0  0  0  0
   -0.3716  -13.3434    1.2073 C   0  0  0  0  0  0  0  0  0  0  0  0
   -1.1252  -12.6693    0.2811 C   0  0  0  0  0  0  0  0  0  0  0  0
   -1.5363  -11.4176    0.4308 C   0  0  0  0  0  0  0  0  0  0  0  0
   -1.1222  -10.5938    1.4841 C   0  0  0  0  0  0  0  0  0  0  0  0
   -0.3850  -11.1833    2.4308 C   0  0  0  0  0  0  0  0  0  0  0  0
   -0.0517   -4.9408    1.9460 O   0  0  0  0  0  0  0  0  0  0  0  0
    1.0960  -14.4195    3.2195 C   0  0  0  0  0  0  0  0  0  0  0  0
  3  7  1  0
  6 17  1  0
 10 18  1  0
 11 12  2  0
 12 13  1  0
 13 14  2  0
 14 15  1  0
 15 16  2  0
  1  2  2  0
  2  6  1  0
  5  6  2  0
  4  5  1  0
  3  4  2  0
  1  3  1  0
  7  8  2  0
  8  9  1  0
  9 10  2  0
 10 11  1  0
 11 16  1  0
  7 16  1  0
M  END

$$$$
No_4264-/export/home/yangzhenyu/potential_scad_32_flow//YTHDC2/2024-12-06-03-22-00/
     RDKit          3D

 16 17  0  0  0  0  0  0  0  0999 V2000
    1.1787   -8.0297    3.5154 N   0  0  0  0  0  0  0  0  0  0  0  0
    1.0818   -9.0751    3.2053 C   0  0  0  0  0  0  0  0  0  0  0  0
    0.7576   -9.3725    1.9159 C   0  0  0  0  0  0  0  0  0  0  0  0
    0.8823   -8.4917    1.0547 C   0  0  0  0  0  0  0  0  0  0  0  0
    1.4631   -7.3107    1.2451 C   0  0  0  0  0  0  0  0  0  0  0  0
    1.6470   -6.9326    2.5669 C   0  0  0  0  0  0  0  0  0  0  0  0
    1.0024  -10.2234    4.2810 C   0  0  0  0  0  0  0  0  0  0  0  0
    0.8214  -11.5596    3.6826 C   0  0  0  0  0  0  0  0  0  0  0  0
    0.6406  -11.8466    2.4643 C   0  0  0  0  0  0  0  0  0  0  0  0
    0.6539  -10.7626    1.5385 C   0  0  0  0  0  0  0  0  0  0  0  0
    0.4525  -13.1454    2.0450 C   0  0  0  0  0  0  0  0  0  0  0  0
    1.3290  -14.1399    2.4654 C   0  0  0  0  0  0  0  0  0  0  0  0
    2.4259  -14.5597    1.7963 C   0  0  0  0  0  0  0  0  0  0  0  0
    2.7174  -13.6674    0.8388 C   0  0  0  0  0  0  0  0  0  0  0  0
    1.7231   -5.5838    3.0248 C   0  0  0  0  0  0  0  0  0  0  0  0
    3.1366  -15.6008    1.9511 C   0  0  0  0  0  0  0  0  0  0  0  0
  9 11  1  0
 11 12  1  0
 12 13  1  0
 13 14  1  0
  6 15  1  0
 13 16  1  0
  1  2  2  0
  3  4  2  0
  4  5  1  0
  5  6  2  0
  1  6  1  0
  2  3  1  0
  3 10  1  0
  9 10  2  0
  8  9  1  0
  7  8  2  0
  2  7  1  0
M  END

$$$$
No_4265-/export/home/yangzhenyu/potential_scad_32_flow//YTHDC2/2024-12-06-03-22-00/
     RDKit          3D

 19 21  0  0  0  0  0  0  0  0999 V2000
    1.1787   -8.0297    3.5154 C   0  0  0  0  0  0  0  0  0  0  0  0
    1.1048   -9.2215    3.2892 C   0  0  0  0  0  0  0  0  0  0  0  0
    1.3627  -10.1721    4.3044 C   0  0  0  0  0  0  0  0  0  0  0  0
    1.0682  -11.5187    4.0618 C   0  0  0  0  0  0  0  0  0  0  0  0
    0.6332  -11.9655    2.9682 C   0  0  0  0  0  0  0  0  0  0  0  0
    0.4776  -11.1308    1.9203 C   0  0  0  0  0  0  0  0  0  0  0  0
    0.7470   -9.8274    2.0368 C   0  0  0  0  0  0  0  0  0  0  0  0
    1.0387   -7.0301    2.5175 C   0  0  0  0  0  0  0  0  0  0  0  0
    0.9130   -7.5288    1.2013 C   0  0  0  0  0  0  0  0  0  0  0  0
    0.7893   -8.7980    0.9542 C   0  0  0  0  0  0  0  0  0  0  0  0
    0.3852  -13.5918    2.7030 C   0  0  0  0  0  0  0  0  0  0  0  0
   -0.6308  -13.9568    2.4558 C   0  0  0  0  0  0  0  0  0  0  0  0
    1.6114  -14.3297    2.8466 C   0  0  0  0  0  0  0  0  0  0  0  0
   -0.7789  -15.3090    2.1466 C   0  0  0  0  0  0  0  0  0  0  0  0
    0.2533  -16.2051    2.3104 C   0  0  0  0  0  0  0  0  0  0  0  0
    1.5149  -15.7093    2.6434 C   0  0  0  0  0  0  0  0  0  0  0  0
    0.4313   -9.2852   -0.3584 C   0  0  0  0  0  0  0  0  0  0  0  0
   -0.8838   -9.5267   -0.6193 O   0  0  0  0  0  0  0  0  0  0  0  0
    1.2176   -9.0636   -1.3012 O   0  0  0  0  0  0  0  0  0  0  0  0
  5 11  1  0
 10 17  1  0
 17 18  2  0
 17 19  1  0
  2  3  1  0
  3  4  2  0
  4  5  1  0
  5  6  2  0
  6  7  1  0
 11 12  2  0
 12 14  1  0
 14 15  2  0
 15 16  1  0
 13 16  2  0
 11 13  1  0
  1  2  2  0
  2  7  1  0
  7 10  2  0
  9 10  1  0
  8  9  2  0
  1  8  1  0
M  END

$$$$
No_4266-/export/home/yangzhenyu/potential_scad_32_flow//YTHDC2/2024-12-06-03-22-00/
     RDKit          3D

 18 19  0  0  0  0  0  0  0  0999 V2000
    1.1787   -8.0297    3.5154 C   0  0  0  0  0  0  0  0  0  0  0  0
    1.1048   -9.2215    3.2892 C   0  0  0  0  0  0  0  0  0  0  0  0
    1.3627  -10.1721    4.3044 C   0  0  0  0  0  0  0  0  0  0  0  0
    1.7354  -11.4730    3.9023 C   0  0  0  0  0  0  0  0  0  0  0  0
    1.8080  -11.8127    2.7216 C   0  0  0  0  0  0  0  0  0  0  0  0
    1.5854  -11.0021    1.7249 C   0  0  0  0  0  0  0  0  0  0  0  0
    1.7690  -11.5851    0.3632 C   0  0  0  0  0  0  0  0  0  0  0  0
    1.3152   -9.6753    1.9048 C   0  0  0  0  0  0  0  0  0  0  0  0
    1.1580   -8.8186    0.9568 C   0  0  0  0  0  0  0  0  0  0  0  0
    2.3172   -8.3652    0.2281 O   0  0  0  0  0  0  0  0  0  0  0  0
    0.0981   -8.2766    0.5275 O   0  0  0  0  0  0  0  0  0  0  0  0
    2.0286  -13.1836    2.4220 C   0  0  0  0  0  0  0  0  0  0  0  0
    1.5882  -13.8533    1.6911 C   0  0  0  0  0  0  0  0  0  0  0  0
    1.5410  -12.9839    0.3115 C   0  0  0  0  0  0  0  0  0  0  0  0
    1.8704  -15.1851    1.3012 C   0  0  0  0  0  0  0  0  0  0  0  0
    0.9957  -15.8731    0.4871 O   0  0  0  0  0  0  0  0  0  0  0  0
    2.6264  -16.0108    2.0271 Cl  0  0  0  0  0  0  0  0  0  0  0  0
    0.8782   -7.0354    2.9378 O   0  0  0  0  0  0  0  0  0  0  0  0
  1  2  1  0
  8  9  1  0
  9 10  2  0
  9 11  1  0
 13 15  1  0
 15 16  2  0
 15 17  1  0
  1 18  2  0
  6  7  1  0
  7 14  2  0
 13 14  1  0
 12 13  2  0
  5 12  1  0
  2  3  2  0
  3  4  1  0
  4  5  2  0
  5  6  1  0
  6  8  2  0
  2  8  1  0
M  END

$$$$
No_4267-/export/home/yangzhenyu/potential_scad_32_flow//YTHDC2/2024-12-06-03-22-00/
     RDKit          3D

 18 18  0  0  0  0  0  0  0  0999 V2000
    1.1787   -8.0297    3.5154 C   0  0  0  0  0  0  0  0  0  0  0  0
    1.0491   -6.8434    2.9820 F   0  0  0  0  0  0  0  0  0  0  0  0
    2.2352   -8.8249    2.8819 C   0  0  0  0  0  0  0  0  0  0  0  0
    2.0433   -9.0543    1.6459 C   0  0  0  0  0  0  0  0  0  0  0  0
    1.0798   -9.3923    1.1067 C   0  0  0  0  0  0  0  0  0  0  0  0
    0.8993   -9.1986   -0.2597 O   0  0  0  0  0  0  0  0  0  0  0  0
    0.2512  -10.2330    1.5139 N   0  0  0  0  0  0  0  0  0  0  0  0
    0.6284  -11.2137    2.5096 C   0  0  0  0  0  0  0  0  0  0  0  0
    1.3084  -12.4317    2.0485 C   0  0  0  0  0  0  0  0  0  0  0  0
    1.6198  -13.3760    3.0031 N   0  0  0  0  0  0  0  0  0  0  0  0
    1.9361  -14.5802    2.5130 N   0  0  0  0  0  0  0  0  0  0  0  0
    2.2852  -14.5234    1.3221 C   0  0  0  0  0  0  0  0  0  0  0  0
    1.8256  -13.0986    0.9923 C   0  0  0  0  0  0  0  0  0  0  0  0
   -0.1501   -8.6239    3.3835 F   0  0  0  0  0  0  0  0  0  0  0  0
    3.2211   -8.7668    0.7981 O   0  0  0  0  0  0  0  0  0  0  0  0
   -1.0644  -10.6284    0.8160 C   0  0  0  0  0  0  0  0  0  0  0  0
   -1.0040  -11.7204   -0.0534 C   0  0  0  0  0  0  0  0  0  0  0  0
   -1.0170  -11.4512   -1.3627 C   0  0  0  0  0  0  0  0  0  0  0  0
  1  2  1  0
  1  3  1  0
  3  4  1  0
  4  5  1  0
  5  6  2  0
  5  7  1  0
  7  8  1  0
  8  9  1  0
  9 10  1  0
 10 11  1  0
 11 12  2  0
  9 13  1  0
 12 13  1  0
  1 14  1  0
  4 15  2  0
  7 16  1  0
 16 17  1  0
 17 18  1  0
M  END

$$$$
No_4268-/export/home/yangzhenyu/potential_scad_32_flow//YTHDC2/2024-12-06-03-22-00/
     RDKit          3D

 20 21  0  0  0  0  0  0  0  0999 V2000
    1.1787   -8.0297    3.5154 C   0  0  0  0  0  0  0  0  0  0  0  0
    1.1048   -9.2215    3.2892 C   0  0  0  0  0  0  0  0  0  0  0  0
    1.2339   -9.7611    2.0189 C   0  0  0  0  0  0  0  0  0  0  0  0
    1.3583   -9.0036    0.9764 C   0  0  0  0  0  0  0  0  0  0  0  0
    1.5996   -7.6362    1.1311 C   0  0  0  0  0  0  0  0  0  0  0  0
    1.4830   -7.0928    2.3626 C   0  0  0  0  0  0  0  0  0  0  0  0
    1.4898   -5.7274    2.6199 C   0  0  0  0  0  0  0  0  0  0  0  0
    1.1681  -11.2222    1.8390 C   0  0  0  0  0  0  0  0  0  0  0  0
    0.5014  -11.9760    2.2068 C   0  0  0  0  0  0  0  0  0  0  0  0
    0.4167  -13.3685    2.0527 C   0  0  0  0  0  0  0  0  0  0  0  0
   -0.6161  -14.0718    1.8701 C   0  0  0  0  0  0  0  0  0  0  0  0
   -0.5561  -15.5453    1.8466 N   0  0  0  0  0  0  0  0  0  0  0  0
    1.7113  -14.1487    2.4013 C   0  0  0  0  0  0  0  0  0  0  0  0
    1.7602  -15.4983    2.5371 C   0  0  0  0  0  0  0  0  0  0  0  0
    0.6718  -16.2085    2.2678 C   0  0  0  0  0  0  0  0  0  0  0  0
    0.7064  -17.5072    2.4029 C   0  0  0  0  0  0  0  0  0  0  0  0
    1.7010   -5.1717    3.8674 N   0  0  0  0  0  0  0  0  0  0  0  0
    1.1339   -4.8240    1.6056 N   0  0  0  0  0  0  0  0  0  0  0  0
    0.2037  -18.2841    1.7623 C   0  0  0  0  0  0  0  0  0  0  0  0
    1.9164   -5.7660    4.6551 H   0  0  0  0  0  0  0  0  0  0  0  0
  6  7  1  0
  3  8  1  0
  8  9  2  3
  9 10  1  0
 15 16  1  0
  7 17  2  0
  7 18  1  0
 16 19  2  0
  1  2  2  0
  2  3  1  0
  3  4  2  0
  4  5  1  0
  5  6  2  0
  1  6  1  0
 10 11  2  0
 11 12  1  0
 12 15  2  0
 14 15  1  0
 13 14  2  0
 10 13  1  0
 17 20  1  0
M  END

$$$$
No_4269-/export/home/yangzhenyu/potential_scad_32_flow//YTHDC2/2024-12-06-03-22-00/
     RDKit          3D

 20 21  0  0  1  0  0  0  0  0999 V2000
    1.1787   -8.0297    3.5154 C   0  0  0  0  0  0  0  0  0  0  0  0
    1.0491   -6.8434    2.9820 C   0  0  2  0  0  0  0  0  0  0  0  0
    0.9905   -9.0774    2.6527 C   0  0  1  0  0  0  0  0  0  0  0  0
    0.7897   -8.9519    1.3691 C   0  0  0  0  0  0  0  0  0  0  0  0
    0.7018   -7.7198    0.7892 C   0  0  0  0  0  0  0  0  0  0  0  0
    0.8918   -6.5957    1.6117 C   0  0  0  0  0  0  0  0  0  0  0  0
    1.0998  -10.4710    3.2437 C   0  0  0  0  0  0  0  0  0  0  0  0
    1.3102  -11.5554    2.5214 C   0  0  0  0  0  0  0  0  0  0  0  0
    1.4257  -12.8124    3.1919 C   0  0  0  0  0  0  0  0  0  0  0  0
    0.9222  -13.9339    2.5039 C   0  0  0  0  0  0  0  0  0  0  0  0
    0.6525  -14.0547    1.2727 C   0  0  0  0  0  0  0  0  0  0  0  0
    0.6172  -12.8463    0.5151 C   0  0  0  0  0  0  0  0  0  0  0  0
    0.9557  -11.5888    1.1819 C   0  0  0  0  0  0  0  0  0  0  0  0
    0.8542   -5.2674    1.2048 O   0  0  0  0  0  0  0  0  0  0  0  0
    0.9877  -15.2802    3.3642 O   0  0  0  0  0  0  0  0  0  0  0  0
    0.5568  -15.1686    0.6117 C   0  0  0  0  0  0  0  0  0  0  0  0
   -0.2272  -15.8010    0.5968 O   0  0  0  0  0  0  0  0  0  0  0  0
    1.5700  -15.5009   -0.2988 O   0  0  0  0  0  0  0  0  0  0  0  0
    1.3462   -5.6880    3.8087 C   0  0  0  0  0  0  0  0  0  0  0  0
    2.6635   -5.2090    4.0191 O   0  0  0  0  0  0  0  0  0  0  0  0
  1  2  1  0
  3  4  1  0
  2  6  1  0
  5  6  1  0
  3  7  1  6
  6 14  2  0
 10 15  1  0
 11 16  1  0
 16 17  2  0
 16 18  1  0
  2 19  1  6
 19 20  1  0
  7  8  1  0
  1  3  1  0
  4  5  1  0
  8  9  2  0
  9 10  1  0
 10 11  2  0
 11 12  1  0
 12 13  2  0
  8 13  1  0
M  END

$$$$
No_4270-/export/home/yangzhenyu/potential_scad_32_flow//YTHDC2/2024-12-06-03-22-00/
     RDKit          3D

 20 21  0  0  0  0  0  0  0  0999 V2000
    1.1787   -8.0297    3.5154 C   0  0  0  0  0  0  0  0  0  0  0  0
    1.0491   -6.8434    2.9820 C   0  0  0  0  0  0  0  0  0  0  0  0
    0.9905   -9.0774    2.6527 C   0  0  0  0  0  0  0  0  0  0  0  0
    0.7897   -8.9519    1.3691 C   0  0  0  0  0  0  0  0  0  0  0  0
    0.7018   -7.7198    0.7892 C   0  0  0  0  0  0  0  0  0  0  0  0
    0.8918   -6.5957    1.6117 C   0  0  0  0  0  0  0  0  0  0  0  0
    1.0998  -10.4710    3.2437 C   0  0  0  0  0  0  0  0  0  0  0  0
    0.0472  -11.2546    3.3963 C   0  0  0  0  0  0  0  0  0  0  0  0
    0.1622  -12.5732    3.4140 N   0  0  0  0  0  0  0  0  0  0  0  0
    1.4168  -13.0379    3.4220 C   0  0  0  0  0  0  0  0  0  0  0  0
    2.5152  -12.3612    3.2590 N   0  0  0  0  0  0  0  0  0  0  0  0
    2.3894  -11.0782    3.1893 C   0  0  0  0  0  0  0  0  0  0  0  0
    0.8449   -5.2762    1.1788 C   0  0  0  0  0  0  0  0  0  0  0  0
    1.3882  -14.5015    3.5425 N   0  0  0  0  0  0  0  0  0  0  0  0
    1.5742   -4.3470    1.8465 N   0  0  0  0  0  0  0  0  0  0  0  0
    0.1676   -4.8979    0.2746 O   0  0  0  0  0  0  0  0  0  0  0  0
    1.5701   -2.9943    1.5535 C   0  0  0  0  0  0  0  0  0  0  0  0
   -1.3023  -10.6121    3.5690 N   0  0  0  0  0  0  0  0  0  0  0  0
    1.1483   -2.1644    2.5710 C   0  0  0  0  0  0  0  0  0  0  0  0
    1.8530   -2.4041    3.7687 C   0  0  0  0  0  0  0  0  0  0  0  0
  3  7  1  0
  6 13  1  0
 10 14  1  0
 13 15  1  0
 13 16  2  0
 15 17  1  0
  8 18  1  0
 17 19  1  0
 19 20  1  0
  1  2  2  0
  2  6  1  0
  5  6  2  0
  4  5  1  0
  3  4  2  0
  1  3  1  0
  7  8  2  0
  8  9  1  0
  9 10  2  0
 10 11  1  0
 11 12  2  0
  7 12  1  0
M  END

$$$$
No_4271-/export/home/yangzhenyu/potential_scad_32_flow//YTHDC2/2024-12-06-03-22-00/
     RDKit          3D

 20 22  0  0  0  0  0  0  0  0999 V2000
    1.1787   -8.0297    3.5154 C   0  0  0  0  0  0  0  0  0  0  0  0
    1.1048   -9.2215    3.2892 C   0  0  0  0  0  0  0  0  0  0  0  0
    1.2339   -9.7611    2.0189 C   0  0  0  0  0  0  0  0  0  0  0  0
    1.3583   -9.0036    0.9764 C   0  0  0  0  0  0  0  0  0  0  0  0
    1.5996   -7.6362    1.1311 C   0  0  0  0  0  0  0  0  0  0  0  0
    1.4830   -7.0928    2.3626 C   0  0  0  0  0  0  0  0  0  0  0  0
    1.1171  -11.3311    1.8661 C   0  0  0  0  0  0  0  0  0  0  0  0
    0.5042  -11.9974    2.3631 N   0  0  0  0  0  0  0  0  0  0  0  0
    0.3684  -12.9981    2.3803 C   0  0  0  0  0  0  0  0  0  0  0  0
    1.3688  -13.8863    1.6080 C   0  0  0  0  0  0  0  0  0  0  0  0
    2.3720  -13.0573    0.8933 C   0  0  0  0  0  0  0  0  0  0  0  0
    2.2108  -11.7353    0.9589 C   0  0  0  0  0  0  0  0  0  0  0  0
    1.5287   -5.6461    2.6323 C   0  0  0  0  0  0  0  0  0  0  0  0
    1.5426  -15.4978    1.5700 C   0  0  0  0  0  0  0  0  0  0  0  0
    2.6881  -15.9610    2.4107 N   0  0  0  0  0  0  0  0  0  0  0  0
    0.9075  -16.1039    0.9230 C   0  0  0  0  0  0  0  0  0  0  0  0
    2.7609  -17.2269    2.3095 C   0  0  0  0  0  0  0  0  0  0  0  0
    2.0822  -18.0051    1.8098 N   0  0  0  0  0  0  0  0  0  0  0  0
    1.1798  -17.6046    1.0095 C   0  0  0  0  0  0  0  0  0  0  0  0
    1.1587   -4.7920    1.6412 N   0  0  0  0  0  0  0  0  0  0  0  0
  3  7  1  0
  6 13  1  0
 10 14  1  0
 13 20  1  0
  1  2  2  0
  2  3  1  0
  3  4  2  0
  4  5  1  0
  5  6  2  0
  1  6  1  0
 14 15  2  0
 15 17  1  0
 17 18  2  0
 18 19  1  0
 16 19  2  0
 14 16  1  0
  7  8  2  0
  8  9  1  0
  9 10  2  0
 10 11  1  0
 11 12  2  0
  7 12  1  0
M  END

$$$$
No_4272-/export/home/yangzhenyu/potential_scad_32_flow//YTHDC2/2024-12-06-03-22-00/
     RDKit          3D

 18 19  0  0  1  0  0  0  0  0999 V2000
    1.1787   -8.0297    3.5154 C   0  0  0  0  0  0  0  0  0  0  0  0
    1.0491   -6.8434    2.9820 C   0  0  0  0  0  0  0  0  0  0  0  0
    0.9905   -9.0774    2.6527 C   0  0  0  0  0  0  0  0  0  0  0  0
    0.7897   -8.9519    1.3691 C   0  0  0  0  0  0  0  0  0  0  0  0
    0.7018   -7.7198    0.7892 C   0  0  0  0  0  0  0  0  0  0  0  0
    0.8918   -6.5957    1.6117 C   0  0  0  0  0  0  0  0  0  0  0  0
    1.0998  -10.4710    3.2437 C   0  0  0  0  0  0  0  0  0  0  0  0
    0.0472  -11.2546    3.3963 C   0  0  2  0  0  0  0  0  0  0  0  0
   -1.1989  -10.6161    3.7011 C   0  0  0  0  0  0  0  0  0  0  0  0
    0.8603   -5.2612    1.2139 N   0  0  0  0  0  0  0  0  0  0  0  0
   -1.3493   -9.7436    4.7969 C   0  0  0  0  0  0  0  0  0  0  0  0
   -2.4279   -9.0589    5.0520 C   0  0  0  0  0  0  0  0  0  0  0  0
   -3.5067   -9.2378    4.2996 C   0  0  0  0  0  0  0  0  0  0  0  0
   -3.4981  -10.0776    3.2657 C   0  0  0  0  0  0  0  0  0  0  0  0
   -2.3644  -10.8341    2.9429 C   0  0  0  0  0  0  0  0  0  0  0  0
    0.2179  -12.5367    3.4300 C   0  0  0  0  0  0  0  0  0  0  0  0
    1.4722  -13.1260    3.4766 C   0  0  0  0  0  0  0  0  0  0  0  0
    1.5936  -14.5175    3.1264 C   0  0  0  0  0  0  0  0  0  0  0  0
  3  7  1  0
  8  7  1  1
  8  9  1  0
  8 16  1  0
 16 17  2  3
 17 18  1  0
  6 10  1  0
  1  2  2  0
  2  6  1  0
  5  6  2  0
  4  5  1  0
  3  4  2  0
  1  3  1  0
  9 11  2  0
 11 12  1  0
 12 13  2  0
 13 14  1  0
 14 15  2  0
  9 15  1  0
M  END

$$$$
No_4273-/export/home/yangzhenyu/potential_scad_32_flow//YTHDC2/2024-12-06-03-22-00/
     RDKit          3D

 18 20  0  0  0  0  0  0  0  0999 V2000
    1.1787   -8.0297    3.5154 C   0  0  0  0  0  0  0  0  0  0  0  0
    1.0491   -6.8434    2.9820 C   0  0  0  0  0  0  0  0  0  0  0  0
    0.0950   -8.8404    3.2292 C   0  0  0  0  0  0  0  0  0  0  0  0
   -0.9173   -8.4596    2.5152 C   0  0  0  0  0  0  0  0  0  0  0  0
   -1.0331   -7.2162    2.0653 C   0  0  0  0  0  0  0  0  0  0  0  0
   -0.0105   -6.3168    2.3081 C   0  0  0  0  0  0  0  0  0  0  0  0
    0.1465  -10.2446    3.6981 C   0  0  0  0  0  0  0  0  0  0  0  0
   -1.0336  -10.8619    3.9439 C   0  0  0  0  0  0  0  0  0  0  0  0
   -0.8576  -12.3101    4.1964 C   0  0  0  0  0  0  0  0  0  0  0  0
    0.3452  -12.8753    3.9453 C   0  0  0  0  0  0  0  0  0  0  0  0
    1.4894  -12.1495    3.5975 C   0  0  0  0  0  0  0  0  0  0  0  0
    1.3815  -10.8365    3.4146 C   0  0  0  0  0  0  0  0  0  0  0  0
   -0.0395   -5.0053    1.8073 C   0  0  0  0  0  0  0  0  0  0  0  0
   -0.7953   -4.1426    2.2953 C   0  0  0  0  0  0  0  0  0  0  0  0
   -0.6804   -2.7699    1.7144 C   0  0  0  0  0  0  0  0  0  0  0  0
    0.0434   -2.4634    0.7052 C   0  0  0  0  0  0  0  0  0  0  0  0
    0.8021   -3.4023    0.1081 C   0  0  0  0  0  0  0  0  0  0  0  0
    0.8211   -4.6828    0.7046 C   0  0  0  0  0  0  0  0  0  0  0  0
  3  7  1  0
  6 13  1  0
 13 14  2  0
 14 15  1  0
 15 16  2  0
 16 17  1  0
 17 18  2  0
 13 18  1  0
  1  2  2  0
  2  6  1  0
  5  6  2  0
  4  5  1  0
  3  4  2  0
  1  3  1  0
  7  8  2  0
  8  9  1  0
  9 10  2  0
 10 11  1  0
 11 12  2  0
  7 12  1  0
M  END

$$$$
No_4274-/export/home/yangzhenyu/potential_scad_32_flow//YTHDC2/2024-12-06-03-22-00/
     RDKit          3D

 18 18  0  0  0  0  0  0  0  0999 V2000
    1.1787   -8.0297    3.5154 C   0  0  0  0  0  0  0  0  0  0  0  0
    1.1048   -9.2215    3.2892 C   0  0  0  0  0  0  0  0  0  0  0  0
    1.2339   -9.7611    2.0189 C   0  0  0  0  0  0  0  0  0  0  0  0
    1.1954  -11.2312    1.8661 C   0  0  0  0  0  0  0  0  0  0  0  0
    1.5546  -12.1691    2.7931 C   0  0  0  0  0  0  0  0  0  0  0  0
    1.4918  -11.6215    4.1439 C   0  0  0  0  0  0  0  0  0  0  0  0
    1.2451  -10.2569    4.3641 C   0  0  0  0  0  0  0  0  0  0  0  0
    1.6856  -13.5772    2.5090 C   0  0  0  0  0  0  0  0  0  0  0  0
    0.8684   -7.0781    2.6501 C   0  0  0  0  0  0  0  0  0  0  0  0
    1.0304   -5.6206    2.9624 C   0  0  0  0  0  0  0  0  0  0  0  0
    1.6301  -14.1241    1.4465 O   0  0  0  0  0  0  0  0  0  0  0  0
    1.9641  -14.3613    3.6231 O   0  0  0  0  0  0  0  0  0  0  0  0
    1.7178   -5.2602    4.0204 O   0  0  0  0  0  0  0  0  0  0  0  0
    0.8015   -4.7136    1.9154 N   0  0  0  0  0  0  0  0  0  0  0  0
    1.0139   -3.4063    2.0407 C   0  0  0  0  0  0  0  0  0  0  0  0
    0.5445   -2.7746    2.9971 C   0  0  0  0  0  0  0  0  0  0  0  0
    1.5168   -1.9523    3.7652 C   0  0  0  0  0  0  0  0  0  0  0  0
    1.1904   -9.0125    0.8625 C   0  0  0  0  0  0  0  0  0  0  0  0
  1  2  1  0
  5  8  1  0
  1  9  2  3
  9 10  1  0
  8 11  2  0
  8 12  1  0
 10 13  2  0
 10 14  1  0
 14 15  1  0
 15 16  1  0
 16 17  1  0
  3 18  1  0
  2  3  2  0
  3  4  1  0
  4  5  2  0
  5  6  1  0
  6  7  2  0
  2  7  1  0
M  END

$$$$
No_4275-/export/home/yangzhenyu/potential_scad_32_flow//YTHDC2/2024-12-06-03-22-00/
     RDKit          3D

 18 18  0  0  0  0  0  0  0  0999 V2000
    1.1787   -8.0297    3.5154 C   0  0  0  0  0  0  0  0  0  0  0  0
    1.1048   -9.2215    3.2892 C   0  0  0  0  0  0  0  0  0  0  0  0
    1.2339   -9.7611    2.0189 C   0  0  0  0  0  0  0  0  0  0  0  0
    1.3583   -9.0036    0.9764 C   0  0  0  0  0  0  0  0  0  0  0  0
    1.5996   -7.6362    1.1311 C   0  0  0  0  0  0  0  0  0  0  0  0
    1.4830   -7.0928    2.3626 C   0  0  0  0  0  0  0  0  0  0  0  0
    1.4898   -5.7274    2.6199 C   0  0  0  0  0  0  0  0  0  0  0  0
    1.1681  -11.2222    1.8390 C   0  0  0  0  0  0  0  0  0  0  0  0
    1.9047  -12.1147    2.3357 C   0  0  0  0  0  0  0  0  0  0  0  0
    1.2927  -13.3233    2.7474 C   0  0  0  0  0  0  0  0  0  0  0  0
    0.1154  -13.2943    3.1567 O   0  0  0  0  0  0  0  0  0  0  0  0
    2.0729  -14.4733    2.7445 O   0  0  0  0  0  0  0  0  0  0  0  0
    1.7080   -5.1871    3.8609 O   0  0  0  0  0  0  0  0  0  0  0  0
    1.2544   -4.8363    1.6848 O   0  0  0  0  0  0  0  0  0  0  0  0
    1.6492   -9.4531   -0.3048 C   0  0  0  0  0  0  0  0  0  0  0  0
    0.5572   -9.9816   -0.9478 O   0  0  0  0  0  0  0  0  0  0  0  0
    2.7814   -9.6511   -0.8512 O   0  0  0  0  0  0  0  0  0  0  0  0
    0.8117  -10.1796    4.3769 C   0  0  0  0  0  0  0  0  0  0  0  0
  6  7  1  0
  3  8  1  0
  8  9  1  0
  9 10  1  0
 10 11  1  0
 10 12  2  0
  7 13  1  0
  7 14  2  0
  4 15  1  0
 15 16  2  0
 15 17  1  0
  2 18  1  0
  1  2  2  0
  2  3  1  0
  3  4  2  0
  4  5  1  0
  5  6  2  0
  1  6  1  0
M  END

$$$$
No_4276-/export/home/yangzhenyu/potential_scad_32_flow//YTHDC2/2024-12-06-03-22-00/
     RDKit          3D

 20 21  0  0  0  0  0  0  0  0999 V2000
    1.1787   -8.0297    3.5154 C   0  0  0  0  0  0  0  0  0  0  0  0
    1.1048   -9.2215    3.2892 C   0  0  0  0  0  0  0  0  0  0  0  0
    1.2339   -9.7611    2.0189 C   0  0  0  0  0  0  0  0  0  0  0  0
    1.3583   -9.0036    0.9764 C   0  0  0  0  0  0  0  0  0  0  0  0
    1.5996   -7.6362    1.1311 C   0  0  0  0  0  0  0  0  0  0  0  0
    1.4830   -7.0928    2.3626 C   0  0  0  0  0  0  0  0  0  0  0  0
    1.4898   -5.7274    2.6199 C   0  0  0  0  0  0  0  0  0  0  0  0
    1.1681  -11.2222    1.8390 C   0  0  0  0  0  0  0  0  0  0  0  0
    1.9047  -12.1147    2.3357 C   0  0  0  0  0  0  0  0  0  0  0  0
    1.6844  -13.4555    2.0602 C   0  0  0  0  0  0  0  0  0  0  0  0
    0.6977  -13.8514    1.3046 C   0  0  0  0  0  0  0  0  0  0  0  0
   -0.1168  -12.9151    0.6554 C   0  0  0  0  0  0  0  0  0  0  0  0
    0.1481  -11.5441    0.9254 C   0  0  0  0  0  0  0  0  0  0  0  0
    1.6975   -5.1712    3.8653 O   0  0  0  0  0  0  0  0  0  0  0  0
    1.3280   -4.8321    1.6686 O   0  0  0  0  0  0  0  0  0  0  0  0
    2.5136  -14.4243    2.7623 Cl  0  0  0  0  0  0  0  0  0  0  0  0
   -0.6979  -10.6665    0.3286 C   0  0  0  0  0  0  0  0  0  0  0  0
   -1.8370  -10.9655   -0.2492 C   0  0  0  0  0  0  0  0  0  0  0  0
   -2.5492  -10.1411   -1.2380 O   0  0  0  0  0  0  0  0  0  0  0  0
   -2.8194  -11.8311    0.2652 O   0  0  0  0  0  0  0  0  0  0  0  0
  6  7  1  0
  3  8  1  0
  7 14  1  0
  7 15  2  0
 10 16  1  0
 13 17  1  0
 17 18  2  3
 18 19  1  0
 18 20  1  0
  1  2  2  0
  2  3  1  0
  3  4  2  0
  4  5  1  0
  5  6  2  0
  1  6  1  0
  8  9  2  0
  9 10  1  0
 10 11  2  0
 11 12  1  0
 12 13  2  0
  8 13  1  0
M  END

$$$$
No_4277-/export/home/yangzhenyu/potential_scad_32_flow//YTHDC2/2024-12-06-03-22-00/
     RDKit          3D

 14 14  0  0  0  0  0  0  0  0999 V2000
    1.1787   -8.0297    3.5154 C   0  0  0  0  0  0  0  0  0  0  0  0
    1.1048   -9.2215    3.2892 C   0  0  0  0  0  0  0  0  0  0  0  0
    1.3627  -10.1721    4.3044 C   0  0  0  0  0  0  0  0  0  0  0  0
    1.7354  -11.4730    3.9023 C   0  0  0  0  0  0  0  0  0  0  0  0
    1.8080  -11.8127    2.7216 C   0  0  0  0  0  0  0  0  0  0  0  0
    1.5854  -11.0021    1.7249 C   0  0  0  0  0  0  0  0  0  0  0  0
    1.3573   -9.7389    1.9287 C   0  0  0  0  0  0  0  0  0  0  0  0
    1.1102   -8.8712    0.9017 C   0  0  0  0  0  0  0  0  0  0  0  0
    1.5724   -9.1697   -0.3048 C   0  0  0  0  0  0  0  0  0  0  0  0
    2.5692  -10.0138   -0.6172 O   0  0  0  0  0  0  0  0  0  0  0  0
    1.1234   -8.5849   -1.4299 O   0  0  0  0  0  0  0  0  0  0  0  0
    2.1117  -13.4478    2.3920 Cl  0  0  0  0  0  0  0  0  0  0  0  0
    0.1410   -7.1936    3.3233 O   0  0  0  0  0  0  0  0  0  0  0  0
    2.2876   -7.1072    3.4498 O   0  0  0  0  0  0  0  0  0  0  0  0
  1  2  1  0
  7  8  1  0
  8  9  2  3
  9 10  1  0
  9 11  1  0
  5 12  1  0
  1 13  2  0
  1 14  1  0
  2  3  2  0
  3  4  1  0
  4  5  2  0
  5  6  1  0
  6  7  2  0
  2  7  1  0
M  END

$$$$
No_4278-/export/home/yangzhenyu/potential_scad_32_flow//YTHDC2/2024-12-06-03-22-00/
     RDKit          3D

 17 17  0  0  1  0  0  0  0  0999 V2000
    1.1787   -8.0297    3.5154 C   0  0  0  0  0  0  0  0  0  0  0  0
    1.0491   -6.8434    2.9820 C   0  0  0  0  0  0  0  0  0  0  0  0
    1.9985   -8.9840    2.8958 C   0  0  0  0  0  0  0  0  0  0  0  0
    1.9135  -10.3404    3.6266 C   0  0  2  0  0  0  0  0  0  0  0  0
    2.2847  -10.5440    4.7936 C   0  0  0  0  0  0  0  0  0  0  0  0
    0.3304   -6.7696    1.8077 C   0  0  0  0  0  0  0  0  0  0  0  0
   -0.0362   -5.5612    1.4430 O   0  0  0  0  0  0  0  0  0  0  0  0
    0.1430   -7.7441    1.0604 O   0  0  0  0  0  0  0  0  0  0  0  0
    1.6110  -11.4011    2.7524 C   0  0  0  0  0  0  0  0  0  0  0  0
    1.5248  -12.6163    3.2618 C   0  0  0  0  0  0  0  0  0  0  0  0
    0.9110  -13.6362    2.3896 C   0  0  0  0  0  0  0  0  0  0  0  0
   -0.2299  -13.2856    1.8578 C   0  0  0  0  0  0  0  0  0  0  0  0
   -1.2625  -13.0964    2.6008 C   0  0  0  0  0  0  0  0  0  0  0  0
   -2.5063  -12.6506    2.0212 C   0  0  0  0  0  0  0  0  0  0  0  0
   -2.6116  -12.5899    0.6671 C   0  0  0  0  0  0  0  0  0  0  0  0
   -1.5338  -12.7834   -0.1357 C   0  0  0  0  0  0  0  0  0  0  0  0
   -0.3179  -13.1531    0.4509 C   0  0  0  0  0  0  0  0  0  0  0  0
  1  2  1  0
  1  3  1  0
  3  4  1  0
  4  5  1  6
  2  6  1  0
  6  7  2  0
  6  8  1  0
  4  9  1  0
  9 10  1  0
 10 11  1  0
 11 12  1  0
 12 13  2  0
 13 14  1  0
 14 15  2  0
 15 16  1  0
 16 17  2  0
 12 17  1  0
M  END

$$$$
No_4279-/export/home/yangzhenyu/potential_scad_32_flow//YTHDC2/2024-12-06-03-22-00/
     RDKit          3D

 20 20  0  0  1  0  0  0  0  0999 V2000
    1.1787   -8.0297    3.5154 C   0  0  0  0  0  0  0  0  0  0  0  0
    1.1048   -9.2215    3.2892 C   0  0  0  0  0  0  0  0  0  0  0  0
    1.3627  -10.1721    4.3044 C   0  0  0  0  0  0  0  0  0  0  0  0
    1.0682  -11.5187    4.0618 C   0  0  0  0  0  0  0  0  0  0  0  0
    0.6332  -11.9655    2.9682 C   0  0  0  0  0  0  0  0  0  0  0  0
    0.4776  -11.1308    1.9203 C   0  0  0  0  0  0  0  0  0  0  0  0
    0.7470   -9.8274    2.0368 C   0  0  0  0  0  0  0  0  0  0  0  0
    1.8805   -7.1616    3.5539 O   0  0  0  0  0  0  0  0  0  0  0  0
   -0.2411   -7.5021    3.1832 N   0  0  0  0  0  0  0  0  0  0  0  0
    0.3366  -13.5208    2.7706 C   0  0  0  0  0  0  0  0  0  0  0  0
    0.7768  -14.0835    1.7639 C   0  0  1  0  0  0  0  0  0  0  0  0
    2.1202  -14.2100    1.3840 C   0  0  0  0  0  0  0  0  0  0  0  0
    0.2149  -15.5549    1.7565 C   0  0  0  0  0  0  0  0  0  0  0  0
   -0.9805  -15.7672    1.7150 C   0  0  0  0  0  0  0  0  0  0  0  0
   -1.8373  -15.1291    0.9730 C   0  0  0  0  0  0  0  0  0  0  0  0
   -1.4764  -14.9090   -0.3750 C   0  0  0  0  0  0  0  0  0  0  0  0
   -0.9056  -15.9312   -1.0517 C   0  0  0  0  0  0  0  0  0  0  0  0
    0.1205  -15.5715   -2.0331 C   0  0  0  0  0  0  0  0  0  0  0  0
    0.7808   -9.0215    0.8836 C   0  0  0  0  0  0  0  0  0  0  0  0
    1.0531   -9.4318   -0.2410 O   0  0  0  0  0  0  0  0  0  0  0  0
  1  2  1  0
  1  8  2  0
  1  9  1  0
  5 10  1  0
 10 11  1  0
 11 12  1  1
 11 13  1  0
 13 14  1  0
 14 15  1  0
 15 16  1  0
 16 17  1  0
 17 18  1  0
  7 19  1  0
 19 20  1  0
  2  3  2  0
  3  4  1  0
  4  5  2  0
  5  6  1  0
  6  7  2  0
  2  7  1  0
M  END

$$$$
No_4280-/export/home/yangzhenyu/potential_scad_32_flow//YTHDC2/2024-12-06-03-22-00/
     RDKit          3D

 19 20  0  0  1  0  0  0  0  0999 V2000
    1.1787   -8.0297    3.5154 C   0  0  0  0  0  0  0  0  0  0  0  0
    1.0491   -6.8434    2.9820 C   0  0  0  0  0  0  0  0  0  0  0  0
    0.9905   -9.0774    2.6527 C   0  0  0  0  0  0  0  0  0  0  0  0
    0.7897   -8.9519    1.3691 C   0  0  0  0  0  0  0  0  0  0  0  0
    0.7018   -7.7198    0.7892 C   0  0  0  0  0  0  0  0  0  0  0  0
    0.8918   -6.5957    1.6117 C   0  0  0  0  0  0  0  0  0  0  0  0
    1.0711  -10.4814    3.2282 C   0  0  2  0  0  0  0  0  0  0  0  0
    2.1432  -11.0138    3.5962 C   0  0  0  0  0  0  0  0  0  0  0  0
    0.4111  -11.5109    2.3547 C   0  0  0  0  0  0  0  0  0  0  0  0
    1.0744  -12.4540    1.9282 C   0  0  0  0  0  0  0  0  0  0  0  0
    0.5940  -13.4257    1.4227 C   0  0  0  0  0  0  0  0  0  0  0  0
   -0.6604  -13.5005    1.0498 C   0  0  0  0  0  0  0  0  0  0  0  0
   -1.4702  -12.4529    1.3484 C   0  0  0  0  0  0  0  0  0  0  0  0
   -0.9400  -11.3700    2.0478 C   0  0  0  0  0  0  0  0  0  0  0  0
    2.1948  -11.0128    5.1833 C   0  0  0  0  0  0  0  0  0  0  0  0
    0.8316   -5.2735    1.1309 Cl  0  0  0  0  0  0  0  0  0  0  0  0
    3.6191  -10.7048    5.6242 N   0  0  0  0  0  0  0  0  0  0  0  0
   -1.7524  -10.4131    2.6246 O   0  0  0  0  0  0  0  0  0  0  0  0
    4.6881  -10.8575    4.9419 O   0  0  0  0  0  0  0  0  0  0  0  0
  3  7  1  0
  7  8  1  6
  7  9  1  0
  9 10  1  0
 11 12  1  0
  9 14  1  0
 13 14  1  0
  8 15  1  0
  6 16  1  0
 15 17  1  0
 14 18  2  0
 17 19  2  0
 10 11  1  0
 12 13  1  0
  1  2  2  0
  2  6  1  0
  5  6  2  0
  4  5  1  0
  3  4  2  0
  1  3  1  0
M  END

$$$$
No_4281-/export/home/yangzhenyu/potential_scad_32_flow//YTHDC2/2024-12-06-03-22-00/
     RDKit          3D

 18 18  0  0  0  0  0  0  0  0999 V2000
    1.1787   -8.0297    3.5154 N   0  0  0  0  0  0  0  0  0  0  0  0
    0.8669   -7.0905    2.8589 C   0  0  0  0  0  0  0  0  0  0  0  0
    1.0447   -7.3244    1.4123 C   0  0  0  0  0  0  0  0  0  0  0  0
    1.3746   -8.4389    1.0864 C   0  0  0  0  0  0  0  0  0  0  0  0
    1.8493   -9.4093    1.8124 C   0  0  0  0  0  0  0  0  0  0  0  0
    1.7421   -9.2119    3.1541 C   0  0  0  0  0  0  0  0  0  0  0  0
    2.0608  -10.3132    4.0586 C   0  0  0  0  0  0  0  0  0  0  0  0
    1.3103  -11.3806    4.2606 O   0  0  0  0  0  0  0  0  0  0  0  0
    3.2530  -10.3750    4.7061 O   0  0  0  0  0  0  0  0  0  0  0  0
    1.7231   -8.6732   -0.6199 C   0  0  0  0  0  0  0  0  0  0  0  0
    2.9954   -8.8278   -0.9448 O   0  0  0  0  0  0  0  0  0  0  0  0
    0.7269   -9.1421   -1.1862 O   0  0  0  0  0  0  0  0  0  0  0  0
    0.4709   -5.8619    3.3174 C   0  0  0  0  0  0  0  0  0  0  0  0
    1.3846   -4.9521    3.1399 O   0  0  0  0  0  0  0  0  0  0  0  0
    0.8870   -3.4888    3.4203 C   0  0  0  0  0  0  0  0  0  0  0  0
    1.2682   -2.5823    2.5227 C   0  0  0  0  0  0  0  0  0  0  0  0
    2.0425   -2.9031    1.5622 O   0  0  0  0  0  0  0  0  0  0  0  0
    1.5210   -2.4346    0.2538 C   0  0  0  0  0  0  0  0  0  0  0  0
  6  7  1  0
  7  8  1  0
  7  9  2  0
  4 10  1  0
 10 11  1  0
 10 12  2  0
  2 13  1  0
 13 14  1  0
 14 15  1  0
 15 16  1  0
 16 17  1  0
 17 18  1  0
  1  2  2  0
  2  3  1  0
  3  4  2  0
  4  5  1  0
  5  6  2  0
  1  6  1  0
M  END

$$$$
No_4282-/export/home/yangzhenyu/potential_scad_32_flow//YTHDC2/2024-12-06-03-22-00/
     RDKit          3D

 18 18  0  0  1  0  0  0  0  0999 V2000
    1.1787   -8.0297    3.5154 O   0  0  0  0  0  0  0  0  0  0  0  0
    0.6747   -7.4019    2.7838 C   0  0  0  0  0  0  0  0  0  0  0  0
    0.5570   -6.0797    2.8560 C   0  0  0  0  0  0  0  0  0  0  0  0
   -0.2158   -5.3007    2.0284 C   0  0  0  0  0  0  0  0  0  0  0  0
   -0.8260   -5.9169    1.0290 C   0  0  0  0  0  0  0  0  0  0  0  0
   -0.6925   -7.2407    0.8216 C   0  0  0  0  0  0  0  0  0  0  0  0
    0.1645   -8.0156    1.6621 C   0  0  0  0  0  0  0  0  0  0  0  0
    0.4049   -9.3434    1.4877 C   0  0  2  0  0  0  0  0  0  0  0  0
    0.0670  -10.2565    2.0992 C   0  0  0  0  0  0  0  0  0  0  0  0
   -1.0016  -10.2162    2.9606 C   0  0  2  0  0  0  0  0  0  0  0  0
   -0.8697  -10.7305    4.2076 C   0  0  0  0  0  0  0  0  0  0  0  0
    1.7110   -9.4546    0.5673 C   0  0  0  0  0  0  0  0  0  0  0  0
    2.1160   -8.6755   -0.4477 O   0  0  0  0  0  0  0  0  0  0  0  0
    2.2976  -10.6792    0.5069 O   0  0  0  0  0  0  0  0  0  0  0  0
   -2.3195  -10.7086    2.3998 C   0  0  0  0  0  0  0  0  0  0  0  0
   -3.4938  -10.5032    3.1207 C   0  0  0  0  0  0  0  0  0  0  0  0
   -4.6354  -11.1007    2.6706 C   0  0  0  0  0  0  0  0  0  0  0  0
   -5.0823  -11.8263    3.3043 C   0  0  0  0  0  0  0  0  0  0  0  0
  1  2  1  0
  7  8  1  0
  8  9  1  1
  9 10  1  0
 10 11  1  1
  8 12  1  0
 12 13  1  0
 12 14  2  0
 10 15  1  0
 15 16  2  3
 16 17  1  0
 17 18  2  0
  2  3  2  0
  3  4  1  0
  4  5  2  0
  5  6  1  0
  6  7  2  0
  2  7  1  0
M  END

$$$$
No_4283-/export/home/yangzhenyu/potential_scad_32_flow//YTHDC2/2024-12-06-03-22-00/
     RDKit          3D

 20 22  0  0  1  0  0  0  0  0999 V2000
    1.1787   -8.0297    3.5154 O   0  0  0  0  0  0  0  0  0  0  0  0
    0.9969   -8.9689    3.0048 C   0  0  1  0  0  0  0  0  0  0  0  0
    0.9976   -8.9567    1.6341 C   0  0  2  0  0  0  0  0  0  0  0  0
    0.7663   -7.7728    1.0082 C   0  0  0  0  0  0  0  0  0  0  0  0
    0.5873   -6.9953    1.8663 N   0  0  0  0  0  0  0  0  0  0  0  0
    0.9737   -6.8087    3.0213 C   0  0  1  0  0  0  0  0  0  0  0  0
    1.5426  -10.3243    3.4405 C   0  0  0  0  0  0  0  0  0  0  0  0
    1.5522  -11.3648    2.6537 N   0  0  0  0  0  0  0  0  0  0  0  0
    1.1746  -10.5278    1.2608 C   0  0  0  0  0  0  0  0  0  0  0  0
    1.3261  -10.9187    0.0921 O   0  0  0  0  0  0  0  0  0  0  0  0
    1.7042  -10.8236    4.8117 N   0  0  0  0  0  0  0  0  0  0  0  0
    0.9458   -5.6604    3.7202 C   0  0  0  0  0  0  0  0  0  0  0  0
    0.4240   -4.5256    3.2434 C   0  0  2  0  0  0  0  0  0  0  0  0
    0.7934   -3.6442    2.8065 C   0  0  1  0  0  0  0  0  0  0  0  0
    0.3297   -2.4249    2.4905 C   0  0  0  0  0  0  0  0  0  0  0  0
   -1.0277   -2.5195    2.7906 C   0  0  0  0  0  0  0  0  0  0  0  0
   -1.7600   -3.5165    3.2596 C   0  0  0  0  0  0  0  0  0  0  0  0
   -1.0112   -4.6588    3.5736 C   0  0  0  0  0  0  0  0  0  0  0  0
    2.3773   -3.5522    2.6424 Cl  0  0  0  0  0  0  0  0  0  0  0  0
   -1.7413   -5.8471    3.8022 O   0  0  0  0  0  0  0  0  0  0  0  0
  2  1  1  1
  2  3  1  0
  3  4  1  6
  4  5  2  0
  1  6  1  0
  5  6  1  0
  2  7  1  0
  7  8  2  0
  3  9  1  0
  8  9  1  0
  9 10  2  0
  7 11  1  0
  6 12  1  1
 13 14  1  0
 15 16  1  0
 13 18  1  0
 17 18  1  0
 14 19  1  1
 18 20  2  0
 13 12  1  1
 14 15  1  0
 16 17  1  0
M  END

$$$$
No_4284-/export/home/yangzhenyu/potential_scad_32_flow//YTHDC2/2024-12-06-03-22-00/
     RDKit          3D

 19 19  0  0  0  0  0  0  0  0999 V2000
    1.1787   -8.0297    3.5154 N   0  0  0  0  0  0  0  0  0  0  0  0
    1.0818   -9.0751    3.2053 C   0  0  0  0  0  0  0  0  0  0  0  0
    0.6776   -9.2823    1.8784 C   0  0  0  0  0  0  0  0  0  0  0  0
    0.6499   -8.2458    1.0911 C   0  0  0  0  0  0  0  0  0  0  0  0
    1.2158   -7.0682    2.2731 N   0  0  0  0  0  0  0  0  0  0  0  0
    1.1688  -10.2153    4.2299 C   0  0  0  0  0  0  0  0  0  0  0  0
    2.2893  -10.9579    4.2939 C   0  0  0  0  0  0  0  0  0  0  0  0
    0.5105   -7.7326   -0.0624 C   0  0  0  0  0  0  0  0  0  0  0  0
   -0.8394   -7.5976   -0.3231 O   0  0  0  0  0  0  0  0  0  0  0  0
    1.3097   -8.2235   -0.9284 O   0  0  0  0  0  0  0  0  0  0  0  0
    0.4254  -10.6202    1.2583 C   0  0  0  0  0  0  0  0  0  0  0  0
   -0.8075  -11.0257    0.9126 O   0  0  0  0  0  0  0  0  0  0  0  0
    1.5236  -11.4096    0.8680 O   0  0  0  0  0  0  0  0  0  0  0  0
    1.2056   -5.6645    2.2413 C   0  0  0  0  0  0  0  0  0  0  0  0
    3.3024  -10.3785    5.1571 C   0  0  0  0  0  0  0  0  0  0  0  0
    4.4422  -11.0769    5.3182 O   0  0  0  0  0  0  0  0  0  0  0  0
    3.0768   -9.5598    6.0085 O   0  0  0  0  0  0  0  0  0  0  0  0
    0.6617   -5.0841    1.1456 C   0  0  0  0  0  0  0  0  0  0  0  0
    1.7259   -5.0704    3.2928 C   0  0  0  0  0  0  0  0  0  0  0  0
  1  2  2  0
  2  3  1  0
  3  4  2  0
  1  5  1  0
  4  5  1  0
  2  6  1  0
  6  7  1  0
  4  8  1  0
  8  9  2  0
  8 10  1  0
  3 11  1  0
 11 12  1  0
 11 13  2  0
  5 14  1  0
  7 15  1  0
 15 16  1  0
 15 17  2  0
 14 18  1  0
 14 19  1  0
M  END

$$$$
No_4285-/export/home/yangzhenyu/potential_scad_32_flow//YTHDC2/2024-12-06-03-22-00/
     RDKit          3D

 18 18  0  0  1  0  0  0  0  0999 V2000
    1.1787   -8.0297    3.5154 C   0  0  0  0  0  0  0  0  0  0  0  0
    1.1048   -9.2215    3.2892 C   0  0  0  0  0  0  0  0  0  0  0  0
    1.3627  -10.1721    4.3044 C   0  0  0  0  0  0  0  0  0  0  0  0
    2.3720  -10.8948    4.2468 C   0  0  0  0  0  0  0  0  0  0  0  0
    1.0579   -7.0441    2.4219 C   0  0  0  0  0  0  0  0  0  0  0  0
    1.2054   -5.7250    2.5140 C   0  0  0  0  0  0  0  0  0  0  0  0
    2.1917  -12.1629    3.6499 N   0  0  0  0  0  0  0  0  0  0  0  0
    1.4524  -12.3240    2.5757 C   0  0  0  0  0  0  0  0  0  0  0  0
    1.5066  -13.6321    2.1657 C   0  0  2  0  0  0  0  0  0  0  0  0
    2.1556  -14.6216    2.6631 C   0  0  0  0  0  0  0  0  0  0  0  0
    1.8108  -13.6826    0.6471 C   0  0  0  0  0  0  0  0  0  0  0  0
    1.0062   -7.7108    1.1600 C   0  0  0  0  0  0  0  0  0  0  0  0
    1.0267   -8.9425    0.8385 C   0  0  0  0  0  0  0  0  0  0  0  0
    1.0192   -9.8443    1.9400 C   0  0  0  0  0  0  0  0  0  0  0  0
    0.8755   -9.4769   -0.4680 C   0  0  0  0  0  0  0  0  0  0  0  0
   -0.0131   -9.0829   -1.2065 O   0  0  0  0  0  0  0  0  0  0  0  0
    1.4823  -10.5069   -0.8063 O   0  0  0  0  0  0  0  0  0  0  0  0
    1.8462  -16.0501    2.3564 C   0  0  0  0  0  0  0  0  0  0  0  0
  2  3  1  0
  3  4  1  0
  5  6  1  0
  4  7  1  0
  7  8  1  0
  8  9  1  0
  9 10  1  0
  9 11  1  6
 13 15  1  0
 15 16  2  0
 15 17  1  0
 10 18  1  0
  1  2  2  0
  2 14  1  0
 13 14  2  0
 12 13  1  0
  5 12  2  0
  1  5  1  0
M  END

$$$$
No_4286-/export/home/yangzhenyu/potential_scad_32_flow//YTHDC2/2024-12-06-03-22-00/
     RDKit          3D

 17 17  0  0  1  0  0  0  0  0999 V2000
    1.1787   -8.0297    3.5154 N   0  0  0  0  0  0  0  0  0  0  0  0
    0.8669   -7.0905    2.8589 C   0  0  0  0  0  0  0  0  0  0  0  0
    1.0447   -7.3244    1.4123 C   0  0  0  0  0  0  0  0  0  0  0  0
    1.3746   -8.4389    1.0864 C   0  0  1  0  0  0  0  0  0  0  0  0
    1.8185   -8.7923   -0.3129 C   0  0  0  0  0  0  0  0  0  0  0  0
    1.7714   -9.1001    2.3120 C   0  0  2  0  0  0  0  0  0  0  0  0
    1.9752  -10.4533    2.5434 C   0  0  0  0  0  0  0  0  0  0  0  0
    2.0301  -10.8259    3.9425 C   0  0  1  0  0  0  0  0  0  0  0  0
    1.4493   -8.3554   -1.1874 O   0  0  0  0  0  0  0  0  0  0  0  0
    2.6500   -9.8413   -0.4761 O   0  0  0  0  0  0  0  0  0  0  0  0
    2.6368  -10.5407    4.7407 C   0  0  0  0  0  0  0  0  0  0  0  0
    0.5785  -10.9591    4.3182 C   0  0  0  0  0  0  0  0  0  0  0  0
    3.7882  -11.4196    5.3977 O   0  0  0  0  0  0  0  0  0  0  0  0
   -0.0274  -10.3043    5.0213 C   0  0  0  0  0  0  0  0  0  0  0  0
   -1.4788  -10.1666    4.9335 C   0  0  0  0  0  0  0  0  0  0  0  0
   -2.1220  -11.1220    4.1491 C   0  0  0  0  0  0  0  0  0  0  0  0
   -1.4677  -11.9860    3.3837 C   0  0  0  0  0  0  0  0  0  0  0  0
  1  2  1  0
  2  3  2  0
  3  4  1  0
  4  5  1  6
  1  6  1  0
  4  6  1  0
  6  7  1  1
  8  7  1  6
  5  9  2  0
  5 10  1  0
  8 11  1  0
  8 12  1  0
 11 13  1  0
 12 14  1  0
 14 15  2  3
 15 16  1  0
 16 17  2  0
M  END

$$$$
No_4287-/export/home/yangzhenyu/potential_scad_32_flow//YTHDC2/2024-12-06-03-22-00/
     RDKit          3D

 19 20  0  0  1  0  0  0  0  0999 V2000
    1.1787   -8.0297    3.5154 N   0  0  0  0  0  0  0  0  0  0  0  0
    0.8669   -7.0905    2.8589 C   0  0  0  0  0  0  0  0  0  0  0  0
    1.0447   -7.3244    1.4123 C   0  0  0  0  0  0  0  0  0  0  0  0
    1.3746   -8.4389    1.0864 C   0  0  1  0  0  0  0  0  0  0  0  0
    1.8185   -8.7923   -0.3129 C   0  0  0  0  0  0  0  0  0  0  0  0
    1.7714   -9.1001    2.3120 C   0  0  0  0  0  0  0  0  0  0  0  0
    1.2944   -8.3158   -1.1922 O   0  0  0  0  0  0  0  0  0  0  0  0
    2.5193   -9.9183   -0.4702 O   0  0  0  0  0  0  0  0  0  0  0  0
    2.1136  -10.4379    2.5447 C   0  0  0  0  0  0  0  0  0  0  0  0
    1.2367  -11.3136    3.1644 C   0  0  2  0  0  0  0  0  0  0  0  0
    1.6904  -12.5196    3.5299 C   0  0  0  0  0  0  0  0  0  0  0  0
    0.8366  -13.6483    3.0796 C   0  0  0  0  0  0  0  0  0  0  0  0
   -0.3401  -13.2485    2.6139 C   0  0  0  0  0  0  0  0  0  0  0  0
   -0.0541  -11.6639    2.5259 C   0  0  0  0  0  0  0  0  0  0  0  0
    1.2696  -14.9094    3.1954 C   0  0  0  0  0  0  0  0  0  0  0  0
    0.2571  -15.8907    3.3544 C   0  0  0  0  0  0  0  0  0  0  0  0
    0.3134  -16.8371    3.7729 C   0  0  0  0  0  0  0  0  0  0  0  0
    1.2312  -17.9097    3.7785 C   0  0  0  0  0  0  0  0  0  0  0  0
    1.2010  -19.0603    4.4360 C   0  0  0  0  0  0  0  0  0  0  0  0
  1  2  1  0
  2  3  2  0
  3  4  1  0
  4  5  1  6
  1  6  2  0
  4  6  1  0
  5  7  2  0
  5  8  1  0
  6  9  1  0
 10  9  1  6
 10 11  1  0
 11 12  1  0
 12 13  1  0
 10 14  1  0
 13 14  1  0
 12 15  1  0
 15 16  2  3
 16 17  1  0
 17 18  2  3
 18 19  1  0
M  END

$$$$
No_4288-/export/home/yangzhenyu/potential_scad_32_flow//YTHDC2/2024-12-06-03-22-00/
     RDKit          3D

 19 19  0  0  0  0  0  0  0  0999 V2000
    1.1787   -8.0297    3.5154 Cl  0  0  0  0  0  0  0  0  0  0  0  0
    0.6122   -7.9650    2.5747 C   0  0  0  0  0  0  0  0  0  0  0  0
    0.4809   -9.1882    1.8138 C   0  0  0  0  0  0  0  0  0  0  0  0
    0.0192   -9.0891    0.5546 C   0  0  0  0  0  0  0  0  0  0  0  0
   -0.4655   -7.9863   -0.1524 C   0  0  0  0  0  0  0  0  0  0  0  0
   -0.3636   -6.8187    0.6504 C   0  0  0  0  0  0  0  0  0  0  0  0
   -0.9625   -5.5985    0.2120 C   0  0  0  0  0  0  0  0  0  0  0  0
    0.1968   -6.7444    1.8820 C   0  0  0  0  0  0  0  0  0  0  0  0
    0.4311   -5.5726    2.5526 C   0  0  0  0  0  0  0  0  0  0  0  0
    1.1304   -4.6650    2.4999 C   0  0  0  0  0  0  0  0  0  0  0  0
    1.2196   -3.4017    3.1968 C   0  0  0  0  0  0  0  0  0  0  0  0
    1.0608  -10.6711    2.3340 C   0  0  0  0  0  0  0  0  0  0  0  0
    1.8865  -11.1977    1.6388 C   0  0  0  0  0  0  0  0  0  0  0  0
    2.6514  -10.7614    0.7726 O   0  0  0  0  0  0  0  0  0  0  0  0
    2.0851  -12.5149    1.8433 O   0  0  0  0  0  0  0  0  0  0  0  0
    1.1995   -2.3530    2.4794 C   0  0  0  0  0  0  0  0  0  0  0  0
    0.3265   -1.4564    2.6100 C   0  0  0  0  0  0  0  0  0  0  0  0
    0.2308   -0.3932    1.7481 C   0  0  0  0  0  0  0  0  0  0  0  0
    1.2272   -0.3127    0.7084 C   0  0  0  0  0  0  0  0  0  0  0  0
  1  2  1  0
  6  7  1  0
  8  9  1  0
  9 10  2  3
 10 11  1  0
  3 12  1  0
 12 13  1  0
 13 14  2  0
 13 15  1  0
 11 16  1  0
 16 17  1  0
 17 18  2  3
 18 19  1  0
  2  3  2  0
  3  4  1  0
  4  5  2  0
  5  6  1  0
  6  8  2  0
  2  8  1  0
M  END

$$$$
No_4289-/export/home/yangzhenyu/potential_scad_32_flow//YTHDC2/2024-12-06-03-22-00/
     RDKit          3D

 18 19  0  0  0  0  0  0  0  0999 V2000
    1.1787   -8.0297    3.5154 C   0  0  0  0  0  0  0  0  0  0  0  0
    1.1048   -9.2215    3.2892 C   0  0  0  0  0  0  0  0  0  0  0  0
    1.3627  -10.1721    4.3044 C   0  0  0  0  0  0  0  0  0  0  0  0
    2.3720  -10.8948    4.2468 C   0  0  0  0  0  0  0  0  0  0  0  0
    0.8234   -7.0464    2.5717 C   0  0  0  0  0  0  0  0  0  0  0  0
    0.4328   -7.4736    1.3042 C   0  0  0  0  0  0  0  0  0  0  0  0
    0.3532   -8.7488    0.9919 C   0  0  0  0  0  0  0  0  0  0  0  0
    0.7039   -9.7094    1.9672 C   0  0  0  0  0  0  0  0  0  0  0  0
    0.6986  -10.9809    1.7122 C   0  0  0  0  0  0  0  0  0  0  0  0
    0.2380  -11.4707    0.7534 C   0  0  0  0  0  0  0  0  0  0  0  0
    0.0684  -12.8479    0.4204 C   0  0  0  0  0  0  0  0  0  0  0  0
   -0.8200  -13.3602   -0.4070 C   0  0  0  0  0  0  0  0  0  0  0  0
   -0.7353  -14.7897   -0.6418 C   0  0  0  0  0  0  0  0  0  0  0  0
    1.0390   -5.5575    2.8100 C   0  0  0  0  0  0  0  0  0  0  0  0
   -1.4444  -15.1693   -1.6798 C   0  0  0  0  0  0  0  0  0  0  0  0
   -2.3387  -14.4145   -2.3755 C   0  0  0  0  0  0  0  0  0  0  0  0
   -2.4405  -13.0969   -2.0873 C   0  0  0  0  0  0  0  0  0  0  0  0
   -1.7071  -12.5387   -1.0346 C   0  0  0  0  0  0  0  0  0  0  0  0
  2  3  1  0
  3  4  1  0
  8  9  1  0
  9 10  2  3
 10 11  1  0
  5 14  1  0
 11 12  1  0
 12 13  2  0
 13 15  1  0
 15 16  2  0
 16 17  1  0
 17 18  2  0
 12 18  1  0
  1  2  2  0
  2  8  1  0
  7  8  2  0
  6  7  1  0
  5  6  2  0
  1  5  1  0
M  END

$$$$
No_4290-/export/home/yangzhenyu/potential_scad_32_flow//YTHDC2/2024-12-06-03-22-00/
     RDKit          3D

 15 16  0  0  0  0  0  0  0  0999 V2000
    1.1787   -8.0297    3.5154 C   0  0  0  0  0  0  0  0  0  0  0  0
    1.1048   -9.2215    3.2892 C   0  0  0  0  0  0  0  0  0  0  0  0
    1.2339   -9.7611    2.0189 C   0  0  0  0  0  0  0  0  0  0  0  0
    1.3583   -9.0036    0.9764 C   0  0  0  0  0  0  0  0  0  0  0  0
    1.5996   -7.6362    1.1311 C   0  0  0  0  0  0  0  0  0  0  0  0
    1.4830   -7.0928    2.3626 C   0  0  0  0  0  0  0  0  0  0  0  0
    1.4898   -5.7274    2.6199 N   0  0  0  0  0  0  0  0  0  0  0  0
    1.1838  -11.3728    1.8655 C   0  0  0  0  0  0  0  0  0  0  0  0
    1.7830  -12.1230    2.5686 C   0  0  0  0  0  0  0  0  0  0  0  0
    1.6111  -13.5104    2.2574 C   0  0  0  0  0  0  0  0  0  0  0  0
    0.9116  -13.8980    1.1785 C   0  0  0  0  0  0  0  0  0  0  0  0
    0.3209  -12.9564    0.3494 C   0  0  0  0  0  0  0  0  0  0  0  0
    0.4642  -11.6576    0.6379 C   0  0  0  0  0  0  0  0  0  0  0  0
    1.1513   -4.9107    1.6804 O   0  0  0  0  0  0  0  0  0  0  0  0
    2.1909  -14.4740    3.1110 O   0  0  0  0  0  0  0  0  0  0  0  0
  6  7  1  0
  3  8  1  0
  7 14  2  0
 10 15  1  0
  1  2  2  0
  2  3  1  0
  3  4  2  0
  4  5  1  0
  5  6  2  0
  1  6  1  0
  8  9  2  0
  9 10  1  0
 10 11  2  0
 11 12  1  0
 12 13  2  0
  8 13  1  0
M  END

$$$$
No_4291-/export/home/yangzhenyu/potential_scad_32_flow//YTHDC2/2024-12-06-03-22-00/
     RDKit          3D

 18 19  0  0  0  0  0  0  0  0999 V2000
    1.1787   -8.0297    3.5154 C   0  0  0  0  0  0  0  0  0  0  0  0
    1.0491   -6.8434    2.9820 C   0  0  0  0  0  0  0  0  0  0  0  0
    0.9905   -9.0774    2.6527 C   0  0  0  0  0  0  0  0  0  0  0  0
    1.1655  -10.4663    3.1286 C   0  0  0  0  0  0  0  0  0  0  0  0
    1.2197  -11.4898    2.5831 C   0  0  0  0  0  0  0  0  0  0  0  0
    1.0589  -11.4458    1.1293 C   0  0  0  0  0  0  0  0  0  0  0  0
    0.9638  -10.3069    0.4651 C   0  0  0  0  0  0  0  0  0  0  0  0
    0.9191   -9.0789    1.1942 C   0  0  0  0  0  0  0  0  0  0  0  0
    0.9103   -7.8220    0.6974 C   0  0  0  0  0  0  0  0  0  0  0  0
    1.0140   -6.6889    1.5108 C   0  0  0  0  0  0  0  0  0  0  0  0
    0.7513   -7.6341   -0.4649 O   0  0  0  0  0  0  0  0  0  0  0  0
    1.3227  -12.8060    3.1122 C   0  0  0  0  0  0  0  0  0  0  0  0
    0.2120  -13.7108    2.9590 N   0  0  0  0  0  0  0  0  0  0  0  0
    0.4835  -15.0099    3.2552 C   0  0  0  0  0  0  0  0  0  0  0  0
   -0.3800  -15.9959    3.2345 C   0  0  0  0  0  0  0  0  0  0  0  0
   -0.1671  -17.2547    3.7507 C   0  0  0  0  0  0  0  0  0  0  0  0
    1.1262  -17.5961    4.0996 C   0  0  0  0  0  0  0  0  0  0  0  0
    2.2042  -16.6741    3.8612 C   0  0  0  0  0  0  0  0  0  0  0  0
  1  2  1  0
  8  9  1  0
  2 10  1  0
  9 10  1  0
  9 11  2  0
  5 12  1  0
 12 13  1  0
 13 14  1  0
 14 15  1  0
 15 16  2  3
 16 17  1  0
 17 18  2  0
  1  3  1  0
  3  4  2  0
  4  5  1  0
  5  6  2  0
  6  7  1  0
  7  8  2  0
  3  8  1  0
M  END

$$$$
No_4292-/export/home/yangzhenyu/potential_scad_32_flow//YTHDC2/2024-12-06-03-22-00/
     RDKit          3D

 18 20  0  0  0  0  0  0  0  0999 V2000
    1.1787   -8.0297    3.5154 N   0  0  0  0  0  0  0  0  0  0  0  0
    0.8669   -7.0905    2.8589 C   0  0  0  0  0  0  0  0  0  0  0  0
    0.8842   -5.8387    3.2677 C   0  0  0  0  0  0  0  0  0  0  0  0
    1.2819   -9.4050    3.1259 C   0  0  0  0  0  0  0  0  0  0  0  0
    0.9577   -9.7285    2.0210 C   0  0  0  0  0  0  0  0  0  0  0  0
    0.5397   -8.8365    1.1063 C   0  0  0  0  0  0  0  0  0  0  0  0
    0.5474   -7.4800    1.4498 C   0  0  0  0  0  0  0  0  0  0  0  0
    0.1668   -6.5474    0.6211 N   0  0  0  0  0  0  0  0  0  0  0  0
    1.8252  -10.5064    4.3041 Cl  0  0  0  0  0  0  0  0  0  0  0  0
   -0.1037   -4.9789    2.8925 C   0  0  0  0  0  0  0  0  0  0  0  0
   -0.1343   -3.6028    3.2165 C   0  0  0  0  0  0  0  0  0  0  0  0
   -0.2168   -5.2491    1.3150 C   0  0  0  0  0  0  0  0  0  0  0  0
    1.1005  -11.3371    1.4276 C   0  0  0  0  0  0  0  0  0  0  0  0
    0.1140  -11.7209    1.1404 C   0  0  0  0  0  0  0  0  0  0  0  0
    0.0831  -13.0799    0.7035 C   0  0  0  0  0  0  0  0  0  0  0  0
    0.9995  -13.8990    1.3462 C   0  0  0  0  0  0  0  0  0  0  0  0
    2.1110  -13.4463    1.8816 C   0  0  0  0  0  0  0  0  0  0  0  0
    2.1502  -11.9976    2.0942 C   0  0  0  0  0  0  0  0  0  0  0  0
  4  9  1  0
 10 11  1  0
  5 13  1  0
 13 14  1  0
 14 15  1  0
 15 16  1  0
 16 17  1  0
 13 18  1  0
 17 18  1  0
  2  3  1  0
  3 10  2  0
 10 12  1  0
  8 12  2  0
  7  8  1  0
  1  2  2  0
  2  7  1  0
  6  7  2  0
  5  6  1  0
  4  5  2  0
  1  4  1  0
M  END

$$$$
No_4293-/export/home/yangzhenyu/potential_scad_32_flow//YTHDC2/2024-12-06-03-22-00/
     RDKit          3D

 19 19  0  0  1  0  0  0  0  0999 V2000
    1.1787   -8.0297    3.5154 C   0  0  0  0  0  0  0  0  0  0  0  0
    1.0491   -6.8434    2.9820 C   0  0  0  0  0  0  0  0  0  0  0  0
    0.9905   -9.0774    2.6527 C   0  0  0  0  0  0  0  0  0  0  0  0
    0.7897   -8.9519    1.3691 C   0  0  0  0  0  0  0  0  0  0  0  0
    0.7018   -7.7198    0.7892 C   0  0  0  0  0  0  0  0  0  0  0  0
    0.8918   -6.5957    1.6117 C   0  0  0  0  0  0  0  0  0  0  0  0
    1.0711  -10.4814    3.2282 C   0  0  1  0  0  0  0  0  0  0  0  0
   -0.1055  -11.1328    3.5223 C   0  0  0  0  0  0  0  0  0  0  0  0
   -1.2061  -10.3495    3.8837 C   0  0  0  0  0  0  0  0  0  0  0  0
   -2.3575  -10.4930    3.2158 C   0  0  0  0  0  0  0  0  0  0  0  0
   -3.4916   -9.6901    3.6596 C   0  0  0  0  0  0  0  0  0  0  0  0
    2.2850  -11.1179    3.2983 C   0  0  0  0  0  0  0  0  0  0  0  0
   -0.2893  -12.3235    3.1521 O   0  0  0  0  0  0  0  0  0  0  0  0
   -3.4884   -8.3401    3.9064 O   0  0  0  0  0  0  0  0  0  0  0  0
   -4.7175  -10.1421    3.4311 O   0  0  0  0  0  0  0  0  0  0  0  0
    2.8460  -11.0020    4.6559 C   0  0  0  0  0  0  0  0  0  0  0  0
    0.8930   -5.2876    1.1122 Cl  0  0  0  0  0  0  0  0  0  0  0  0
    3.7399  -10.0007    5.0587 O   0  0  0  0  0  0  0  0  0  0  0  0
    2.8260  -11.9308    5.4336 O   0  0  0  0  0  0  0  0  0  0  0  0
  3  7  1  0
  7  8  1  0
  8  9  1  0
  9 10  2  3
 10 11  1  0
  7 12  1  6
  8 13  2  0
 11 14  2  0
 11 15  1  0
 12 16  1  0
  6 17  1  0
 16 18  2  0
 16 19  1  0
  1  2  2  0
  2  6  1  0
  5  6  2  0
  4  5  1  0
  3  4  2  0
  1  3  1  0
M  END

$$$$
No_4294-/export/home/yangzhenyu/potential_scad_32_flow//YTHDC2/2024-12-06-03-22-00/
     RDKit          3D

 19 19  0  0  1  0  0  0  0  0999 V2000
    1.1787   -8.0297    3.5154 C   0  0  0  0  0  0  0  0  0  0  0  0
    1.1048   -9.2215    3.2892 C   0  0  0  0  0  0  0  0  0  0  0  0
    1.3627  -10.1721    4.3044 C   0  0  0  0  0  0  0  0  0  0  0  0
    1.0682  -11.5187    4.0618 C   0  0  0  0  0  0  0  0  0  0  0  0
    0.6332  -11.9655    2.9682 C   0  0  0  0  0  0  0  0  0  0  0  0
    0.4776  -11.1308    1.9203 C   0  0  0  0  0  0  0  0  0  0  0  0
    0.7470   -9.8274    2.0368 C   0  0  0  0  0  0  0  0  0  0  0  0
    1.8805   -7.1616    3.5538 C   0  0  0  0  0  0  0  0  0  0  0  0
    0.3661  -13.4265    2.7867 Cl  0  0  0  0  0  0  0  0  0  0  0  0
    0.8768   -9.0114    0.9504 C   0  0  1  0  0  0  0  0  0  0  0  0
    2.0726   -8.8199    0.2140 C   0  0  0  0  0  0  0  0  0  0  0  0
    3.0503   -9.4757    0.3608 O   0  0  0  0  0  0  0  0  0  0  0  0
    2.2650   -7.8195   -0.6445 O   0  0  0  0  0  0  0  0  0  0  0  0
   -0.1409   -8.5073    0.3131 C   0  0  2  0  0  0  0  0  0  0  0  0
   -1.0422   -7.6822    0.7801 C   0  0  0  0  0  0  0  0  0  0  0  0
   -1.4071   -6.6927    0.6671 C   0  0  0  0  0  0  0  0  0  0  0  0
   -0.4366   -8.8965   -1.0346 C   0  0  0  0  0  0  0  0  0  0  0  0
   -1.6575   -8.6822   -1.6221 O   0  0  0  0  0  0  0  0  0  0  0  0
   -2.4512   -5.8247    1.3146 O   0  0  0  0  0  0  0  0  0  0  0  0
  1  2  1  0
  1  8  2  0
  5  9  1  0
  7 10  1  0
 10 11  1  6
 11 12  1  0
 11 13  2  0
 10 14  1  0
 14 15  1  0
 15 16  2  3
 14 17  1  1
 17 18  2  0
 16 19  1  0
  2  3  2  0
  3  4  1  0
  4  5  2  0
  5  6  1  0
  6  7  2  0
  2  7  1  0
M  END

$$$$
No_4295-/export/home/yangzhenyu/potential_scad_32_flow//YTHDC2/2024-12-06-03-22-00/
     RDKit          3D

 19 19  0  0  1  0  0  0  0  0999 V2000
    1.1787   -8.0297    3.5154 C   0  0  0  0  0  0  0  0  0  0  0  0
    1.1048   -9.2215    3.2892 C   0  0  0  0  0  0  0  0  0  0  0  0
    1.2339   -9.7611    2.0189 C   0  0  0  0  0  0  0  0  0  0  0  0
    1.3583   -9.0036    0.9764 C   0  0  0  0  0  0  0  0  0  0  0  0
    1.5996   -7.6362    1.1311 C   0  0  0  0  0  0  0  0  0  0  0  0
    1.4830   -7.0928    2.3626 C   0  0  0  0  0  0  0  0  0  0  0  0
    1.1008  -11.2372    1.8542 C   0  0  0  0  0  0  0  0  0  0  0  0
    0.5178  -11.9759    2.3445 C   0  0  0  0  0  0  0  0  0  0  0  0
    0.4575  -13.3705    2.1281 C   0  0  2  0  0  0  0  0  0  0  0  0
   -0.4455  -13.9844    1.5571 C   0  0  0  0  0  0  0  0  0  0  0  0
    1.5167  -14.2109    2.7556 C   0  0  0  0  0  0  0  0  0  0  0  0
    1.5780   -5.6524    2.6404 O   0  0  0  0  0  0  0  0  0  0  0  0
    1.4827  -15.5982    2.6257 C   0  0  0  0  0  0  0  0  0  0  0  0
    0.6007  -16.3319    3.4502 C   0  0  0  0  0  0  0  0  0  0  0  0
    0.2923  -17.3317    3.2346 C   0  0  0  0  0  0  0  0  0  0  0  0
   -0.6151  -18.0538    4.1900 C   0  0  0  0  0  0  0  0  0  0  0  0
    1.5009   -9.3721   -0.3907 Cl  0  0  0  0  0  0  0  0  0  0  0  0
   -1.8578  -17.9046    4.3179 C   0  0  0  0  0  0  0  0  0  0  0  0
   -2.5007  -18.5020    5.3446 C   0  0  0  0  0  0  0  0  0  0  0  0
  3  7  1  0
  7  8  2  3
  8  9  1  0
  9 10  1  1
  9 11  1  0
  6 12  1  0
 11 13  1  0
 13 14  1  0
 14 15  2  3
 15 16  1  0
  4 17  1  0
 16 18  2  3
 18 19  1  0
  1  2  2  0
  2  3  1  0
  3  4  2  0
  4  5  1  0
  5  6  2  0
  1  6  1  0
M  END

$$$$
No_4296-/export/home/yangzhenyu/potential_scad_32_flow//YTHDC2/2024-12-06-03-22-00/
     RDKit          3D

 18 19  0  0  0  0  0  0  0  0999 V2000
    1.1787   -8.0297    3.5154 C   0  0  0  0  0  0  0  0  0  0  0  0
    1.1048   -9.2215    3.2892 C   0  0  0  0  0  0  0  0  0  0  0  0
    1.3627  -10.1721    4.3044 C   0  0  0  0  0  0  0  0  0  0  0  0
    1.0682  -11.5187    4.0618 C   0  0  0  0  0  0  0  0  0  0  0  0
    0.7653  -11.7320    2.7387 C   0  0  0  0  0  0  0  0  0  0  0  0
    0.7465  -10.3365    2.0821 C   0  0  0  0  0  0  0  0  0  0  0  0
    0.7437   -7.0951    2.5115 C   0  0  0  0  0  0  0  0  0  0  0  0
   -0.1957   -7.2136    1.6962 C   0  0  0  0  0  0  0  0  0  0  0  0
   -1.3531   -7.7368    2.1580 C   0  0  0  0  0  0  0  0  0  0  0  0
   -2.4484   -7.9351    1.4241 C   0  0  0  0  0  0  0  0  0  0  0  0
   -3.5308   -8.5475    1.8215 C   0  0  0  0  0  0  0  0  0  0  0  0
   -3.5710   -8.8976    3.1640 C   0  0  0  0  0  0  0  0  0  0  0  0
   -2.4885   -8.7555    4.0781 C   0  0  0  0  0  0  0  0  0  0  0  0
   -1.2908   -8.2249    3.5675 C   0  0  0  0  0  0  0  0  0  0  0  0
    0.5337  -12.7415    2.0730 C   0  0  0  0  0  0  0  0  0  0  0  0
    1.1766  -13.9214    2.4895 C   0  0  0  0  0  0  0  0  0  0  0  0
    2.2228  -14.3912    1.9522 C   0  0  0  0  0  0  0  0  0  0  0  0
    2.1829  -15.2907    1.0656 C   0  0  0  0  0  0  0  0  0  0  0  0
  1  2  1  0
  2  3  1  0
  3  4  2  0
  4  5  1  0
  2  6  1  0
  5  6  1  0
  1  7  2  3
  7  8  1  0
  5 15  1  0
 15 16  1  0
 16 17  1  0
 17 18  1  0
  8  9  1  0
  9 10  2  0
 10 11  1  0
 11 12  2  0
 12 13  1  0
 13 14  2  0
  9 14  1  0
M  END

$$$$
No_4297-/export/home/yangzhenyu/potential_scad_32_flow//YTHDC2/2024-12-06-03-22-00/
     RDKit          3D

 20 21  0  0  0  0  0  0  0  0999 V2000
    1.1787   -8.0297    3.5154 C   0  0  0  0  0  0  0  0  0  0  0  0
    1.1048   -9.2215    3.2892 C   0  0  0  0  0  0  0  0  0  0  0  0
    1.2339   -9.7611    2.0189 C   0  0  0  0  0  0  0  0  0  0  0  0
    1.3583   -9.0036    0.9764 C   0  0  0  0  0  0  0  0  0  0  0  0
    1.5996   -7.6362    1.1311 C   0  0  0  0  0  0  0  0  0  0  0  0
    1.4830   -7.0928    2.3626 C   0  0  0  0  0  0  0  0  0  0  0  0
    1.5395   -5.7300    2.6182 C   0  0  0  0  0  0  0  0  0  0  0  0
    1.1775  -11.2233    1.8407 C   0  0  0  0  0  0  0  0  0  0  0  0
    1.9057  -12.1147    2.3397 C   0  0  0  0  0  0  0  0  0  0  0  0
    1.6867  -13.4551    2.0621 C   0  0  0  0  0  0  0  0  0  0  0  0
    0.7025  -13.8511    1.3021 C   0  0  0  0  0  0  0  0  0  0  0  0
   -0.0316  -12.4995    0.8276 C   0  0  0  0  0  0  0  0  0  0  0  0
    0.1725  -11.5173    0.9644 C   0  0  0  0  0  0  0  0  0  0  0  0
    0.6224   -4.8885    2.7767 N   0  0  0  0  0  0  0  0  0  0  0  0
    0.7978   -3.5380    3.2058 C   0  0  0  0  0  0  0  0  0  0  0  0
    2.4823  -14.4560    2.7602 Cl  0  0  0  0  0  0  0  0  0  0  0  0
   -0.6215  -10.5613    0.3640 C   0  0  0  0  0  0  0  0  0  0  0  0
   -0.6040  -10.2773   -0.9659 C   0  0  0  0  0  0  0  0  0  0  0  0
   -1.5552   -9.3633   -1.6501 C   0  0  0  0  0  0  0  0  0  0  0  0
   -2.5234   -8.8847   -0.8507 C   0  0  0  0  0  0  0  0  0  0  0  0
  6  7  1  0
  3  8  1  0
  7 14  1  0
 14 15  1  0
 10 16  1  0
 13 17  1  0
 17 18  1  0
 18 19  2  3
 19 20  1  0
  1  2  2  0
  2  3  1  0
  3  4  2  0
  4  5  1  0
  5  6  2  0
  1  6  1  0
  8  9  2  0
  9 10  1  0
 10 11  2  0
 11 12  1  0
 12 13  2  0
  8 13  1  0
M  END

$$$$
No_4298-/export/home/yangzhenyu/potential_scad_32_flow//YTHDC2/2024-12-06-03-22-00/
     RDKit          3D

 17 18  0  0  1  0  0  0  0  0999 V2000
    1.1787   -8.0297    3.5154 C   0  0  0  0  0  0  0  0  0  0  0  0
    1.1048   -9.2215    3.2892 C   0  0  0  0  0  0  0  0  0  0  0  0
    1.2339   -9.7611    2.0189 C   0  0  0  0  0  0  0  0  0  0  0  0
    1.3583   -9.0036    0.9764 C   0  0  0  0  0  0  0  0  0  0  0  0
    1.5996   -7.6362    1.1311 C   0  0  0  0  0  0  0  0  0  0  0  0
    1.4830   -7.0928    2.3626 C   0  0  0  0  0  0  0  0  0  0  0  0
    1.5395   -5.7300    2.6182 C   0  0  0  0  0  0  0  0  0  0  0  0
    1.1775  -11.2233    1.8407 C   0  0  0  0  0  0  0  0  0  0  0  0
    0.7252  -11.5870    0.5412 C   0  0  0  0  0  0  0  0  0  0  0  0
    0.5994  -13.0100    0.4511 C   0  0  0  0  0  0  0  0  0  0  0  0
    0.9545  -13.8873    1.4441 C   0  0  2  0  0  0  0  0  0  0  0  0
    1.4784  -13.3975    2.6594 C   0  0  0  0  0  0  0  0  0  0  0  0
    1.5766  -12.0395    2.8884 C   0  0  0  0  0  0  0  0  0  0  0  0
    2.1181  -11.5379    3.9767 O   0  0  0  0  0  0  0  0  0  0  0  0
    1.6595   -5.1450    3.8873 N   0  0  0  0  0  0  0  0  0  0  0  0
    1.0770   -4.8497    1.6399 O   0  0  0  0  0  0  0  0  0  0  0  0
    0.9395  -15.2404    1.2408 O   0  0  0  0  0  0  0  0  0  0  0  0
  6  7  1  0
  3  8  1  0
  8  9  1  0
 10 11  1  0
  8 13  1  0
 12 13  1  0
 13 14  2  0
  7 15  1  0
  7 16  2  0
 11 17  1  6
  9 10  1  0
 11 12  1  0
  1  2  2  0
  2  3  1  0
  3  4  2  0
  4  5  1  0
  5  6  2  0
  1  6  1  0
M  END

$$$$
No_4299-/export/home/yangzhenyu/potential_scad_32_flow//YTHDC2/2024-12-06-03-22-00/
     RDKit          3D

 19 21  0  0  0  0  0  0  0  0999 V2000
    1.1787   -8.0297    3.5154 C   0  0  0  0  0  0  0  0  0  0  0  0
    1.1048   -9.2215    3.2892 C   0  0  0  0  0  0  0  0  0  0  0  0
    1.3627  -10.1721    4.3044 C   0  0  0  0  0  0  0  0  0  0  0  0
    1.0682  -11.5187    4.0618 C   0  0  0  0  0  0  0  0  0  0  0  0
    0.6332  -11.9655    2.9682 C   0  0  0  0  0  0  0  0  0  0  0  0
    0.4776  -11.1308    1.9203 C   0  0  0  0  0  0  0  0  0  0  0  0
    0.7470   -9.8274    2.0368 C   0  0  0  0  0  0  0  0  0  0  0  0
    1.0387   -7.0301    2.5175 C   0  0  0  0  0  0  0  0  0  0  0  0
    0.9130   -7.5288    1.2013 C   0  0  0  0  0  0  0  0  0  0  0  0
    0.7893   -8.7979    0.9542 C   0  0  0  0  0  0  0  0  0  0  0  0
    0.3998  -13.3695    2.7114 C   0  0  0  0  0  0  0  0  0  0  0  0
    1.2819  -14.3216    3.1282 C   0  0  0  0  0  0  0  0  0  0  0  0
    1.4367  -15.5457    2.5224 C   0  0  0  0  0  0  0  0  0  0  0  0
    0.5740  -15.9057    1.6176 C   0  0  0  0  0  0  0  0  0  0  0  0
   -0.2969  -15.0257    1.0910 C   0  0  0  0  0  0  0  0  0  0  0  0
   -0.3601  -13.7368    1.6512 C   0  0  0  0  0  0  0  0  0  0  0  0
    0.4404   -9.2877   -0.5179 C   0  0  0  0  0  0  0  0  0  0  0  0
    1.2480   -9.1757   -1.3567 O   0  0  0  0  0  0  0  0  0  0  0  0
   -0.8805   -9.0165   -0.8520 O   0  0  0  0  0  0  0  0  0  0  0  0
  5 11  1  0
 10 17  1  0
 17 18  2  0
 17 19  1  0
 11 12  2  0
 12 13  1  0
 13 14  2  0
 14 15  1  0
 15 16  2  0
 11 16  1  0
  2  3  1  0
  3  4  2  0
  4  5  1  0
  5  6  2  0
  6  7  1  0
  1  2  2  0
  2  7  1  0
  7 10  2  0
  9 10  1  0
  8  9  2  0
  1  8  1  0
M  END

$$$$
No_4300-/export/home/yangzhenyu/potential_scad_32_flow//YTHDC2/2024-12-06-03-22-00/
     RDKit          3D

 22 23  0  0  1  0  0  0  0  0999 V2000
    1.1787   -8.0297    3.5154 C   0  0  0  0  0  0  0  0  0  0  0  0
    1.1048   -9.2215    3.2892 C   0  0  0  0  0  0  0  0  0  0  0  0
    1.3627  -10.1721    4.3044 C   0  0  0  0  0  0  0  0  0  0  0  0
    1.0682  -11.5187    4.0618 C   0  0  0  0  0  0  0  0  0  0  0  0
    0.6332  -11.9655    2.9682 C   0  0  0  0  0  0  0  0  0  0  0  0
    0.4776  -11.1308    1.9203 C   0  0  0  0  0  0  0  0  0  0  0  0
    0.7470   -9.8274    2.0368 C   0  0  0  0  0  0  0  0  0  0  0  0
    1.0387   -7.0301    2.5175 C   0  0  2  0  0  0  0  0  0  0  0  0
    0.9130   -7.5288    1.2013 C   0  0  0  0  0  0  0  0  0  0  0  0
    0.7893   -8.7979    0.9542 C   0  0  2  0  0  0  0  0  0  0  0  0
    0.5241   -9.2578   -0.2817 C   0  0  0  0  0  0  0  0  0  0  0  0
    1.2450   -9.2169   -1.2769 O   0  0  0  0  0  0  0  0  0  0  0  0
   -0.8706   -9.3448   -0.6392 O   0  0  0  0  0  0  0  0  0  0  0  0
    0.5164  -13.3827    2.7090 O   0  0  0  0  0  0  0  0  0  0  0  0
    0.9237  -14.0423    1.6867 C   0  0  0  0  0  0  0  0  0  0  0  0
    1.3250  -15.2655    1.9278 C   0  0  0  0  0  0  0  0  0  0  0  0
    2.2549  -15.8676    1.6240 O   0  0  0  0  0  0  0  0  0  0  0  0
    0.3090  -15.9890    2.2787 O   0  0  0  0  0  0  0  0  0  0  0  0
    1.3180   -5.6100    2.7027 C   0  0  0  0  0  0  0  0  0  0  0  0
    0.8469   -6.6812    0.2829 O   0  0  0  0  0  0  0  0  0  0  0  0
    1.8019   -5.1796    3.8291 N   0  0  0  0  0  0  0  0  0  0  0  0
    1.0382   -4.7067    1.8271 O   0  0  0  0  0  0  0  0  0  0  0  0
  1  2  1  0
  8  9  1  0
  7 10  1  0
  9 10  1  0
 10 11  1  1
 11 12  2  0
 11 13  1  0
  5 14  1  0
 14 15  1  0
 15 16  1  0
 16 17  2  0
 16 18  1  0
  8 19  1  6
  9 20  2  0
 19 21  1  0
 19 22  2  0
  1  8  1  0
  2  3  2  0
  3  4  1  0
  4  5  2  0
  5  6  1  0
  6  7  2  0
  2  7  1  0
M  END

$$$$
No_4301-/export/home/yangzhenyu/potential_scad_32_flow//YTHDC2/2024-12-06-03-22-00/
     RDKit          3D

 16 18  0  0  0  0  0  0  0  0999 V2000
    1.1787   -8.0297    3.5154 C   0  0  0  0  0  0  0  0  0  0  0  0
    1.0491   -6.8434    2.9820 N   0  0  0  0  0  0  0  0  0  0  0  0
    0.1476   -8.8697    3.1493 C   0  0  0  0  0  0  0  0  0  0  0  0
   -0.7634   -8.3679    2.4311 C   0  0  0  0  0  0  0  0  0  0  0  0
   -0.1709   -6.9105    2.2426 C   0  0  0  0  0  0  0  0  0  0  0  0
    0.1600  -10.2773    3.5999 C   0  0  0  0  0  0  0  0  0  0  0  0
   -0.9059  -10.9979    3.4306 C   0  0  0  0  0  0  0  0  0  0  0  0
   -2.0067  -10.4048    2.6638 C   0  0  0  0  0  0  0  0  0  0  0  0
   -1.8667   -9.0639    2.2281 C   0  0  0  0  0  0  0  0  0  0  0  0
   -0.7980   -5.8169    1.6023 C   0  0  0  0  0  0  0  0  0  0  0  0
   -0.2438   -4.6068    1.6796 C   0  0  0  0  0  0  0  0  0  0  0  0
   -0.9100   -3.6205    0.9300 C   0  0  0  0  0  0  0  0  0  0  0  0
   -1.9960   -3.8529    0.1326 C   0  0  0  0  0  0  0  0  0  0  0  0
   -2.4534   -5.0812   -0.0473 C   0  0  0  0  0  0  0  0  0  0  0  0
   -1.7982   -6.1784    0.6666 C   0  0  0  0  0  0  0  0  0  0  0  0
   -3.1553  -11.0749    2.4208 C   0  0  0  0  0  0  0  0  0  0  0  0
  1  2  1  0
  2  5  2  0
  4  5  1  0
  5 10  1  0
  8 16  1  0
  1  3  1  0
 10 11  2  0
 11 12  1  0
 12 13  2  0
 13 14  1  0
 14 15  2  0
 10 15  1  0
  3  4  2  0
  4  9  1  0
  8  9  2  0
  7  8  1  0
  6  7  2  0
  3  6  1  0
M  END

$$$$
No_4302-/export/home/yangzhenyu/potential_scad_32_flow//YTHDC2/2024-12-06-03-22-00/
     RDKit          3D

 18 20  0  0  1  0  0  0  0  0999 V2000
    1.1787   -8.0297    3.5154 C   0  0  0  0  0  0  0  0  0  0  0  0
    1.0491   -6.8434    2.9820 C   0  0  0  0  0  0  0  0  0  0  0  0
    1.9985   -8.9840    2.8958 C   0  0  1  0  0  0  0  0  0  0  0  0
    1.9135  -10.3404    3.6266 C   0  0  0  0  0  0  0  0  0  0  0  0
    1.3291  -11.3908    3.0222 C   0  0  0  0  0  0  0  0  0  0  0  0
    1.0344  -11.3281    1.7959 C   0  0  0  0  0  0  0  0  0  0  0  0
    0.5050   -6.6553    1.7492 C   0  0  0  0  0  0  0  0  0  0  0  0
    1.6364  -10.2524    0.9337 C   0  0  0  0  0  0  0  0  0  0  0  0
    1.7369   -9.0242    1.6103 C   0  0  0  0  0  0  0  0  0  0  0  0
    0.9461   -5.5965    0.9838 C   0  0  0  0  0  0  0  0  0  0  0  0
    1.7189  -12.6382    3.5224 C   0  0  0  0  0  0  0  0  0  0  0  0
    1.5091   -4.5000    1.7696 C   0  0  0  0  0  0  0  0  0  0  0  0
    1.9221   -4.6471    3.0549 C   0  0  0  0  0  0  0  0  0  0  0  0
    1.7218   -5.8098    3.6682 C   0  0  0  0  0  0  0  0  0  0  0  0
    1.2629  -13.7690    2.6217 C   0  0  0  0  0  0  0  0  0  0  0  0
    0.7345  -13.6289    1.4694 C   0  0  0  0  0  0  0  0  0  0  0  0
    0.7912  -12.3877    0.8853 C   0  0  0  0  0  0  0  0  0  0  0  0
    1.4931  -10.1833   -0.2941 O   0  0  0  0  0  0  0  0  0  0  0  0
  1  2  1  0
  3  1  1  1
  3  4  1  0
  4  5  1  0
  6  8  1  0
  3  9  1  0
  8  9  1  0
  8 18  2  0
  2  7  2  0
  7 10  1  0
 10 12  2  0
 12 13  1  0
 13 14  2  0
  2 14  1  0
  5  6  2  0
  6 17  1  0
 16 17  2  0
 15 16  1  0
 11 15  2  0
  5 11  1  0
M  END

$$$$
No_4303-/export/home/yangzhenyu/potential_scad_32_flow//YTHDC2/2024-12-06-03-22-00/
     RDKit          3D

 19 19  0  0  0  0  0  0  0  0999 V2000
    1.1787   -8.0297    3.5154 C   0  0  0  0  0  0  0  0  0  0  0  0
    1.1048   -9.2215    3.2892 C   0  0  0  0  0  0  0  0  0  0  0  0
    1.2339   -9.7611    2.0189 C   0  0  0  0  0  0  0  0  0  0  0  0
    1.3583   -9.0036    0.9764 C   0  0  0  0  0  0  0  0  0  0  0  0
    1.5996   -7.6362    1.1311 C   0  0  0  0  0  0  0  0  0  0  0  0
    1.4830   -7.0928    2.3626 C   0  0  0  0  0  0  0  0  0  0  0  0
    1.1171  -11.3311    1.8661 C   0  0  0  0  0  0  0  0  0  0  0  0
    1.9975  -12.1095    2.2478 O   0  0  0  0  0  0  0  0  0  0  0  0
   -0.2551  -11.7310    2.0508 O   0  0  0  0  0  0  0  0  0  0  0  0
    1.5509   -5.6505    2.6109 Cl  0  0  0  0  0  0  0  0  0  0  0  0
    1.5387   -9.5306   -0.3344 C   0  0  0  0  0  0  0  0  0  0  0  0
    2.5758   -9.6237   -0.8842 O   0  0  0  0  0  0  0  0  0  0  0  0
    0.3967   -9.7702   -0.9258 N   0  0  0  0  0  0  0  0  0  0  0  0
   -0.9507   -9.6070   -0.6042 C   0  0  0  0  0  0  0  0  0  0  0  0
   -1.5953   -8.4747   -1.4520 C   0  0  0  0  0  0  0  0  0  0  0  0
   -1.3337   -8.3797   -2.6370 C   0  0  0  0  0  0  0  0  0  0  0  0
   -1.4771   -7.0566   -3.2339 C   0  0  0  0  0  0  0  0  0  0  0  0
   -2.1334   -6.1416   -2.6770 C   0  0  0  0  0  0  0  0  0  0  0  0
   -2.4623   -6.2604   -1.3407 C   0  0  0  0  0  0  0  0  0  0  0  0
  3  7  1  0
  7  8  1  0
  7  9  2  0
  6 10  1  0
  4 11  1  0
 11 12  2  0
 11 13  1  0
 13 14  1  0
 14 15  1  0
 15 16  1  0
 16 17  2  3
 17 18  1  0
 18 19  2  0
  1  2  2  0
  2  3  1  0
  3  4  2  0
  4  5  1  0
  5  6  2  0
  1  6  1  0
M  END

$$$$
No_4304-/export/home/yangzhenyu/potential_scad_32_flow//YTHDC2/2024-12-06-03-22-00/
     RDKit          3D

 18 18  0  0  0  0  0  0  0  0999 V2000
    1.1787   -8.0297    3.5154 C   0  0  0  0  0  0  0  0  0  0  0  0
    1.1048   -9.2215    3.2892 C   0  0  0  0  0  0  0  0  0  0  0  0
    1.3627  -10.1721    4.3044 C   0  0  0  0  0  0  0  0  0  0  0  0
    2.3720  -10.8948    4.2468 C   0  0  0  0  0  0  0  0  0  0  0  0
    0.8234   -7.0464    2.5717 C   0  0  0  0  0  0  0  0  0  0  0  0
    0.4328   -7.4736    1.3042 C   0  0  0  0  0  0  0  0  0  0  0  0
    0.3532   -8.7488    0.9919 C   0  0  0  0  0  0  0  0  0  0  0  0
    0.7039   -9.7094    1.9672 C   0  0  0  0  0  0  0  0  0  0  0  0
    0.6986  -10.9809    1.7122 C   0  0  0  0  0  0  0  0  0  0  0  0
    1.7333  -11.5997    0.9727 C   0  0  0  0  0  0  0  0  0  0  0  0
    1.6420  -12.9883    0.7818 O   0  0  0  0  0  0  0  0  0  0  0  0
    3.3692  -10.7414    4.3687 C   0  0  0  0  0  0  0  0  0  0  0  0
    2.7395  -10.9918    0.6036 O   0  0  0  0  0  0  0  0  0  0  0  0
    0.9696   -5.4237    2.8814 C   0  0  0  0  0  0  0  0  0  0  0  0
    0.0237   -9.1381   -0.3093 C   0  0  0  0  0  0  0  0  0  0  0  0
   -1.2058   -9.6373   -0.6556 O   0  0  0  0  0  0  0  0  0  0  0  0
    0.6714   -8.6337   -1.4116 O   0  0  0  0  0  0  0  0  0  0  0  0
    3.8421   -9.8314    5.4501 O   0  0  0  0  0  0  0  0  0  0  0  0
  2  3  1  0
  3  4  1  0
  8  9  1  0
  9 10  1  0
 10 11  1  0
  4 12  2  3
 10 13  2  0
  5 14  1  0
  7 15  1  0
 15 16  2  0
 15 17  1  0
 12 18  1  0
  1  2  2  0
  2  8  1  0
  7  8  2  0
  6  7  1  0
  5  6  2  0
  1  5  1  0
M  END

$$$$
No_4305-/export/home/yangzhenyu/potential_scad_32_flow//YTHDC2/2024-12-06-03-22-00/
     RDKit          3D

 20 22  0  0  0  0  0  0  0  0999 V2000
    1.1787   -8.0297    3.5154 N   0  0  0  0  0  0  0  0  0  0  0  0
    1.0818   -9.0751    3.2053 C   0  0  0  0  0  0  0  0  0  0  0  0
    1.5216  -10.1164    3.9747 C   0  0  0  0  0  0  0  0  0  0  0  0
    1.4420  -11.4363    3.6461 C   0  0  0  0  0  0  0  0  0  0  0  0
    0.5969  -11.7648    2.6785 C   0  0  0  0  0  0  0  0  0  0  0  0
    0.0096  -10.8332    1.9506 C   0  0  0  0  0  0  0  0  0  0  0  0
    0.3359   -9.5186    2.1388 C   0  0  0  0  0  0  0  0  0  0  0  0
    1.1574   -6.9183    2.6875 C   0  0  0  0  0  0  0  0  0  0  0  0
    0.6585   -7.2272    1.4255 N   0  0  0  0  0  0  0  0  0  0  0  0
    0.2295   -8.4509    1.1163 C   0  0  0  0  0  0  0  0  0  0  0  0
   -0.4358   -8.6524   -0.0643 N   0  0  0  0  0  0  0  0  0  0  0  0
    0.2716  -13.3755    2.4296 C   0  0  0  0  0  0  0  0  0  0  0  0
    0.5858  -13.8910    1.6044 C   0  0  0  0  0  0  0  0  0  0  0  0
    1.5754  -13.4122    0.7002 C   0  0  0  0  0  0  0  0  0  0  0  0
    0.0671  -15.0648    1.2030 C   0  0  0  0  0  0  0  0  0  0  0  0
   -0.7193  -15.7564    2.0559 C   0  0  0  0  0  0  0  0  0  0  0  0
   -0.5828  -17.0887    2.1333 C   0  0  0  0  0  0  0  0  0  0  0  0
    0.0141  -17.8229    1.0919 C   0  0  0  0  0  0  0  0  0  0  0  0
    0.7147  -17.1551    0.1745 C   0  0  0  0  0  0  0  0  0  0  0  0
    0.7440  -15.7876    0.1768 C   0  0  0  0  0  0  0  0  0  0  0  0
 10 11  1  0
  5 12  1  0
 12 13  1  0
 13 14  1  0
 13 15  1  0
 15 16  2  0
 16 17  1  0
 17 18  2  0
 18 19  1  0
 19 20  2  0
 15 20  1  0
  2  3  1  0
  3  4  2  0
  4  5  1  0
  5  6  2  0
  6  7  1  0
  1  2  2  0
  2  7  1  0
  7 10  2  0
  9 10  1  0
  8  9  2  0
  1  8  1  0
M  END

$$$$
No_4306-/export/home/yangzhenyu/potential_scad_32_flow//YTHDC2/2024-12-06-03-22-00/
     RDKit          3D

 19 20  0  0  0  0  0  0  0  0999 V2000
    1.1787   -8.0297    3.5154 C   0  0  0  0  0  0  0  0  0  0  0  0
    1.0491   -6.8434    2.9820 C   0  0  0  0  0  0  0  0  0  0  0  0
    0.2462   -8.9560    3.0873 C   0  0  0  0  0  0  0  0  0  0  0  0
    0.3295   -6.5187    1.9069 C   0  0  0  0  0  0  0  0  0  0  0  0
    0.3283  -10.2725    3.7059 C   0  0  0  0  0  0  0  0  0  0  0  0
   -0.4404   -7.4628    1.4400 C   0  0  0  0  0  0  0  0  0  0  0  0
   -0.4655   -8.7076    1.9376 C   0  0  0  0  0  0  0  0  0  0  0  0
    1.3238  -10.9137    4.0574 C   0  0  0  0  0  0  0  0  0  0  0  0
    1.1412  -12.2531    4.5750 C   0  0  0  0  0  0  0  0  0  0  0  0
    0.8076  -13.0412    3.4811 C   0  0  0  0  0  0  0  0  0  0  0  0
   -0.2512  -12.5297    2.7478 C   0  0  0  0  0  0  0  0  0  0  0  0
   -0.4705  -11.1645    2.7322 C   0  0  0  0  0  0  0  0  0  0  0  0
    0.4705   -5.2321    1.2576 Cl  0  0  0  0  0  0  0  0  0  0  0  0
    0.8426  -14.4782    3.6367 Cl  0  0  0  0  0  0  0  0  0  0  0  0
   -1.4065   -7.1873    0.2282 O   0  0  0  0  0  0  0  0  0  0  0  0
   -1.3902   -7.9769   -0.6708 C   0  0  0  0  0  0  0  0  0  0  0  0
   -1.6010   -7.5926   -1.6228 C   0  0  0  0  0  0  0  0  0  0  0  0
   -1.3641   -8.3024   -2.9739 C   0  0  0  0  0  0  0  0  0  0  0  0
   -0.5182   -9.4385   -2.9223 O   0  0  0  0  0  0  0  0  0  0  0  0
  3  5  1  0
  4 13  1  0
 10 14  1  0
  6 15  1  0
 15 16  1  0
 16 17  1  0
 17 18  1  0
 18 19  2  0
  5  8  2  0
  8  9  1  0
  9 10  2  0
 10 11  1  0
 11 12  2  0
  5 12  1  0
  1  2  2  0
  2  4  1  0
  4  6  2  0
  6  7  1  0
  3  7  2  0
  1  3  1  0
M  END

$$$$
No_4307-/export/home/yangzhenyu/potential_scad_32_flow//YTHDC2/2024-12-06-03-22-00/
     RDKit          3D

 17 17  0  0  1  0  0  0  0  0999 V2000
    1.1787   -8.0297    3.5154 C   0  0  0  0  0  0  0  0  0  0  0  0
    1.1048   -9.2215    3.2892 C   0  0  0  0  0  0  0  0  0  0  0  0
    1.2339   -9.7611    2.0189 C   0  0  0  0  0  0  0  0  0  0  0  0
    1.3583   -9.0036    0.9764 C   0  0  0  0  0  0  0  0  0  0  0  0
    1.5996   -7.6362    1.1311 C   0  0  0  0  0  0  0  0  0  0  0  0
    1.4830   -7.0928    2.3626 C   0  0  0  0  0  0  0  0  0  0  0  0
    1.5395   -5.7300    2.6182 C   0  0  0  0  0  0  0  0  0  0  0  0
    1.1775  -11.2233    1.8407 C   0  0  1  0  0  0  0  0  0  0  0  0
    0.7252  -11.5870    0.5412 C   0  0  0  0  0  0  0  0  0  0  0  0
    0.5994  -13.0100    0.4511 O   0  0  0  0  0  0  0  0  0  0  0  0
    0.3611  -11.1490   -0.4504 F   0  0  0  0  0  0  0  0  0  0  0  0
    1.6479   -5.1771    3.8738 O   0  0  0  0  0  0  0  0  0  0  0  0
    1.4070   -4.8377    1.6634 O   0  0  0  0  0  0  0  0  0  0  0  0
    1.6770  -12.0398    2.7130 C   0  0  0  0  0  0  0  0  0  0  0  0
    0.8709  -12.5973    3.6652 C   0  0  0  0  0  0  0  0  0  0  0  0
    0.7278  -13.9983    3.4323 O   0  0  0  0  0  0  0  0  0  0  0  0
    1.9813  -14.7478    3.4351 C   0  0  0  0  0  0  0  0  0  0  0  0
  6  7  1  0
  3  8  1  0
  8  9  1  0
  9 10  2  0
  9 11  1  0
  7 12  1  0
  7 13  2  0
  8 14  1  6
 14 15  1  0
 15 16  1  0
 16 17  1  0
  1  2  2  0
  2  3  1  0
  3  4  2  0
  4  5  1  0
  5  6  2  0
  1  6  1  0
M  END

$$$$
No_4308-/export/home/yangzhenyu/potential_scad_32_flow//YTHDC2/2024-12-06-03-22-00/
     RDKit          3D

 18 19  0  0  1  0  0  0  0  0999 V2000
    1.1787   -8.0297    3.5154 C   0  0  0  0  0  0  0  0  0  0  0  0
    1.1048   -9.2215    3.2892 C   0  0  0  0  0  0  0  0  0  0  0  0
    1.4683  -10.2314    4.1915 C   0  0  0  0  0  0  0  0  0  0  0  0
    0.8445   -6.9865    2.5175 C   0  0  0  0  0  0  0  0  0  0  0  0
    0.3587   -7.3973    1.3953 C   0  0  0  0  0  0  0  0  0  0  0  0
    0.1901   -8.6971    1.0711 C   0  0  0  0  0  0  0  0  0  0  0  0
    0.5759   -9.6647    1.9442 C   0  0  0  0  0  0  0  0  0  0  0  0
    0.6934  -11.4709    4.1321 C   0  0  0  0  0  0  0  0  0  0  0  0
    0.3760  -11.9548    2.8946 C   0  0  2  0  0  0  0  0  0  0  0  0
   -0.0435  -10.8962    1.9144 C   0  0  0  0  0  0  0  0  0  0  0  0
   -0.1791   -9.0435   -0.1410 C   0  0  0  0  0  0  0  0  0  0  0  0
   -1.4407   -9.5853   -0.3875 C   0  0  0  0  0  0  0  0  0  0  0  0
   -1.7661   -9.9075   -1.7933 N   0  0  0  0  0  0  0  0  0  0  0  0
    0.2156  -13.2257    2.7840 C   0  0  0  0  0  0  0  0  0  0  0  0
    0.8131  -13.9381    1.9325 C   0  0  0  0  0  0  0  0  0  0  0  0
    1.8935  -13.5615    1.1385 C   0  0  0  0  0  0  0  0  0  0  0  0
   -2.1659  -11.0955   -2.0360 C   0  0  0  0  0  0  0  0  0  0  0  0
   -2.2475  -11.4719   -3.2683 O   0  0  0  0  0  0  0  0  0  0  0  0
  2  3  1  0
  3  8  1  0
  8  9  1  0
  7 10  1  0
  9 10  1  0
  6 11  1  0
 11 12  2  3
 12 13  1  0
  9 14  1  1
 14 15  1  0
 15 16  1  0
 13 17  1  0
 17 18  2  0
  1  2  2  0
  2  7  1  0
  6  7  2  0
  5  6  1  0
  4  5  2  0
  1  4  1  0
M  END

$$$$
No_4309-/export/home/yangzhenyu/potential_scad_32_flow//YTHDC2/2024-12-06-03-22-00/
     RDKit          3D

 18 20  0  0  1  0  0  0  0  0999 V2000
    1.1787   -8.0297    3.5154 C   0  0  0  0  0  0  0  0  0  0  0  0
    1.1048   -9.2215    3.2892 C   0  0  0  0  0  0  0  0  0  0  0  0
    1.3627  -10.1721    4.3044 C   0  0  0  0  0  0  0  0  0  0  0  0
    1.0682  -11.5187    4.0618 C   0  0  0  0  0  0  0  0  0  0  0  0
    0.6332  -11.9655    2.9682 C   0  0  0  0  0  0  0  0  0  0  0  0
    0.4776  -11.1308    1.9203 C   0  0  0  0  0  0  0  0  0  0  0  0
    0.7470   -9.8274    2.0368 C   0  0  0  0  0  0  0  0  0  0  0  0
    1.0387   -7.0301    2.5175 C   0  0  2  0  0  0  0  0  0  0  0  0
    0.9130   -7.5288    1.2013 C   0  0  0  0  0  0  0  0  0  0  0  0
    0.7893   -8.7979    0.9542 C   0  0  0  0  0  0  0  0  0  0  0  0
    0.5241   -9.2578   -0.2817 O   0  0  0  0  0  0  0  0  0  0  0  0
    0.4481  -13.3709    2.6894 C   0  0  0  0  0  0  0  0  0  0  0  0
    0.8561  -13.9867    1.7475 C   0  0  0  0  0  0  0  0  0  0  0  0
    1.3479  -15.2799    1.8252 C   0  0  0  0  0  0  0  0  0  0  0  0
    0.9057  -15.9577    2.9507 C   0  0  0  0  0  0  0  0  0  0  0  0
    0.4566  -15.3660    4.1107 C   0  0  0  0  0  0  0  0  0  0  0  0
    0.2418  -14.0281    3.9834 C   0  0  0  0  0  0  0  0  0  0  0  0
    1.2980   -5.5955    2.6563 Cl  0  0  0  0  0  0  0  0  0  0  0  0
  1  2  1  0
  8  9  1  0
  7 10  1  0
  9 10  1  0
 10 11  2  0
  5 12  1  0
  8 18  1  6
  1  8  1  0
 12 13  2  0
 13 14  1  0
 14 15  2  0
 15 16  1  0
 16 17  2  0
 12 17  1  0
  2  3  2  0
  3  4  1  0
  4  5  2  0
  5  6  1  0
  6  7  2  0
  2  7  1  0
M  END

$$$$
No_4310-/export/home/yangzhenyu/potential_scad_32_flow//YTHDC2/2024-12-06-03-22-00/
     RDKit          3D

 19 19  0  0  0  0  0  0  0  0999 V2000
    1.1787   -8.0297    3.5154 Br  0  0  0  0  0  0  0  0  0  0  0  0
    0.6076   -7.9037    2.4936 C   0  0  0  0  0  0  0  0  0  0  0  0
    0.2555   -6.7588    1.9130 C   0  0  0  0  0  0  0  0  0  0  0  0
   -0.6850   -6.5613    0.9654 C   0  0  0  0  0  0  0  0  0  0  0  0
   -1.1396   -7.6489    0.2998 C   0  0  0  0  0  0  0  0  0  0  0  0
   -0.7633   -8.9103    0.7160 C   0  0  0  0  0  0  0  0  0  0  0  0
    0.0931   -9.0577    1.7637 C   0  0  0  0  0  0  0  0  0  0  0  0
    0.5145  -10.3666    2.0377 N   0  0  0  0  0  0  0  0  0  0  0  0
    0.1187  -11.4131    1.3107 C   0  0  0  0  0  0  0  0  0  0  0  0
   -0.0130  -12.3442    1.7259 C   0  0  0  0  0  0  0  0  0  0  0  0
    0.4195  -13.0961    2.3124 C   0  0  0  0  0  0  0  0  0  0  0  0
    1.5375  -12.6866    3.2893 N   0  0  0  0  0  0  0  0  0  0  0  0
    0.3996  -14.5802    2.4982 C   0  0  0  0  0  0  0  0  0  0  0  0
    1.3244  -15.2470    3.3881 C   0  0  0  0  0  0  0  0  0  0  0  0
    1.1066  -16.6560    3.2605 N   0  0  0  0  0  0  0  0  0  0  0  0
    2.0086  -17.3222    3.2519 C   0  0  0  0  0  0  0  0  0  0  0  0
    3.3299  -16.9750    2.8032 O   0  0  0  0  0  0  0  0  0  0  0  0
    1.8641  -18.7514    3.4949 C   0  0  0  0  0  0  0  0  0  0  0  0
    1.8064  -11.7165    3.3710 H   0  0  0  0  0  0  0  0  0  0  0  0
  1  2  1  0
  8  9  1  0
  9 10  2  3
 10 11  1  0
 11 12  2  0
 11 13  1  0
 13 14  1  0
 14 15  1  0
 15 16  1  0
 16 17  2  0
 16 18  1  0
  7  8  1  0
  2  3  2  0
  3  4  1  0
  4  5  2  0
  5  6  1  0
  6  7  2  0
  2  7  1  0
 12 19  1  0
M  END

$$$$
No_4311-/export/home/yangzhenyu/potential_scad_32_flow//YTHDC2/2024-12-06-03-22-00/
     RDKit          3D

 18 18  0  0  0  0  0  0  0  0999 V2000
    1.1787   -8.0297    3.5154 C   0  0  0  0  0  0  0  0  0  0  0  0
    1.0491   -6.8434    2.9820 C   0  0  0  0  0  0  0  0  0  0  0  0
    0.0950   -8.8404    3.2292 C   0  0  0  0  0  0  0  0  0  0  0  0
   -0.9173   -8.4596    2.5152 C   0  0  0  0  0  0  0  0  0  0  0  0
   -1.0331   -7.2162    2.0653 C   0  0  0  0  0  0  0  0  0  0  0  0
   -0.0105   -6.3168    2.3081 C   0  0  0  0  0  0  0  0  0  0  0  0
    0.1150   -4.9910    1.8495 C   0  0  0  0  0  0  0  0  0  0  0  0
   -0.1376   -4.7952    0.5550 N   0  0  0  0  0  0  0  0  0  0  0  0
    1.2494   -4.1969    2.2936 O   0  0  0  0  0  0  0  0  0  0  0  0
    0.1825  -10.4513    3.7425 C   0  0  0  0  0  0  0  0  0  0  0  0
    1.2271  -10.9265    4.1802 C   0  0  0  0  0  0  0  0  0  0  0  0
    1.2630  -12.3116    3.9874 O   0  0  0  0  0  0  0  0  0  0  0  0
    2.2699  -10.4328    4.7690 O   0  0  0  0  0  0  0  0  0  0  0  0
   -0.2262   -3.5033    0.0759 C   0  0  0  0  0  0  0  0  0  0  0  0
   -1.3338   -3.1194   -0.7449 C   0  0  0  0  0  0  0  0  0  0  0  0
   -1.3948   -1.9428   -1.2801 C   0  0  0  0  0  0  0  0  0  0  0  0
   -0.3561   -1.0004   -0.9487 C   0  0  0  0  0  0  0  0  0  0  0  0
    0.5964   -1.3060    0.0284 C   0  0  0  0  0  0  0  0  0  0  0  0
  6  7  1  0
  7  8  1  0
  7  9  2  0
  3 10  1  0
 10 11  1  0
 11 12  1  0
 11 13  2  0
  8 14  1  0
 14 15  1  0
 15 16  2  3
 16 17  1  0
 17 18  2  0
  1  2  2  0
  2  6  1  0
  5  6  2  0
  4  5  1  0
  3  4  2  0
  1  3  1  0
M  END

$$$$
No_4312-/export/home/yangzhenyu/potential_scad_32_flow//YTHDC2/2024-12-06-03-22-00/
     RDKit          3D

 18 19  0  0  1  0  0  0  0  0999 V2000
    1.1787   -8.0297    3.5154 C   0  0  0  0  0  0  0  0  0  0  0  0
    1.1048   -9.2215    3.2892 C   0  0  0  0  0  0  0  0  0  0  0  0
    1.2339   -9.7611    2.0189 C   0  0  1  0  0  0  0  0  0  0  0  0
    1.1954  -11.2312    1.8661 C   0  0  0  0  0  0  0  0  0  0  0  0
    1.5546  -12.1691    2.7931 C   0  0  0  0  0  0  0  0  0  0  0  0
    0.9527   -7.0669    2.3918 C   0  0  2  0  0  0  0  0  0  0  0  0
    1.0618   -7.6392    1.0692 C   0  0  0  0  0  0  0  0  0  0  0  0
    1.2060   -8.9530    0.8578 C   0  0  2  0  0  0  0  0  0  0  0  0
    1.5159  -13.5011    2.3738 C   0  0  0  0  0  0  0  0  0  0  0  0
    1.1409  -13.8990    1.1908 C   0  0  0  0  0  0  0  0  0  0  0  0
    0.9249  -13.0546    0.2183 C   0  0  0  0  0  0  0  0  0  0  0  0
    0.9227  -11.6707    0.5316 C   0  0  0  0  0  0  0  0  0  0  0  0
    0.9997   -5.4947    2.4747 C   0  0  0  0  0  0  0  0  0  0  0  0
    1.2072   -9.3938   -0.3768 Cl  0  0  0  0  0  0  0  0  0  0  0  0
    1.1201   -6.8270    0.1282 O   0  0  0  0  0  0  0  0  0  0  0  0
    1.9587  -14.5299    3.6514 O   0  0  0  0  0  0  0  0  0  0  0  0
    2.0032   -4.9632    3.1973 C   0  0  0  0  0  0  0  0  0  0  0  0
    1.7655   -3.4955    3.1817 C   0  0  0  0  0  0  0  0  0  0  0  0
  1  2  1  0
  3  4  1  6
  6  7  1  0
  3  8  1  0
  7  8  1  0
  6 13  1  6
  8 14  1  6
  7 15  2  0
  9 16  1  0
 13 17  1  0
 17 18  2  0
  1  6  1  0
  2  3  1  0
  4  5  2  0
  5  9  1  0
  9 10  2  0
 10 11  1  0
 11 12  2  0
  4 12  1  0
M  END

$$$$
No_4313-/export/home/yangzhenyu/potential_scad_32_flow//YTHDC2/2024-12-06-03-22-00/
     RDKit          3D

 20 21  0  0  0  0  0  0  0  0999 V2000
    1.1787   -8.0297    3.5154 C   0  0  0  0  0  0  0  0  0  0  0  0
    1.0491   -6.8434    2.9820 C   0  0  0  0  0  0  0  0  0  0  0  0
    1.9985   -8.9840    2.8958 C   0  0  0  0  0  0  0  0  0  0  0  0
    1.9135  -10.3404    3.6266 C   0  0  0  0  0  0  0  0  0  0  0  0
    0.7479  -10.9191    3.7202 C   0  0  0  0  0  0  0  0  0  0  0  0
    0.2782   -6.7158    1.8352 C   0  0  0  0  0  0  0  0  0  0  0  0
    0.0493   -5.5581    1.3972 C   0  0  0  0  0  0  0  0  0  0  0  0
    0.7380  -12.2898    3.4040 C   0  0  0  0  0  0  0  0  0  0  0  0
   -0.2484  -12.7288    2.6169 C   0  0  0  0  0  0  0  0  0  0  0  0
   -1.4091  -12.0089    2.6651 C   0  0  0  0  0  0  0  0  0  0  0  0
   -1.4632  -10.7745    3.2245 C   0  0  0  0  0  0  0  0  0  0  0  0
   -0.3161  -10.1811    3.7919 C   0  0  0  0  0  0  0  0  0  0  0  0
    0.7946   -4.4410    1.8863 C   0  0  0  0  0  0  0  0  0  0  0  0
    1.6804   -4.5972    2.9252 C   0  0  0  0  0  0  0  0  0  0  0  0
    1.7745   -5.8463    3.4492 C   0  0  0  0  0  0  0  0  0  0  0  0
    0.6180   -3.1271    1.2487 Cl  0  0  0  0  0  0  0  0  0  0  0  0
   -0.2430  -14.0306    2.1686 C   0  0  0  0  0  0  0  0  0  0  0  0
   -1.1109  -14.5335    1.4401 C   0  0  0  0  0  0  0  0  0  0  0  0
    0.8126  -15.0396    2.7552 C   0  0  0  0  0  0  0  0  0  0  0  0
    0.8958  -16.3331    2.3325 C   0  0  0  0  0  0  0  0  0  0  0  0
  1  2  1  0
  1  3  1  0
  3  4  1  0
  4  5  1  0
 13 16  1  0
  9 17  1  0
 17 18  2  0
 17 19  1  0
 19 20  2  0
  5  8  2  0
  8  9  1  0
  9 10  2  0
 10 11  1  0
 11 12  2  0
  5 12  1  0
  2  6  2  0
  6  7  1  0
  7 13  2  0
 13 14  1  0
 14 15  2  0
  2 15  1  0
M  END

$$$$
No_4314-/export/home/yangzhenyu/potential_scad_32_flow//YTHDC2/2024-12-06-03-22-00/
     RDKit          3D

 17 18  0  0  1  0  0  0  0  0999 V2000
    1.1787   -8.0297    3.5154 C   0  0  0  0  0  0  0  0  0  0  0  0
    1.1048   -9.2215    3.2892 C   0  0  0  0  0  0  0  0  0  0  0  0
    1.2339   -9.7611    2.0189 C   0  0  1  0  0  0  0  0  0  0  0  0
    1.1954  -11.2312    1.8661 C   0  0  0  0  0  0  0  0  0  0  0  0
    1.5546  -12.1691    2.7931 C   0  0  0  0  0  0  0  0  0  0  0  0
    0.5849   -7.0929    2.5729 N   0  0  0  0  0  0  0  0  0  0  0  0
    1.4449  -13.5430    2.3862 C   0  0  0  0  0  0  0  0  0  0  0  0
    1.0783  -13.8324    1.1212 C   0  0  0  0  0  0  0  0  0  0  0  0
    0.7531  -12.9637    0.1763 C   0  0  0  0  0  0  0  0  0  0  0  0
    0.8268  -11.5687    0.5202 C   0  0  0  0  0  0  0  0  0  0  0  0
    0.9397   -8.8062    0.9580 C   0  0  0  0  0  0  0  0  0  0  0  0
    0.7526   -7.4926    1.2101 C   0  0  0  0  0  0  0  0  0  0  0  0
    0.7720   -5.5656    2.6674 C   0  0  0  0  0  0  0  0  0  0  0  0
    0.5358   -6.7579    0.2463 O   0  0  0  0  0  0  0  0  0  0  0  0
    1.8677  -14.4771    3.3084 Cl  0  0  0  0  0  0  0  0  0  0  0  0
    1.9767   -5.0525    3.2059 C   0  0  0  0  0  0  0  0  0  0  0  0
    1.7421   -3.5753    3.2406 C   0  0  0  0  0  0  0  0  0  0  0  0
  1  2  1  0
  3  4  1  1
  1  6  1  0
  3 11  1  0
  6 12  1  0
 11 12  1  0
  6 13  1  0
 12 14  2  0
  7 15  1  0
 13 16  1  0
 16 17  2  0
  2  3  1  0
  4  5  2  0
  5  7  1  0
  7  8  2  0
  8  9  1  0
  9 10  2  0
  4 10  1  0
M  END

$$$$
No_4315-/export/home/yangzhenyu/potential_scad_32_flow//YTHDC2/2024-12-06-03-22-00/
     RDKit          3D

 19 20  0  0  1  0  0  0  0  0999 V2000
    1.1787   -8.0297    3.5154 C   0  0  0  0  0  0  0  0  0  0  0  0
    1.1048   -9.2215    3.2892 C   0  0  0  0  0  0  0  0  0  0  0  0
    1.2339   -9.7611    2.0189 C   0  0  0  0  0  0  0  0  0  0  0  0
    1.3583   -9.0036    0.9764 C   0  0  0  0  0  0  0  0  0  0  0  0
    1.5996   -7.6362    1.1311 C   0  0  0  0  0  0  0  0  0  0  0  0
    1.4830   -7.0928    2.3626 C   0  0  0  0  0  0  0  0  0  0  0  0
    1.5395   -5.7300    2.6182 C   0  0  0  0  0  0  0  0  0  0  0  0
    1.1775  -11.2233    1.8407 C   0  0  0  0  0  0  0  0  0  0  0  0
    0.7252  -11.5870    0.5413 C   0  0  0  0  0  0  0  0  0  0  0  0
   -0.5181  -12.2492    0.6137 C   0  0  1  0  0  0  0  0  0  0  0  0
   -1.4841  -11.7416   -0.0226 N   0  0  0  0  0  0  0  0  0  0  0  0
   -1.3333  -10.7079   -0.7888 C   0  0  0  0  0  0  0  0  0  0  0  0
   -2.4477  -10.1200   -1.2641 O   0  0  0  0  0  0  0  0  0  0  0  0
   -0.5853  -13.4476    1.1603 C   0  0  0  0  0  0  0  0  0  0  0  0
   -0.9125  -13.6957    2.2501 C   0  0  0  0  0  0  0  0  0  0  0  0
   -0.9098  -14.9298    3.0051 C   0  0  0  0  0  0  0  0  0  0  0  0
   -0.5367  -16.0485    2.3556 C   0  0  0  0  0  0  0  0  0  0  0  0
   -0.0998  -15.9684    1.0610 C   0  0  0  0  0  0  0  0  0  0  0  0
   -0.0766  -14.7838    0.3854 C   0  0  0  0  0  0  0  0  0  0  0  0
  6  7  1  0
  3  8  1  0
  8  9  1  0
 10  9  1  6
 10 11  1  0
 11 12  1  0
 12 13  2  0
 10 14  1  0
  1  2  2  0
  2  3  1  0
  3  4  2  0
  4  5  1  0
  5  6  2  0
  1  6  1  0
 14 15  2  0
 15 16  1  0
 16 17  2  0
 17 18  1  0
 18 19  2  0
 14 19  1  0
M  END

$$$$
No_4316-/export/home/yangzhenyu/potential_scad_32_flow//YTHDC2/2024-12-06-03-22-00/
     RDKit          3D

 18 19  0  0  0  0  0  0  0  0999 V2000
    1.1787   -8.0297    3.5154 C   0  0  0  0  0  0  0  0  0  0  0  0
    1.1048   -9.2215    3.2892 C   0  0  0  0  0  0  0  0  0  0  0  0
    1.0239   -9.7790    2.0239 C   0  0  0  0  0  0  0  0  0  0  0  0
    1.0632  -11.2393    1.8978 C   0  0  0  0  0  0  0  0  0  0  0  0
    1.2664   -7.1133    2.3309 C   0  0  0  0  0  0  0  0  0  0  0  0
    1.2080   -7.6832    1.0760 C   0  0  0  0  0  0  0  0  0  0  0  0
    1.1535   -8.9837    0.8897 C   0  0  0  0  0  0  0  0  0  0  0  0
    0.7389  -11.7401    0.6551 O   0  0  0  0  0  0  0  0  0  0  0  0
    1.0788  -12.0383    2.9034 N   0  0  0  0  0  0  0  0  0  0  0  0
    1.1235  -13.4232    2.8477 C   0  0  0  0  0  0  0  0  0  0  0  0
   -0.0889  -14.0803    3.1635 C   0  0  0  0  0  0  0  0  0  0  0  0
   -0.2447  -15.1202    2.3062 C   0  0  0  0  0  0  0  0  0  0  0  0
    0.1747  -16.1906    2.6443 C   0  0  0  0  0  0  0  0  0  0  0  0
    0.2036  -16.7170    3.6613 C   0  0  0  0  0  0  0  0  0  0  0  0
    0.8581  -18.0521    3.8848 C   0  0  0  0  0  0  0  0  0  0  0  0
    1.5891  -18.5995    2.9367 C   0  0  0  0  0  0  0  0  0  0  0  0
    1.6976  -17.9823    1.7292 C   0  0  0  0  0  0  0  0  0  0  0  0
    1.0469  -16.7663    1.5367 C   0  0  0  0  0  0  0  0  0  0  0  0
  3  4  1  0
  4  8  2  0
  4  9  1  0
  9 10  1  0
 10 11  1  0
 11 12  1  0
 12 13  1  0
  1  2  2  0
  2  3  1  0
  3  7  2  0
  6  7  1  0
  5  6  2  0
  1  5  1  0
 13 14  2  0
 14 15  1  0
 15 16  2  0
 16 17  1  0
 17 18  2  0
 13 18  1  0
M  END

$$$$
No_4317-/export/home/yangzhenyu/potential_scad_32_flow//YTHDC2/2024-12-06-03-22-00/
     RDKit          3D

 20 21  0  0  0  0  0  0  0  0999 V2000
    1.1787   -8.0297    3.5154 C   0  0  0  0  0  0  0  0  0  0  0  0
    1.1048   -9.2215    3.2892 C   0  0  0  0  0  0  0  0  0  0  0  0
    1.4683  -10.2314    4.1915 C   0  0  0  0  0  0  0  0  0  0  0  0
    0.8445   -6.9865    2.5175 C   0  0  0  0  0  0  0  0  0  0  0  0
    0.3587   -7.3973    1.3953 C   0  0  0  0  0  0  0  0  0  0  0  0
    0.1901   -8.6971    1.0711 C   0  0  0  0  0  0  0  0  0  0  0  0
    0.5759   -9.6648    1.9442 C   0  0  0  0  0  0  0  0  0  0  0  0
    2.7055  -10.5235    4.4262 C   0  0  0  0  0  0  0  0  0  0  0  0
    0.1788   -9.1159   -0.2678 C   0  0  0  0  0  0  0  0  0  0  0  0
   -0.8358   -9.0212   -0.9467 O   0  0  0  0  0  0  0  0  0  0  0  0
    1.1604   -9.8079   -0.8076 O   0  0  0  0  0  0  0  0  0  0  0  0
    0.4821  -10.9752    1.7288 C   0  0  0  0  0  0  0  0  0  0  0  0
    1.6669  -11.8325    1.5459 C   0  0  0  0  0  0  0  0  0  0  0  0
    1.6240  -13.0942    1.4027 C   0  0  0  0  0  0  0  0  0  0  0  0
    0.4923  -13.7530    1.2525 C   0  0  0  0  0  0  0  0  0  0  0  0
   -0.6493  -13.1383    1.2902 C   0  0  0  0  0  0  0  0  0  0  0  0
   -0.6741  -11.7279    1.5316 C   0  0  0  0  0  0  0  0  0  0  0  0
    3.0183  -11.6262    5.3005 C   0  0  0  0  0  0  0  0  0  0  0  0
    4.3622  -11.5395    5.5833 N   0  0  0  0  0  0  0  0  0  0  0  0
    4.9144  -10.7923    5.1872 H   0  0  0  0  0  0  0  0  0  0  0  0
  2  3  1  0
  3  8  1  0
  6  9  1  0
  9 10  2  0
  9 11  1  0
  7 12  1  0
  8 18  1  0
 18 19  2  0
 12 13  2  0
 13 14  1  0
 14 15  2  0
 15 16  1  0
 16 17  2  0
 12 17  1  0
  1  2  2  0
  2  7  1  0
  6  7  2  0
  5  6  1  0
  4  5  2  0
  1  4  1  0
 19 20  1  0
M  END

$$$$
No_4318-/export/home/yangzhenyu/potential_scad_32_flow//YTHDC2/2024-12-06-03-22-00/
     RDKit          3D

 17 18  0  0  0  0  0  0  0  0999 V2000
    1.1787   -8.0297    3.5154 C   0  0  0  0  0  0  0  0  0  0  0  0
    1.1048   -9.2215    3.2892 C   0  0  0  0  0  0  0  0  0  0  0  0
    1.2339   -9.7611    2.0189 C   0  0  0  0  0  0  0  0  0  0  0  0
    1.3583   -9.0036    0.9764 C   0  0  0  0  0  0  0  0  0  0  0  0
    1.5996   -7.6362    1.1311 C   0  0  0  0  0  0  0  0  0  0  0  0
    1.4830   -7.0928    2.3626 C   0  0  0  0  0  0  0  0  0  0  0  0
    1.5395   -5.7300    2.6182 C   0  0  0  0  0  0  0  0  0  0  0  0
    1.3956  -11.4580    1.9050 C   0  0  0  0  0  0  0  0  0  0  0  0
    1.4531  -11.7816    0.6425 C   0  0  0  0  0  0  0  0  0  0  0  0
    1.5410  -12.0678    2.9967 C   0  0  0  0  0  0  0  0  0  0  0  0
    1.3726  -13.4517    2.8232 C   0  0  0  0  0  0  0  0  0  0  0  0
    1.1836  -13.8880    1.6558 C   0  0  0  0  0  0  0  0  0  0  0  0
    1.0373  -15.3950    1.5523 C   0  0  0  0  0  0  0  0  0  0  0  0
    1.2481  -13.2456    0.5906 C   0  0  0  0  0  0  0  0  0  0  0  0
    1.8787  -16.2712    2.1708 C   0  0  0  0  0  0  0  0  0  0  0  0
    1.6797  -17.5797    2.3943 N   0  0  0  0  0  0  0  0  0  0  0  0
    2.7098  -18.3724    2.8114 O   0  0  0  0  0  0  0  0  0  0  0  0
  6  7  1  0
  3  8  1  0
 12 13  1  0
 13 15  1  0
 15 16  1  0
 16 17  2  0
  1  2  2  0
  2  3  1  0
  3  4  2  0
  4  5  1  0
  5  6  2  0
  1  6  1  0
  8  9  2  0
  9 14  1  0
 12 14  2  0
 11 12  1  0
 10 11  2  0
  8 10  1  0
M  END

$$$$
No_4319-/export/home/yangzhenyu/potential_scad_32_flow//YTHDC2/2024-12-06-03-22-00/
     RDKit          3D

 18 18  0  0  0  0  0  0  0  0999 V2000
    1.1787   -8.0297    3.5154 O   0  0  0  0  0  0  0  0  0  0  0  0
    0.9969   -8.9689    3.0048 C   0  0  0  0  0  0  0  0  0  0  0  0
    1.3055  -10.1056    3.6616 C   0  0  0  0  0  0  0  0  0  0  0  0
    1.1249  -11.3503    3.0941 C   0  0  0  0  0  0  0  0  0  0  0  0
    0.6932  -11.4484    1.8586 C   0  0  0  0  0  0  0  0  0  0  0  0
    0.5498  -10.3736    1.0579 C   0  0  0  0  0  0  0  0  0  0  0  0
    0.7643   -9.1185    1.6383 C   0  0  0  0  0  0  0  0  0  0  0  0
    0.5937   -7.8467    1.0482 C   0  0  0  0  0  0  0  0  0  0  0  0
   -0.4358   -7.6746    0.4159 C   0  0  0  0  0  0  0  0  0  0  0  0
    1.2531  -12.6631    3.7963 C   0  0  0  0  0  0  0  0  0  0  0  0
   -1.3039   -8.7767    0.2117 C   0  0  0  0  0  0  0  0  0  0  0  0
   -1.7188   -9.2504   -0.5803 C   0  0  0  0  0  0  0  0  0  0  0  0
    0.5257  -13.7362    3.1407 C   0  0  0  0  0  0  0  0  0  0  0  0
   -0.7065  -13.9356    3.2074 O   0  0  0  0  0  0  0  0  0  0  0  0
    1.5026  -14.7366    2.7249 O   0  0  0  0  0  0  0  0  0  0  0  0
   -0.8996   -6.2304    0.2289 C   0  0  0  0  0  0  0  0  0  0  0  0
   -1.8103   -5.7920    0.6293 C   0  0  0  0  0  0  0  0  0  0  0  0
   -2.1756   -4.3587    0.3861 C   0  0  0  0  0  0  0  0  0  0  0  0
  1  2  1  0
  7  8  1  0
  8  9  2  3
  4 10  1  0
  9 11  1  0
 11 12  3  0
 10 13  1  0
 13 14  1  0
 13 15  2  0
  9 16  1  0
 16 17  2  3
 17 18  1  0
  2  3  2  0
  3  4  1  0
  4  5  2  0
  5  6  1  0
  6  7  2  0
  2  7  1  0
M  END

$$$$
No_4320-/export/home/yangzhenyu/potential_scad_32_flow//YTHDC2/2024-12-06-03-22-00/
     RDKit          3D

 18 20  0  0  0  0  0  0  0  0999 V2000
    1.1787   -8.0297    3.5154 C   0  0  0  0  0  0  0  0  0  0  0  0
    1.1048   -9.2215    3.2892 C   0  0  0  0  0  0  0  0  0  0  0  0
    1.3627  -10.1721    4.3044 C   0  0  0  0  0  0  0  0  0  0  0  0
    1.7354  -11.4730    3.9023 C   0  0  0  0  0  0  0  0  0  0  0  0
    1.8080  -11.8127    2.7216 C   0  0  0  0  0  0  0  0  0  0  0  0
    1.5854  -11.0021    1.7249 C   0  0  0  0  0  0  0  0  0  0  0  0
    1.3573   -9.7389    1.9287 C   0  0  0  0  0  0  0  0  0  0  0  0
    1.1102   -8.8712    0.9017 C   0  0  0  0  0  0  0  0  0  0  0  0
    0.5299   -7.6926    1.0325 C   0  0  0  0  0  0  0  0  0  0  0  0
    0.7526   -7.0802    2.3301 C   0  0  0  0  0  0  0  0  0  0  0  0
    2.1027  -13.4660    2.3958 O   0  0  0  0  0  0  0  0  0  0  0  0
    0.4794   -5.6414    2.5040 C   0  0  0  0  0  0  0  0  0  0  0  0
   -0.6844   -5.1130    2.2427 C   0  0  0  0  0  0  0  0  0  0  0  0
   -0.8691   -3.6998    2.3138 C   0  0  0  0  0  0  0  0  0  0  0  0
    1.5717   -4.8861    3.1318 C   0  0  0  0  0  0  0  0  0  0  0  0
    0.2643   -2.9120    2.7860 C   0  0  0  0  0  0  0  0  0  0  0  0
    1.3752   -3.4532    3.2103 C   0  0  0  0  0  0  0  0  0  0  0  0
    2.0420  -13.8253    1.2014 C   0  0  0  0  0  0  0  0  0  0  0  0
  5 11  1  0
 10 12  1  0
 11 18  1  0
  1  2  2  0
  7  8  2  0
  8  9  1  0
  9 10  2  0
  1 10  1  0
  2  3  1  0
  3  4  2  0
  4  5  1  0
  5  6  2  0
  6  7  1  0
  2  7  1  0
 12 13  2  0
 13 14  1  0
 14 16  2  0
 16 17  1  0
 15 17  2  0
 12 15  1  0
M  END

$$$$
No_4321-/export/home/yangzhenyu/potential_scad_32_flow//YTHDC2/2024-12-06-03-22-00/
     RDKit          3D

 18 19  0  0  0  0  0  0  0  0999 V2000
    1.1787   -8.0297    3.5154 C   0  0  0  0  0  0  0  0  0  0  0  0
    1.1048   -9.2215    3.2892 C   0  0  0  0  0  0  0  0  0  0  0  0
    1.2339   -9.7611    2.0189 C   0  0  0  0  0  0  0  0  0  0  0  0
    1.3583   -9.0036    0.9764 C   0  0  0  0  0  0  0  0  0  0  0  0
    1.5996   -7.6362    1.1311 C   0  0  0  0  0  0  0  0  0  0  0  0
    1.4830   -7.0928    2.3626 C   0  0  0  0  0  0  0  0  0  0  0  0
    1.1171  -11.3311    1.8661 C   0  0  0  0  0  0  0  0  0  0  0  0
    1.9975  -12.1095    2.2478 N   0  0  0  0  0  0  0  0  0  0  0  0
    1.6691  -13.3307    2.5284 C   0  0  0  0  0  0  0  0  0  0  0  0
    0.8296  -13.9867    1.7251 C   0  0  0  0  0  0  0  0  0  0  0  0
   -0.1459  -13.2131    1.1537 C   0  0  0  0  0  0  0  0  0  0  0  0
    0.0704  -11.8087    1.1170 C   0  0  0  0  0  0  0  0  0  0  0  0
    1.5598   -5.6664    2.6433 C   0  0  0  0  0  0  0  0  0  0  0  0
   -0.8844  -10.9904    0.4387 C   0  0  0  0  0  0  0  0  0  0  0  0
   -1.9604  -10.4954    1.1195 C   0  0  0  0  0  0  0  0  0  0  0  0
   -2.4231  -11.0408    2.1712 C   0  0  0  0  0  0  0  0  0  0  0  0
   -3.4542  -10.4654    2.9024 C   0  0  0  0  0  0  0  0  0  0  0  0
   -3.9575   -9.2585    2.5011 C   0  0  0  0  0  0  0  0  0  0  0  0
  3  7  1  0
  6 13  1  0
 12 14  1  0
 14 15  1  0
 15 16  2  3
 16 17  1  0
 17 18  2  0
  1  2  2  0
  2  3  1  0
  3  4  2  0
  4  5  1  0
  5  6  2  0
  1  6  1  0
  7  8  2  0
  8  9  1  0
  9 10  2  0
 10 11  1  0
 11 12  2  0
  7 12  1  0
M  END

$$$$
No_4322-/export/home/yangzhenyu/potential_scad_32_flow//YTHDC2/2024-12-06-03-22-00/
     RDKit          3D

 20 20  0  0  1  0  0  0  0  0999 V2000
    1.1787   -8.0297    3.5154 C   0  0  0  0  0  0  0  0  0  0  0  0
    1.0491   -6.8434    2.9820 C   0  0  0  0  0  0  0  0  0  0  0  0
    0.9905   -9.0774    2.6527 C   0  0  0  0  0  0  0  0  0  0  0  0
    0.7897   -8.9519    1.3691 C   0  0  0  0  0  0  0  0  0  0  0  0
    0.7018   -7.7198    0.7892 C   0  0  0  0  0  0  0  0  0  0  0  0
    0.8918   -6.5957    1.6117 C   0  0  0  0  0  0  0  0  0  0  0  0
    1.0998  -10.4710    3.2437 C   0  0  1  0  0  0  0  0  0  0  0  0
    2.1917  -10.8879    3.7399 C   0  0  0  0  0  0  0  0  0  0  0  0
    0.8983   -5.2566    1.2088 C   0  0  0  0  0  0  0  0  0  0  0  0
   -0.0163  -11.2298    3.3739 C   0  0  0  0  0  0  0  0  0  0  0  0
   -1.1391  -10.5481    3.9500 C   0  0  0  0  0  0  0  0  0  0  0  0
   -2.3745  -10.5250    3.5613 C   0  0  0  0  0  0  0  0  0  0  0  0
   -3.2734   -9.5893    4.1705 C   0  0  0  0  0  0  0  0  0  0  0  0
   -0.1755  -12.4062    2.9267 O   0  0  0  0  0  0  0  0  0  0  0  0
   -4.1654   -9.8631    5.0574 C   0  0  0  0  0  0  0  0  0  0  0  0
   -4.2450  -11.3841    5.4092 C   0  0  0  0  0  0  0  0  0  0  0  0
   -4.9352   -9.0093    5.8663 C   0  0  0  0  0  0  0  0  0  0  0  0
   -4.3385   -7.9423    6.5052 C   0  0  0  0  0  0  0  0  0  0  0  0
    0.2326   -4.2966    2.0286 N   0  0  0  0  0  0  0  0  0  0  0  0
    0.2375   -3.0318    1.5961 C   0  0  0  0  0  0  0  0  0  0  0  0
  3  7  1  0
  7  8  1  1
  6  9  1  0
  7 10  1  0
 10 11  1  0
 11 12  2  3
 12 13  1  0
 10 14  2  0
 13 15  2  3
 15 16  1  0
 15 17  1  0
 17 18  1  0
  9 19  1  0
 19 20  1  0
  1  2  2  0
  2  6  1  0
  5  6  2  0
  4  5  1  0
  3  4  2  0
  1  3  1  0
M  END

$$$$
No_4323-/export/home/yangzhenyu/potential_scad_32_flow//YTHDC2/2024-12-06-03-22-00/
     RDKit          3D

 18 20  0  0  0  0  0  0  0  0999 V2000
    1.1787   -8.0297    3.5154 C   0  0  0  0  0  0  0  0  0  0  0  0
    1.1048   -9.2215    3.2892 C   0  0  0  0  0  0  0  0  0  0  0  0
    1.3627  -10.1721    4.3044 N   0  0  0  0  0  0  0  0  0  0  0  0
    0.8906   -7.0205    2.5928 C   0  0  0  0  0  0  0  0  0  0  0  0
    0.4671   -7.4742    1.3959 C   0  0  0  0  0  0  0  0  0  0  0  0
    0.3165   -8.7190    1.0967 C   0  0  0  0  0  0  0  0  0  0  0  0
    0.6317   -9.6940    2.0223 C   0  0  0  0  0  0  0  0  0  0  0  0
    1.2351  -11.5155    3.9909 C   0  0  0  0  0  0  0  0  0  0  0  0
    0.8020  -11.9501    2.8684 C   0  0  0  0  0  0  0  0  0  0  0  0
    0.4959  -10.9961    1.8182 C   0  0  0  0  0  0  0  0  0  0  0  0
    0.6460  -13.3549    2.5402 C   0  0  0  0  0  0  0  0  0  0  0  0
   -0.5401  -13.8339    2.1252 C   0  0  0  0  0  0  0  0  0  0  0  0
   -1.5678  -13.2683    2.1445 C   0  0  0  0  0  0  0  0  0  0  0  0
   -2.8224  -13.8520    1.8072 C   0  0  0  0  0  0  0  0  0  0  0  0
   -2.7519  -15.1874    1.4128 C   0  0  0  0  0  0  0  0  0  0  0  0
   -1.5891  -15.8653    1.4046 C   0  0  0  0  0  0  0  0  0  0  0  0
   -0.3814  -15.2378    1.7072 C   0  0  0  0  0  0  0  0  0  0  0  0
    1.1766   -5.3681    2.9365 F   0  0  0  0  0  0  0  0  0  0  0  0
  9 11  1  0
 11 12  1  0
  4 18  1  0
 12 13  2  0
 13 14  1  0
 14 15  2  0
 15 16  1  0
 16 17  2  0
 12 17  1  0
  1  2  2  0
  6  7  2  0
  5  6  1  0
  4  5  2  0
  1  4  1  0
  2  3  1  0
  3  8  2  0
  8  9  1  0
  9 10  2  0
  7 10  1  0
  2  7  1  0
M  END

$$$$
No_4324-/export/home/yangzhenyu/potential_scad_32_flow//YTHDC2/2024-12-06-03-22-00/
     RDKit          3D

 16 17  0  0  1  0  0  0  0  0999 V2000
    1.1787   -8.0297    3.5154 C   0  0  0  0  0  0  0  0  0  0  0  0
    1.1048   -9.2215    3.2892 C   0  0  0  0  0  0  0  0  0  0  0  0
    1.2339   -9.7611    2.0189 C   0  0  0  0  0  0  0  0  0  0  0  0
    1.1954  -11.2312    1.8661 C   0  0  1  0  0  0  0  0  0  0  0  0
    1.2996  -11.5815    0.5387 C   0  0  0  0  0  0  0  0  0  0  0  0
    1.3263   -7.1208    2.3229 C   0  0  0  0  0  0  0  0  0  0  0  0
    1.3693   -7.6408    1.0625 C   0  0  0  0  0  0  0  0  0  0  0  0
    1.4358   -8.9950    0.8622 C   0  0  0  0  0  0  0  0  0  0  0  0
    1.8955  -11.8446    2.8953 C   0  0  0  0  0  0  0  0  0  0  0  0
    1.0417  -12.9506    3.5023 C   0  0  0  0  0  0  0  0  0  0  0  0
    0.5710  -13.9382    2.5320 C   0  0  0  0  0  0  0  0  0  0  0  0
    1.4287  -14.9085    2.1613 C   0  0  0  0  0  0  0  0  0  0  0  0
    1.1962  -15.9979    1.5255 C   0  0  0  0  0  0  0  0  0  0  0  0
    0.1062  -16.0588    0.8694 C   0  0  0  0  0  0  0  0  0  0  0  0
   -0.8139  -15.0500    1.0476 C   0  0  0  0  0  0  0  0  0  0  0  0
   -0.5757  -13.9953    1.9511 C   0  0  0  0  0  0  0  0  0  0  0  0
  3  4  1  0
  4  5  1  6
  4  9  1  0
  9 10  1  0
 10 11  1  0
 11 12  2  0
 12 13  1  0
 13 14  2  0
 14 15  1  0
 15 16  2  0
 11 16  1  0
  1  2  2  0
  2  3  1  0
  3  8  2  0
  7  8  1  0
  6  7  2  0
  1  6  1  0
M  END

$$$$
No_4325-/export/home/yangzhenyu/potential_scad_32_flow//YTHDC2/2024-12-06-03-22-00/
     RDKit          3D

 21 22  0  0  0  0  0  0  0  0999 V2000
    1.1787   -8.0297    3.5154 C   0  0  0  0  0  0  0  0  0  0  0  0
    1.1048   -9.2215    3.2892 C   0  0  0  0  0  0  0  0  0  0  0  0
    1.3627  -10.1721    4.3044 C   0  0  0  0  0  0  0  0  0  0  0  0
    1.7354  -11.4730    3.9023 C   0  0  0  0  0  0  0  0  0  0  0  0
    1.8080  -11.8127    2.7216 C   0  0  0  0  0  0  0  0  0  0  0  0
    1.5854  -11.0021    1.7249 C   0  0  0  0  0  0  0  0  0  0  0  0
    1.3573   -9.7389    1.9287 C   0  0  0  0  0  0  0  0  0  0  0  0
    1.2865   -8.8078    0.9161 C   0  0  0  0  0  0  0  0  0  0  0  0
    0.9210   -7.5140    1.1674 C   0  0  0  0  0  0  0  0  0  0  0  0
    1.0097   -7.0192    2.4369 C   0  0  0  0  0  0  0  0  0  0  0  0
    0.9449   -5.6296    2.7100 C   0  0  0  0  0  0  0  0  0  0  0  0
    2.0493  -13.2614    2.4251 C   0  0  0  0  0  0  0  0  0  0  0  0
    2.3806  -13.7446    1.3056 N   0  0  0  0  0  0  0  0  0  0  0  0
    2.0179  -14.1611    3.3765 O   0  0  0  0  0  0  0  0  0  0  0  0
    1.3709   -9.2255   -0.4046 Br  0  0  0  0  0  0  0  0  0  0  0  0
    1.2959   -4.8066    2.0792 C   0  0  0  0  0  0  0  0  0  0  0  0
    1.1950   -3.3156    2.2948 O   0  0  0  0  0  0  0  0  0  0  0  0
    1.4316   -3.1091    3.6726 C   0  0  0  0  0  0  0  0  0  0  0  0
    0.4404   -2.1922    4.0507 C   0  0  0  0  0  0  0  0  0  0  0  0
    0.7326   -0.9563    3.5962 C   0  0  0  0  0  0  0  0  0  0  0  0
    0.6907   -0.8925    2.0871 C   0  0  0  0  0  0  0  0  0  0  0  0
 10 11  1  0
  5 12  1  0
 12 13  1  0
 12 14  2  0
  8 15  1  0
 11 16  2  3
 16 17  1  0
 17 18  1  0
 18 19  1  0
 19 20  1  0
 20 21  1  0
  1  2  2  0
  7  8  2  0
  8  9  1  0
  9 10  2  0
  1 10  1  0
  2  3  1  0
  3  4  2  0
  4  5  1  0
  5  6  2  0
  6  7  1  0
  2  7  1  0
M  END

$$$$
No_4326-/export/home/yangzhenyu/potential_scad_32_flow//YTHDC2/2024-12-06-03-22-00/
     RDKit          3D

 18 19  0  0  1  0  0  0  0  0999 V2000
    1.1787   -8.0297    3.5154 O   0  0  0  0  0  0  0  0  0  0  0  0
    0.9969   -8.9689    3.0048 C   0  0  0  0  0  0  0  0  0  0  0  0
    1.3055  -10.1056    3.6616 C   0  0  0  0  0  0  0  0  0  0  0  0
    1.1249  -11.3503    3.0941 C   0  0  0  0  0  0  0  0  0  0  0  0
    0.6932  -11.4484    1.8586 C   0  0  0  0  0  0  0  0  0  0  0  0
    0.5498  -10.3736    1.0579 C   0  0  0  0  0  0  0  0  0  0  0  0
    0.3509  -10.4923   -0.3150 C   0  0  0  0  0  0  0  0  0  0  0  0
    0.7896   -9.1534    1.6149 C   0  0  0  0  0  0  0  0  0  0  0  0
   -0.7753   -9.7201   -0.6938 C   0  0  0  0  0  0  0  0  0  0  0  0
   -0.8763   -8.9902   -1.8580 C   0  0  0  0  0  0  0  0  0  0  0  0
   -1.8489   -8.2743   -2.3328 C   0  0  0  0  0  0  0  0  0  0  0  0
   -1.6634   -7.5713   -3.5996 C   0  0  1  0  0  0  0  0  0  0  0  0
   -1.7687   -6.2372   -3.8947 C   0  0  0  0  0  0  0  0  0  0  0  0
   -1.3133   -5.8193   -5.1581 C   0  0  0  0  0  0  0  0  0  0  0  0
   -0.8729   -6.7960   -6.0038 C   0  0  0  0  0  0  0  0  0  0  0  0
   -0.9604   -8.1391   -5.0797 C   0  0  0  0  0  0  0  0  0  0  0  0
    1.0737   -7.9473    0.9444 C   0  0  0  0  0  0  0  0  0  0  0  0
    1.1408  -12.6487    3.7833 C   0  0  0  0  0  0  0  0  0  0  0  0
  1  2  1  0
  6  7  1  0
  7  9  1  0
  9 10  1  0
 10 11  2  3
 11 12  1  0
 12 13  1  0
 13 14  2  0
 14 15  1  0
 12 16  1  1
 15 16  1  0
  8 17  1  0
  4 18  1  0
  2  3  2  0
  3  4  1  0
  4  5  2  0
  5  6  1  0
  6  8  2  0
  2  8  1  0
M  END

$$$$
No_4327-/export/home/yangzhenyu/potential_scad_32_flow//YTHDC2/2024-12-06-03-22-00/
     RDKit          3D

 17 17  0  0  0  0  0  0  0  0999 V2000
    1.1787   -8.0297    3.5154 C   0  0  0  0  0  0  0  0  0  0  0  0
    1.1048   -9.2215    3.2892 C   0  0  0  0  0  0  0  0  0  0  0  0
    1.2339   -9.7611    2.0189 C   0  0  0  0  0  0  0  0  0  0  0  0
    1.3583   -9.0036    0.9764 C   0  0  0  0  0  0  0  0  0  0  0  0
    1.7077   -9.6100   -0.3010 C   0  0  0  0  0  0  0  0  0  0  0  0
    1.3637   -7.1087    2.3226 C   0  0  0  0  0  0  0  0  0  0  0  0
    1.4257   -7.6645    1.0231 C   0  0  0  0  0  0  0  0  0  0  0  0
    1.6722  -10.7840   -0.4044 O   0  0  0  0  0  0  0  0  0  0  0  0
    1.4862   -8.9147   -1.4018 N   0  0  0  0  0  0  0  0  0  0  0  0
    1.1540  -10.3046    4.5710 C   0  0  0  0  0  0  0  0  0  0  0  0
    2.0286  -11.5486    4.1845 C   0  0  0  0  0  0  0  0  0  0  0  0
    1.4941  -12.3148    3.1753 O   0  0  0  0  0  0  0  0  0  0  0  0
    0.5286  -13.2360    3.3888 C   0  0  0  0  0  0  0  0  0  0  0  0
    0.5335  -14.1859    2.3401 C   0  0  0  0  0  0  0  0  0  0  0  0
    1.4500  -14.1718    1.4722 C   0  0  0  0  0  0  0  0  0  0  0  0
    2.6673  -14.5334    1.7337 C   0  0  0  0  0  0  0  0  0  0  0  0
    1.2711   -5.6332    2.6089 Cl  0  0  0  0  0  0  0  0  0  0  0  0
  4  5  1  0
  5  8  2  0
  5  9  1  0
  2 10  1  0
 10 11  1  0
 11 12  1  0
 12 13  1  0
 13 14  1  0
 14 15  1  0
 15 16  1  0
  6 17  1  0
  1  2  2  0
  2  3  1  0
  3  4  2  0
  4  7  1  0
  6  7  2  0
  1  6  1  0
M  END

$$$$
No_4328-/export/home/yangzhenyu/potential_scad_32_flow//YTHDC2/2024-12-06-03-22-00/
     RDKit          3D

 17 18  0  0  1  0  0  0  0  0999 V2000
    1.1787   -8.0297    3.5154 C   0  0  0  0  0  0  0  0  0  0  0  0
    1.0491   -6.8434    2.9820 C   0  0  0  0  0  0  0  0  0  0  0  0
    0.9905   -9.0774    2.6527 C   0  0  0  0  0  0  0  0  0  0  0  0
    0.7897   -8.9519    1.3691 C   0  0  0  0  0  0  0  0  0  0  0  0
    0.7018   -7.7198    0.7892 C   0  0  0  0  0  0  0  0  0  0  0  0
    0.8918   -6.5957    1.6117 C   0  0  0  0  0  0  0  0  0  0  0  0
    1.0600  -10.5680    3.3321 C   0  0  2  0  0  0  0  0  0  0  0  0
    2.1422  -11.0089    3.6867 C   0  0  0  0  0  0  0  0  0  0  0  0
    0.8608   -5.2505    1.2071 O   0  0  0  0  0  0  0  0  0  0  0  0
    0.3660  -11.5297    2.4684 C   0  0  0  0  0  0  0  0  0  0  0  0
   -0.9792  -11.5881    2.7140 Cl  0  0  0  0  0  0  0  0  0  0  0  0
    2.0822  -11.7617    5.0127 S   0  0  0  0  0  0  0  0  0  0  0  0
    0.9710  -12.9592    2.7038 C   0  0  0  0  0  0  0  0  0  0  0  0
    0.5863  -13.8490    1.6012 C   0  0  0  0  0  0  0  0  0  0  0  0
    0.7638  -13.3545    0.3519 C   0  0  0  0  0  0  0  0  0  0  0  0
    0.9286  -12.0238    0.3160 C   0  0  0  0  0  0  0  0  0  0  0  0
    0.5895  -11.1444    1.2938 C   0  0  0  0  0  0  0  0  0  0  0  0
  1  2  1  0
  3  4  1  0
  2  6  1  0
  5  6  1  0
  3  7  1  0
  7  8  1  6
  6  9  2  0
  7 10  1  0
 10 11  1  0
  8 12  1  0
 10 13  1  0
 13 14  1  0
 14 15  1  0
 15 16  1  0
 10 17  1  0
 16 17  1  0
  1  3  1  0
  4  5  1  0
M  END

$$$$
No_4329-/export/home/yangzhenyu/potential_scad_32_flow//YTHDC2/2024-12-06-03-22-00/
     RDKit          3D

 16 16  0  0  0  0  0  0  0  0999 V2000
    1.1787   -8.0297    3.5154 C   0  0  0  0  0  0  0  0  0  0  0  0
    1.0491   -6.8434    2.9820 C   0  0  0  0  0  0  0  0  0  0  0  0
    0.9905   -9.0774    2.6527 C   0  0  0  0  0  0  0  0  0  0  0  0
    0.7897   -8.9519    1.3691 C   0  0  0  0  0  0  0  0  0  0  0  0
    0.7018   -7.7198    0.7892 C   0  0  0  0  0  0  0  0  0  0  0  0
    0.8918   -6.5957    1.6117 C   0  0  0  0  0  0  0  0  0  0  0  0
    1.0600  -10.5680    3.3321 C   0  0  0  0  0  0  0  0  0  0  0  0
    2.1422  -11.0089    3.6867 C   0  0  0  0  0  0  0  0  0  0  0  0
    0.8608   -5.2505    1.2071 O   0  0  0  0  0  0  0  0  0  0  0  0
   -0.0630  -11.2113    3.4548 C   0  0  0  0  0  0  0  0  0  0  0  0
   -1.1756  -10.4986    4.0222 C   0  0  0  0  0  0  0  0  0  0  0  0
    2.5924  -12.1889    3.3933 O   0  0  0  0  0  0  0  0  0  0  0  0
    2.9454  -10.5205    4.7780 O   0  0  0  0  0  0  0  0  0  0  0  0
   -2.4336  -10.8475    3.7310 C   0  0  0  0  0  0  0  0  0  0  0  0
   -2.6608  -11.9642    2.9702 C   0  0  0  0  0  0  0  0  0  0  0  0
   -1.5908  -12.7182    2.4328 C   0  0  0  0  0  0  0  0  0  0  0  0
  1  2  1  0
  3  4  1  0
  2  6  1  0
  5  6  1  0
  3  7  1  0
  7  8  1  0
  6  9  2  0
  7 10  1  0
 10 11  1  0
  8 12  2  0
  8 13  1  0
 11 14  2  3
 14 15  1  0
 15 16  2  0
  1  3  1  0
  4  5  1  0
M  END

$$$$
No_4330-/export/home/yangzhenyu/potential_scad_32_flow//YTHDC2/2024-12-06-03-22-00/
     RDKit          3D

 18 19  0  0  1  0  0  0  0  0999 V2000
    1.1787   -8.0297    3.5154 C   0  0  0  0  0  0  0  0  0  0  0  0
    1.0491   -6.8434    2.9820 C   0  0  1  0  0  0  0  0  0  0  0  0
    0.9905   -9.0774    2.6527 C   0  0  0  0  0  0  0  0  0  0  0  0
    0.7897   -8.9519    1.3691 C   0  0  0  0  0  0  0  0  0  0  0  0
    0.7018   -7.7198    0.7892 C   0  0  0  0  0  0  0  0  0  0  0  0
    1.4312   -5.5794    3.7443 Cl  0  0  0  0  0  0  0  0  0  0  0  0
    0.9313   -6.7257    1.5340 C   0  0  0  0  0  0  0  0  0  0  0  0
    1.0064  -10.4910    3.2333 C   0  0  0  0  0  0  0  0  0  0  0  0
    2.0815  -11.0866    3.6030 C   0  0  0  0  0  0  0  0  0  0  0  0
   -0.1523  -11.1932    3.3282 C   0  0  0  0  0  0  0  0  0  0  0  0
    3.1774  -10.3022    4.2336 N   0  0  0  0  0  0  0  0  0  0  0  0
   -0.8478  -11.4821    2.5081 C   0  0  0  0  0  0  0  0  0  0  0  0
   -0.4133  -11.5707    1.1597 C   0  0  0  0  0  0  0  0  0  0  0  0
   -1.1735  -11.4256    0.0913 C   0  0  0  0  0  0  0  0  0  0  0  0
   -2.5510  -10.9239    0.4963 N   0  0  0  0  0  0  0  0  0  0  0  0
   -2.2837  -11.0660    2.0339 C   0  0  0  0  0  0  0  0  0  0  0  0
    0.9304   -5.4485    0.9842 O   0  0  0  0  0  0  0  0  0  0  0  0
   -3.6370  -10.5781    0.0225 C   0  0  0  0  0  0  0  0  0  0  0  0
  1  2  1  0
  3  4  1  0
  2  6  1  6
  2  7  1  0
  5  7  1  0
  3  8  1  0
  8  9  1  0
  8 10  1  0
  9 11  1  0
 10 12  2  3
 12 13  1  0
 13 14  2  0
 14 15  1  0
 12 16  1  0
 15 16  1  0
  7 17  2  0
 15 18  1  0
  1  3  1  0
  4  5  1  0
M  END

$$$$
No_4331-/export/home/yangzhenyu/potential_scad_32_flow//YTHDC2/2024-12-06-03-22-00/
     RDKit          3D

 18 19  0  0  1  0  0  0  0  0999 V2000
    1.1787   -8.0297    3.5154 C   0  0  0  0  0  0  0  0  0  0  0  0
    1.1048   -9.2215    3.2892 C   0  0  0  0  0  0  0  0  0  0  0  0
    1.3627  -10.1721    4.3044 C   0  0  0  0  0  0  0  0  0  0  0  0
    1.0682  -11.5187    4.0618 C   0  0  0  0  0  0  0  0  0  0  0  0
    0.6332  -11.9655    2.9682 C   0  0  1  0  0  0  0  0  0  0  0  0
    0.4776  -11.1308    1.9203 C   0  0  0  0  0  0  0  0  0  0  0  0
    0.7470   -9.8274    2.0368 C   0  0  0  0  0  0  0  0  0  0  0  0
    1.8804   -7.1616    3.5539 C   0  0  0  0  0  0  0  0  0  0  0  0
    0.3665  -13.5716    2.7988 C   0  0  2  0  0  0  0  0  0  0  0  0
   -0.6952  -13.9451    2.4760 C   0  0  0  0  0  0  0  0  0  0  0  0
    1.5277  -14.3816    3.1477 C   0  0  0  0  0  0  0  0  0  0  0  0
   -0.9243  -15.2921    2.3221 C   0  0  0  0  0  0  0  0  0  0  0  0
    0.0676  -16.1878    2.6645 C   0  0  0  0  0  0  0  0  0  0  0  0
    1.3320  -15.7243    3.0841 C   0  0  0  0  0  0  0  0  0  0  0  0
    0.7268   -8.9986    0.9794 O   0  0  0  0  0  0  0  0  0  0  0  0
    2.3643  -16.6290    3.3602 O   0  0  0  0  0  0  0  0  0  0  0  0
    1.4387   -5.7366    3.2722 C   0  0  0  0  0  0  0  0  0  0  0  0
    1.2120   -4.7331    4.0838 C   0  0  0  0  0  0  0  0  0  0  0  0
  1  2  1  0
  2  3  1  0
  5  4  1  6
  2  7  1  0
  6  7  1  0
  1  8  2  3
  5  9  1  0
  9 11  1  1
 10 12  1  0
 11 14  1  0
 13 14  1  0
  7 15  2  0
 14 16  2  0
  8 17  1  0
 17 18  2  0
  3  4  1  0
  5  6  1  0
  9 10  1  0
 12 13  1  0
M  END

$$$$
No_4332-/export/home/yangzhenyu/potential_scad_32_flow//YTHDC2/2024-12-06-03-22-00/
     RDKit          3D

 18 19  0  0  0  0  0  0  0  0999 V2000
    1.1787   -8.0297    3.5154 C   0  0  0  0  0  0  0  0  0  0  0  0
    1.1048   -9.2215    3.2892 C   0  0  0  0  0  0  0  0  0  0  0  0
    1.2339   -9.7611    2.0189 C   0  0  0  0  0  0  0  0  0  0  0  0
    1.3583   -9.0036    0.9764 C   0  0  0  0  0  0  0  0  0  0  0  0
    1.5996   -7.6362    1.1311 C   0  0  0  0  0  0  0  0  0  0  0  0
    1.4830   -7.0928    2.3626 C   0  0  0  0  0  0  0  0  0  0  0  0
    1.1008  -11.2372    1.8542 C   0  0  0  0  0  0  0  0  0  0  0  0
    0.5178  -11.9759    2.3445 C   0  0  0  0  0  0  0  0  0  0  0  0
    0.4575  -13.3705    2.1281 C   0  0  0  0  0  0  0  0  0  0  0  0
    1.1632  -14.1013    2.0451 C   0  0  0  0  0  0  0  0  0  0  0  0
    2.4571  -13.8028    2.0240 C   0  0  0  0  0  0  0  0  0  0  0  0
    0.9361  -15.6511    2.0588 C   0  0  0  0  0  0  0  0  0  0  0  0
    2.0031  -16.4405    2.4596 C   0  0  0  0  0  0  0  0  0  0  0  0
    1.7571  -17.7921    2.5958 C   0  0  0  0  0  0  0  0  0  0  0  0
    0.5465  -18.2417    2.6693 C   0  0  0  0  0  0  0  0  0  0  0  0
   -0.5220  -17.4735    2.4989 C   0  0  0  0  0  0  0  0  0  0  0  0
   -0.3061  -16.0942    2.2531 C   0  0  0  0  0  0  0  0  0  0  0  0
    1.5559   -5.6569    2.6311 C   0  0  0  0  0  0  0  0  0  0  0  0
  3  7  1  0
  7  8  2  3
  8  9  1  0
  9 10  2  3
 10 11  1  0
 10 12  1  0
  6 18  1  0
 12 13  2  0
 13 14  1  0
 14 15  2  0
 15 16  1  0
 16 17  2  0
 12 17  1  0
  1  2  2  0
  2  3  1  0
  3  4  2  0
  4  5  1  0
  5  6  2  0
  1  6  1  0
M  END

$$$$
No_4333-/export/home/yangzhenyu/potential_scad_32_flow//YTHDC2/2024-12-06-03-22-00/
     RDKit          3D

 19 20  0  0  1  0  0  0  0  0999 V2000
    1.1787   -8.0297    3.5154 P   0  0  2  0  0  0  0  0  0  0  0  0
    1.2030   -9.2736    3.3536 O   0  0  0  0  0  0  0  0  0  0  0  0
   -0.0768   -7.4876    3.7816 O   0  0  0  0  0  0  0  0  0  0  0  0
    1.6943   -7.3089    2.0219 O   0  0  0  0  0  0  0  0  0  0  0  0
    0.1236  -10.2741    3.1434 C   0  0  0  0  0  0  0  0  0  0  0  0
    0.6559  -11.6336    2.7144 C   0  0  0  0  0  0  0  0  0  0  0  0
   -0.0776  -12.2747    2.4824 C   0  0  0  0  0  0  0  0  0  0  0  0
   -1.4887  -12.3166    2.8766 C   0  0  0  0  0  0  0  0  0  0  0  0
   -1.9298  -11.2053    3.4506 C   0  0  0  0  0  0  0  0  0  0  0  0
   -0.9934  -10.1395    3.7295 C   0  0  0  0  0  0  0  0  0  0  0  0
    0.2538  -13.5834    1.8079 C   0  0  1  0  0  0  0  0  0  0  0  0
    1.4888  -13.9805    1.8188 C   0  0  0  0  0  0  0  0  0  0  0  0
    1.9554  -15.1895    1.2594 C   0  0  0  0  0  0  0  0  0  0  0  0
    1.0452  -15.8894    0.7134 C   0  0  2  0  0  0  0  0  0  0  0  0
   -0.2444  -15.6354    0.6898 C   0  0  0  0  0  0  0  0  0  0  0  0
   -0.6382  -14.4758    1.2134 C   0  0  0  0  0  0  0  0  0  0  0  0
   -1.1808  -16.4580    0.0375 O   0  0  0  0  0  0  0  0  0  0  0  0
    1.3987  -17.1506    0.1592 Cl  0  0  0  0  0  0  0  0  0  0  0  0
   -3.2657  -11.0115    3.9158 C   0  0  0  0  0  0  0  0  0  0  0  0
  1  2  1  0
  1  3  1  6
  1  4  2  0
  2  5  1  0
 11  7  1  1
 12 13  1  0
 14 15  1  0
 11 16  1  0
 15 16  1  0
 15 17  2  0
 14 18  1  1
  9 19  1  0
 13 14  1  0
 11 12  1  0
  5  6  2  0
  6  7  1  0
  7  8  2  0
  8  9  1  0
  9 10  2  0
  5 10  1  0
M  END

$$$$
No_4334-/export/home/yangzhenyu/potential_scad_32_flow//YTHDC2/2024-12-06-03-22-00/
     RDKit          3D

 18 19  0  0  0  0  0  0  0  0999 V2000
    1.1787   -8.0297    3.5154 C   0  0  0  0  0  0  0  0  0  0  0  0
    1.1048   -9.2215    3.2892 C   0  0  0  0  0  0  0  0  0  0  0  0
    1.3627  -10.1721    4.3044 C   0  0  0  0  0  0  0  0  0  0  0  0
    1.7354  -11.4730    3.9023 C   0  0  0  0  0  0  0  0  0  0  0  0
    1.8080  -11.8127    2.7216 C   0  0  0  0  0  0  0  0  0  0  0  0
    1.5854  -11.0021    1.7249 C   0  0  0  0  0  0  0  0  0  0  0  0
    1.3573   -9.7389    1.9287 C   0  0  0  0  0  0  0  0  0  0  0  0
    1.2865   -8.8078    0.9161 C   0  0  0  0  0  0  0  0  0  0  0  0
    1.6845   -9.1638   -0.2896 O   0  0  0  0  0  0  0  0  0  0  0  0
    0.9531   -7.5121    1.0883 N   0  0  0  0  0  0  0  0  0  0  0  0
    0.9204   -7.0389    2.3661 C   0  0  0  0  0  0  0  0  0  0  0  0
    0.8167   -5.6950    2.5544 O   0  0  0  0  0  0  0  0  0  0  0  0
    2.0975  -13.4397    2.3143 C   0  0  0  0  0  0  0  0  0  0  0  0
    1.0333  -14.1397    1.8484 C   0  0  0  0  0  0  0  0  0  0  0  0
   -0.0143  -13.6007    1.4666 C   0  0  0  0  0  0  0  0  0  0  0  0
   -1.1120  -13.5729    2.4184 C   0  0  0  0  0  0  0  0  0  0  0  0
   -1.3542  -14.7606    2.9356 C   0  0  0  0  0  0  0  0  0  0  0  0
   -0.1654  -15.7074    3.2419 C   0  0  0  0  0  0  0  0  0  0  0  0
  1  2  1  0
  7  8  1  0
  8  9  2  0
  8 10  1  0
  1 11  1  0
 10 11  1  0
 11 12  2  0
  5 13  1  0
 13 14  1  0
 14 15  1  0
 15 16  1  0
 16 17  1  0
 17 18  1  0
  2  3  2  0
  3  4  1  0
  4  5  2  0
  5  6  1  0
  6  7  2  0
  2  7  1  0
M  END

$$$$
No_4335-/export/home/yangzhenyu/potential_scad_32_flow//YTHDC2/2024-12-06-03-22-00/
     RDKit          3D

 18 20  0  0  0  0  0  0  0  0999 V2000
    1.1787   -8.0297    3.5154 C   0  0  0  0  0  0  0  0  0  0  0  0
    1.1048   -9.2215    3.2892 C   0  0  0  0  0  0  0  0  0  0  0  0
    1.3627  -10.1721    4.3044 C   0  0  0  0  0  0  0  0  0  0  0  0
    1.0682  -11.5187    4.0618 C   0  0  0  0  0  0  0  0  0  0  0  0
    0.6332  -11.9655    2.9682 C   0  0  0  0  0  0  0  0  0  0  0  0
    0.4776  -11.1308    1.9203 C   0  0  0  0  0  0  0  0  0  0  0  0
    0.7470   -9.8274    2.0368 C   0  0  0  0  0  0  0  0  0  0  0  0
    0.5535   -7.1314    2.6861 C   0  0  0  0  0  0  0  0  0  0  0  0
    0.2950   -7.6000    1.3275 C   0  0  0  0  0  0  0  0  0  0  0  0
    0.2693   -8.8631    1.0973 C   0  0  0  0  0  0  0  0  0  0  0  0
   -0.0069   -6.7080    0.3888 N   0  0  0  0  0  0  0  0  0  0  0  0
   -0.0481   -9.0511   -0.2563 N   0  0  0  0  0  0  0  0  0  0  0  0
    0.5150  -13.5776    2.6507 C   0  0  0  0  0  0  0  0  0  0  0  0
    1.5663  -14.3600    3.1086 C   0  0  0  0  0  0  0  0  0  0  0  0
    1.6575  -15.5822    2.3581 C   0  0  0  0  0  0  0  0  0  0  0  0
    2.5677  -15.5117    1.5131 C   0  0  0  0  0  0  0  0  0  0  0  0
   -0.3713   -7.9301   -0.9015 N   0  0  0  0  0  0  0  0  0  0  0  0
    0.8979  -16.6625    2.6310 C   0  0  0  0  0  0  0  0  0  0  0  0
  5 13  1  0
 13 14  1  0
 14 15  1  0
 15 16  1  0
 11 17  1  0
 12 17  1  0
 15 18  1  0
 10 12  1  0
  9 11  1  0
  2  3  1  0
  3  4  2  0
  4  5  1  0
  5  6  2  0
  6  7  1  0
  1  2  2  0
  2  7  1  0
  7 10  2  0
  9 10  1  0
  8  9  2  0
  1  8  1  0
M  END

$$$$
No_4336-/export/home/yangzhenyu/potential_scad_32_flow//YTHDC2/2024-12-06-03-22-00/
     RDKit          3D

 19 20  0  0  0  0  0  0  0  0999 V2000
    1.1787   -8.0297    3.5154 C   0  0  0  0  0  0  0  0  0  0  0  0
    1.0491   -6.8434    2.9820 C   0  0  0  0  0  0  0  0  0  0  0  0
    0.0950   -8.8404    3.2292 C   0  0  0  0  0  0  0  0  0  0  0  0
   -0.9173   -8.4596    2.5152 C   0  0  0  0  0  0  0  0  0  0  0  0
   -1.0331   -7.2162    2.0653 C   0  0  0  0  0  0  0  0  0  0  0  0
   -0.0105   -6.3168    2.3081 C   0  0  0  0  0  0  0  0  0  0  0  0
    0.0485   -4.9783    1.8782 C   0  0  0  0  0  0  0  0  0  0  0  0
   -0.4744   -4.1559    2.2381 O   0  0  0  0  0  0  0  0  0  0  0  0
    0.9176   -4.7080    0.8087 O   0  0  0  0  0  0  0  0  0  0  0  0
    0.2222  -10.4891    3.7537 C   0  0  0  0  0  0  0  0  0  0  0  0
    1.2545  -10.9403    4.2083 C   0  0  0  0  0  0  0  0  0  0  0  0
    1.3438  -12.3043    3.9945 C   0  0  0  0  0  0  0  0  0  0  0  0
    0.2986  -12.9977    3.6160 C   0  0  0  0  0  0  0  0  0  0  0  0
   -0.7907  -12.4479    3.1530 C   0  0  0  0  0  0  0  0  0  0  0  0
   -0.8872  -11.0440    3.2348 C   0  0  0  0  0  0  0  0  0  0  0  0
    0.5663  -14.6257    3.5377 P   0  0  0  0  0  0  0  0  0  0  0  0
   -0.0794  -15.4305    4.2904 O   0  0  0  0  0  0  0  0  0  0  0  0
    0.3831  -15.0624    1.9594 O   0  0  0  0  0  0  0  0  0  0  0  0
    2.1818  -14.9870    3.5886 O   0  0  0  0  0  0  0  0  0  0  0  0
  6  7  1  0
  7  8  2  0
  7  9  1  0
  3 10  1  0
 13 16  1  0
 16 17  1  0
 16 18  2  0
 16 19  1  0
  1  2  2  0
  2  6  1  0
  5  6  2  0
  4  5  1  0
  3  4  2  0
  1  3  1  0
 10 11  2  0
 11 12  1  0
 12 13  2  0
 13 14  1  0
 14 15  2  0
 10 15  1  0
M  END

$$$$
No_4337-/export/home/yangzhenyu/potential_scad_32_flow//YTHDC2/2024-12-06-03-22-00/
     RDKit          3D

 20 21  0  0  1  0  0  0  0  0999 V2000
    1.1787   -8.0297    3.5154 O   0  0  0  0  0  0  0  0  0  0  0  0
    0.9969   -8.9689    3.0048 C   0  0  0  0  0  0  0  0  0  0  0  0
    1.3055  -10.1056    3.6616 C   0  0  0  0  0  0  0  0  0  0  0  0
    1.1249  -11.3503    3.0941 C   0  0  0  0  0  0  0  0  0  0  0  0
    0.6932  -11.4484    1.8586 C   0  0  0  0  0  0  0  0  0  0  0  0
    0.5498  -10.3736    1.0579 C   0  0  0  0  0  0  0  0  0  0  0  0
    0.7643   -9.1185    1.6383 C   0  0  0  0  0  0  0  0  0  0  0  0
    0.5937   -7.8467    1.0482 C   0  0  0  0  0  0  0  0  0  0  0  0
   -0.4358   -7.6746    0.4159 O   0  0  0  0  0  0  0  0  0  0  0  0
    1.6386   -7.1686    0.4707 O   0  0  0  0  0  0  0  0  0  0  0  0
    1.2030  -12.8153    4.0003 C   0  0  0  0  0  0  0  0  0  0  0  0
    1.1512  -13.9236    3.0424 C   0  0  0  0  0  0  0  0  0  0  0  0
    1.4257  -14.0484    1.8608 N   0  0  0  0  0  0  0  0  0  0  0  0
    1.4974  -15.2179    1.2521 C   0  0  0  0  0  0  0  0  0  0  0  0
    0.3568  -15.8209    1.4265 C   0  0  0  0  0  0  0  0  0  0  0  0
    0.0502  -16.0077    2.8774 C   0  0  1  0  0  0  0  0  0  0  0  0
    0.1600  -14.7672    3.5569 C   0  0  0  0  0  0  0  0  0  0  0  0
   -0.7987  -17.0141    3.2816 C   0  0  0  0  0  0  0  0  0  0  0  0
   -1.8340  -17.3399    2.9318 C   0  0  0  0  0  0  0  0  0  0  0  0
   -0.0466  -17.9463    4.3865 C   0  0  0  0  0  0  0  0  0  0  0  0
  1  2  1  0
  7  8  1  0
  8  9  2  0
  8 10  1  0
  4 11  1  0
 11 12  2  3
 12 13  1  0
 13 14  1  0
 14 15  1  0
 15 16  1  0
 12 17  1  0
 16 17  1  0
 16 18  1  6
 18 19  2  0
 18 20  1  0
  2  3  2  0
  3  4  1  0
  4  5  2  0
  5  6  1  0
  6  7  2  0
  2  7  1  0
M  END

$$$$
No_4338-/export/home/yangzhenyu/potential_scad_32_flow//YTHDC2/2024-12-06-03-22-00/
     RDKit          3D

 17 18  0  0  0  0  0  0  0  0999 V2000
    1.1787   -8.0297    3.5154 C   0  0  0  0  0  0  0  0  0  0  0  0
    1.1048   -9.2215    3.2892 C   0  0  0  0  0  0  0  0  0  0  0  0
    1.2339   -9.7611    2.0189 C   0  0  0  0  0  0  0  0  0  0  0  0
    1.3583   -9.0036    0.9764 C   0  0  0  0  0  0  0  0  0  0  0  0
    1.5996   -7.6362    1.1311 C   0  0  0  0  0  0  0  0  0  0  0  0
    1.4830   -7.0928    2.3626 C   0  0  0  0  0  0  0  0  0  0  0  0
    1.4898   -5.7274    2.6199 C   0  0  0  0  0  0  0  0  0  0  0  0
    1.1882  -11.3736    1.8424 C   0  0  0  0  0  0  0  0  0  0  0  0
    1.7911  -12.1283    2.5447 C   0  0  0  0  0  0  0  0  0  0  0  0
    1.6235  -13.4929    2.1108 C   0  0  0  0  0  0  0  0  0  0  0  0
    0.9130  -13.8662    1.0879 C   0  0  0  0  0  0  0  0  0  0  0  0
    0.2981  -12.8588    0.2798 C   0  0  0  0  0  0  0  0  0  0  0  0
    0.4407  -11.5560    0.6364 C   0  0  0  0  0  0  0  0  0  0  0  0
    1.2457   -4.8685    1.6168 C   0  0  0  0  0  0  0  0  0  0  0  0
    1.1590   -3.3978    1.8552 C   0  0  0  0  0  0  0  0  0  0  0  0
    2.3587  -14.6633    3.0724 Cl  0  0  0  0  0  0  0  0  0  0  0  0
    0.5758   -2.9215    2.5895 C   0  0  0  0  0  0  0  0  0  0  0  0
  6  7  1  0
  3  8  1  0
  7 14  2  3
 14 15  1  0
 10 16  1  0
 15 17  2  0
  1  2  2  0
  2  3  1  0
  3  4  2  0
  4  5  1  0
  5  6  2  0
  1  6  1  0
  8  9  2  0
  9 10  1  0
 10 11  2  0
 11 12  1  0
 12 13  2  0
  8 13  1  0
M  END

$$$$
No_4339-/export/home/yangzhenyu/potential_scad_32_flow//YTHDC2/2024-12-06-03-22-00/
     RDKit          3D

 20 20  0  0  1  0  0  0  0  0999 V2000
    1.1787   -8.0297    3.5154 C   0  0  0  0  0  0  0  0  0  0  0  0
    1.0491   -6.8434    2.9820 C   0  0  0  0  0  0  0  0  0  0  0  0
    1.0690   -9.1150    2.7206 C   0  0  0  0  0  0  0  0  0  0  0  0
    0.9689   -6.6391    1.6260 C   0  0  0  0  0  0  0  0  0  0  0  0
    0.9670   -9.0334    1.3824 C   0  0  0  0  0  0  0  0  0  0  0  0
    0.7641  -10.1483    0.4695 C   0  0  0  0  0  0  0  0  0  0  0  0
    0.8413   -7.7010    0.7982 C   0  0  0  0  0  0  0  0  0  0  0  0
   -0.3148  -10.7142    0.4500 F   0  0  0  0  0  0  0  0  0  0  0  0
    0.9017   -9.6506   -0.8923 Br  0  0  0  0  0  0  0  0  0  0  0  0
    1.6144  -11.2027    0.8470 F   0  0  0  0  0  0  0  0  0  0  0  0
    1.2068  -10.6400    3.4379 N   0  0  0  0  0  0  0  0  0  0  0  0
    0.2586  -11.2164    3.8981 C   0  0  0  0  0  0  0  0  0  0  0  0
   -0.8055  -10.3746    4.3390 O   0  0  0  0  0  0  0  0  0  0  0  0
    0.1437  -12.4740    3.9458 C   0  0  0  0  0  0  0  0  0  0  0  0
    0.9871   -5.3502    1.1079 O   0  0  0  0  0  0  0  0  0  0  0  0
   -0.1458   -4.5283    1.2257 C   0  0  0  0  0  0  0  0  0  0  0  0
    1.3765  -13.2025    4.1258 C   0  0  0  0  0  0  0  0  0  0  0  0
    1.4785  -14.3424    2.9982 C   0  0  1  0  0  0  0  0  0  0  0  0
    2.5435  -14.4939    2.1926 O   0  0  0  0  0  0  0  0  0  0  0  0
    0.7153  -15.5205    3.3070 Cl  0  0  0  0  0  0  0  0  0  0  0  0
  5  6  1  0
  6  8  1  0
  6  9  1  0
  6 10  1  0
  3 11  1  0
 11 12  1  0
 12 13  2  0
 12 14  1  0
  4 15  1  0
 15 16  1  0
 14 17  1  0
 17 18  1  0
 18 19  1  1
 18 20  1  0
  1  2  2  0
  2  4  1  0
  4  7  2  0
  5  7  1  0
  3  5  2  0
  1  3  1  0
M  END

$$$$
No_4340-/export/home/yangzhenyu/potential_scad_32_flow//YTHDC2/2024-12-06-03-22-00/
     RDKit          3D

 20 21  0  0  0  0  0  0  0  0999 V2000
    1.1787   -8.0297    3.5154 C   0  0  0  0  0  0  0  0  0  0  0  0
    1.1048   -9.2215    3.2892 C   0  0  0  0  0  0  0  0  0  0  0  0
    1.2339   -9.7611    2.0189 C   0  0  0  0  0  0  0  0  0  0  0  0
    1.3583   -9.0036    0.9764 C   0  0  0  0  0  0  0  0  0  0  0  0
    1.7077   -9.6100   -0.3010 C   0  0  0  0  0  0  0  0  0  0  0  0
    1.3637   -7.1087    2.3226 C   0  0  0  0  0  0  0  0  0  0  0  0
    1.4257   -7.6645    1.0231 C   0  0  0  0  0  0  0  0  0  0  0  0
    1.9364   -8.8976   -1.3212 O   0  0  0  0  0  0  0  0  0  0  0  0
    1.0218  -10.6394   -0.4427 O   0  0  0  0  0  0  0  0  0  0  0  0
    1.3505   -5.4423    2.5199 O   0  0  0  0  0  0  0  0  0  0  0  0
    1.0568  -10.2979    4.5909 Cl  0  0  0  0  0  0  0  0  0  0  0  0
    0.7011   -4.7539    1.6893 C   0  0  0  0  0  0  0  0  0  0  0  0
    1.3585  -11.1676    1.9556 O   0  0  0  0  0  0  0  0  0  0  0  0
    0.0694   -3.7244    2.3396 C   0  0  0  0  0  0  0  0  0  0  0  0
    0.1953   -2.6212    1.7399 C   0  0  0  0  0  0  0  0  0  0  0  0
    1.0191   -1.6181    2.1859 C   0  0  0  0  0  0  0  0  0  0  0  0
    1.5735   -1.7682    3.4249 C   0  0  0  0  0  0  0  0  0  0  0  0
    1.1948   -2.7608    4.2515 C   0  0  0  0  0  0  0  0  0  0  0  0
    0.5984   -3.8640    3.7090 C   0  0  0  0  0  0  0  0  0  0  0  0
    0.3657   -5.0914    0.5812 O   0  0  0  0  0  0  0  0  0  0  0  0
  4  5  1  0
  5  8  1  0
  5  9  2  0
  6 10  1  0
  2 11  1  0
 10 12  1  0
  3 13  1  0
 12 14  1  0
 14 15  1  0
 15 16  1  0
 16 17  1  0
 17 18  1  0
 14 19  1  0
 18 19  1  0
 12 20  2  0
  1  2  2  0
  2  3  1  0
  3  4  2  0
  4  7  1  0
  6  7  2  0
  1  6  1  0
M  END

$$$$
No_4341-/export/home/yangzhenyu/potential_scad_32_flow//YTHDC2/2024-12-06-03-22-00/
     RDKit          3D

 19 20  0  0  1  0  0  0  0  0999 V2000
    1.1787   -8.0297    3.5154 C   0  0  0  0  0  0  0  0  0  0  0  0
    1.0491   -6.8434    2.9820 C   0  0  0  0  0  0  0  0  0  0  0  0
    1.9985   -8.9840    2.8958 C   0  0  0  0  0  0  0  0  0  0  0  0
    1.9135  -10.3404    3.6266 C   0  0  2  0  0  0  0  0  0  0  0  0
    2.2847  -10.5440    4.7936 C   0  0  0  0  0  0  0  0  0  0  0  0
    0.3304   -6.7696    1.8077 C   0  0  0  0  0  0  0  0  0  0  0  0
    0.3816   -7.5583    0.9388 C   0  0  0  0  0  0  0  0  0  0  0  0
   -0.2935   -5.5160    1.7047 C   0  0  0  0  0  0  0  0  0  0  0  0
    1.6580  -11.4166    2.7586 C   0  0  0  0  0  0  0  0  0  0  0  0
    1.7599  -11.2505    1.4149 C   0  0  0  0  0  0  0  0  0  0  0  0
    1.3891  -12.5370    3.2822 C   0  0  0  0  0  0  0  0  0  0  0  0
    0.8486  -13.5215    2.5453 C   0  0  0  0  0  0  0  0  0  0  0  0
    0.8473  -13.4321    1.1647 C   0  0  0  0  0  0  0  0  0  0  0  0
    1.3463  -12.1622    0.6151 C   0  0  0  0  0  0  0  0  0  0  0  0
   -1.3949   -5.2975    1.0606 C   0  0  0  0  0  0  0  0  0  0  0  0
   -0.6770   -7.5588   -0.1065 C   0  0  0  0  0  0  0  0  0  0  0  0
   -1.5323   -6.3674   -0.0453 C   0  0  0  0  0  0  0  0  0  0  0  0
    0.4909  -14.9024    2.8912 C   0  0  0  0  0  0  0  0  0  0  0  0
   -0.7260  -15.3807    2.8766 C   0  0  0  0  0  0  0  0  0  0  0  0
  1  2  1  0
  1  3  1  0
  3  4  1  0
  4  5  1  6
  2  6  1  0
  4  9  1  0
 12 18  1  0
 18 19  1  0
  9 10  2  0
 10 14  1  0
 13 14  2  0
 12 13  1  0
 11 12  2  0
  9 11  1  0
  6  7  2  0
  7 16  1  0
 16 17  2  0
 15 17  1  0
  8 15  2  0
  6  8  1  0
M  END

$$$$
No_4342-/export/home/yangzhenyu/potential_scad_32_flow//YTHDC2/2024-12-06-03-22-00/
     RDKit          3D

 19 20  0  0  1  0  0  0  0  0999 V2000
    1.1787   -8.0297    3.5154 C   0  0  0  0  0  0  0  0  0  0  0  0
    1.1048   -9.2215    3.2892 C   0  0  0  0  0  0  0  0  0  0  0  0
    1.2339   -9.7611    2.0189 C   0  0  0  0  0  0  0  0  0  0  0  0
    1.1954  -11.2312    1.8661 C   0  0  0  0  0  0  0  0  0  0  0  0
    1.2996  -11.5815    0.5387 C   0  0  0  0  0  0  0  0  0  0  0  0
    0.9270   -7.0442    2.4967 C   0  0  2  0  0  0  0  0  0  0  0  0
    0.9803   -7.6034    1.0978 C   0  0  0  0  0  0  0  0  0  0  0  0
    1.1096   -8.9244    0.8670 C   0  0  0  0  0  0  0  0  0  0  0  0
    1.2635  -10.7284   -0.4571 C   0  0  0  0  0  0  0  0  0  0  0  0
    1.1104   -9.4104   -0.3278 C   0  0  0  0  0  0  0  0  0  0  0  0
    1.0056   -5.6057    2.6708 C   0  0  0  0  0  0  0  0  0  0  0  0
    1.5522  -12.0357    2.8716 C   0  0  0  0  0  0  0  0  0  0  0  0
    0.6698  -12.9918    3.2944 C   0  0  0  0  0  0  0  0  0  0  0  0
    1.2263  -14.4040    3.1930 C   0  0  0  0  0  0  0  0  0  0  0  0
    2.4092  -14.6504    2.4754 C   0  0  0  0  0  0  0  0  0  0  0  0
    0.5272  -15.4408    3.8067 C   0  0  0  0  0  0  0  0  0  0  0  0
    1.0202   -6.7606    0.2038 O   0  0  0  0  0  0  0  0  0  0  0  0
    2.7212  -16.0629    2.3536 C   0  0  0  0  0  0  0  0  0  0  0  0
    2.1076  -17.0811    2.8627 C   0  0  0  0  0  0  0  0  0  0  0  0
  1  2  1  0
  6  7  1  0
  7  8  1  0
  6 11  1  6
  4 12  1  0
 12 13  1  0
 13 14  1  0
 14 15  1  0
 14 16  1  0
  7 17  2  0
 15 18  2  3
 18 19  1  0
  1  6  1  0
  2  3  1  0
  3  4  2  0
  4  5  1  0
  5  9  2  0
  9 10  1  0
  8 10  2  0
  3  8  1  0
M  END

$$$$
No_4343-/export/home/yangzhenyu/potential_scad_32_flow//YTHDC2/2024-12-06-03-22-00/
     RDKit          3D

 19 19  0  0  1  0  0  0  0  0999 V2000
    1.1787   -8.0297    3.5154 N   0  0  0  0  0  0  0  0  0  0  0  0
    0.8669   -7.0905    2.8589 C   0  0  0  0  0  0  0  0  0  0  0  0
    1.0447   -7.3244    1.4123 F   0  0  0  0  0  0  0  0  0  0  0  0
    1.5593   -5.7722    3.1907 C   0  0  0  0  0  0  0  0  0  0  0  0
    0.7542   -9.3034    3.2052 C   0  0  0  0  0  0  0  0  0  0  0  0
   -0.3668   -9.5812    2.9334 C   0  0  0  0  0  0  0  0  0  0  0  0
   -0.7677  -10.9789    2.6486 C   0  0  0  0  0  0  0  0  0  0  0  0
    0.2287  -11.9049    2.9148 C   0  0  0  0  0  0  0  0  0  0  0  0
    1.4873  -11.5730    3.2698 C   0  0  0  0  0  0  0  0  0  0  0  0
    1.8247  -10.2164    3.4931 C   0  0  0  0  0  0  0  0  0  0  0  0
   -0.0894  -13.2302    2.7434 C   0  0  0  0  0  0  0  0  0  0  0  0
    0.7550  -14.3251    3.1437 C   0  0  0  0  0  0  0  0  0  0  0  0
    0.7128  -15.6430    2.8163 C   0  0  0  0  0  0  0  0  0  0  0  0
    1.8835  -16.3526    2.5098 C   0  0  1  0  0  0  0  0  0  0  0  0
    3.1163  -15.5815    2.1614 C   0  0  0  0  0  0  0  0  0  0  0  0
    2.3599  -17.5436    3.2323 C   0  0  0  0  0  0  0  0  0  0  0  0
    1.7002  -17.9461    4.1435 O   0  0  0  0  0  0  0  0  0  0  0  0
    3.3248  -18.2733    2.7659 O   0  0  0  0  0  0  0  0  0  0  0  0
   -0.5511   -6.7027    2.8501 C   0  0  0  0  0  0  0  0  0  0  0  0
  1  2  1  0
  2  3  1  0
  2  4  1  0
  1  5  1  0
  8 11  1  0
 11 12  2  3
 12 13  1  0
 13 14  1  0
 14 15  1  1
 14 16  1  0
 16 17  1  0
 16 18  2  0
  2 19  1  0
  5  6  2  0
  6  7  1  0
  7  8  2  0
  8  9  1  0
  9 10  2  0
  5 10  1  0
M  END

$$$$
No_4344-/export/home/yangzhenyu/potential_scad_32_flow//YTHDC2/2024-12-06-03-22-00/
     RDKit          3D

 21 22  0  0  1  0  0  0  0  0999 V2000
    1.1787   -8.0297    3.5154 C   0  0  0  0  0  0  0  0  0  0  0  0
    1.1048   -9.2215    3.2892 C   0  0  0  0  0  0  0  0  0  0  0  0
    1.2339   -9.7611    2.0189 C   0  0  0  0  0  0  0  0  0  0  0  0
    1.4306   -8.9466    1.1170 C   0  0  0  0  0  0  0  0  0  0  0  0
    1.6532   -7.5949    1.1786 C   0  0  0  0  0  0  0  0  0  0  0  0
    1.4973   -7.0739    2.4258 C   0  0  0  0  0  0  0  0  0  0  0  0
    1.5178   -5.6803    2.7303 C   0  0  0  0  0  0  0  0  0  0  0  0
    1.2507  -11.3384    1.8133 C   0  0  0  0  0  0  0  0  0  0  0  0
    1.2473  -11.6326    0.5245 N   0  0  0  0  0  0  0  0  0  0  0  0
    0.8873  -12.1334    2.7548 N   0  0  0  0  0  0  0  0  0  0  0  0
    0.9694  -13.3654    2.5597 C   0  0  0  0  0  0  0  0  0  0  0  0
    1.1634  -13.7991    1.3347 N   0  0  0  0  0  0  0  0  0  0  0  0
    1.3584  -12.9967    0.3710 C   0  0  0  0  0  0  0  0  0  0  0  0
    0.8900  -14.2336    3.6305 N   0  0  0  0  0  0  0  0  0  0  0  0
    1.6649   -5.1622    3.9782 O   0  0  0  0  0  0  0  0  0  0  0  0
    1.3403   -4.8084    1.7343 O   0  0  0  0  0  0  0  0  0  0  0  0
    1.1643  -15.6456    3.3479 C   0  0  1  0  0  0  0  0  0  0  0  0
    2.2951  -16.1507    2.8172 C   0  0  0  0  0  0  0  0  0  0  0  0
    2.5612  -17.4069    2.5320 N   0  0  0  0  0  0  0  0  0  0  0  0
    0.5579  -16.7248    4.0579 C   0  0  0  0  0  0  0  0  0  0  0  0
    1.8714  -18.1225    2.7114 H   0  0  0  0  0  0  0  0  0  0  0  0
  6  7  1  0
  3  8  1  0
 11 14  1  0
  7 15  1  0
  7 16  2  0
 14 17  1  0
 17 18  1  0
 18 19  2  0
 17 20  1  1
  1  2  2  0
  2  3  1  0
  3  4  2  0
  4  5  1  0
  5  6  2  0
  1  6  1  0
  8  9  2  0
  9 13  1  0
 12 13  2  0
 11 12  1  0
 10 11  2  0
  8 10  1  0
 19 21  1  0
M  END

$$$$
No_4345-/export/home/yangzhenyu/potential_scad_32_flow//YTHDC2/2024-12-06-03-22-00/
     RDKit          3D

 19 20  0  0  1  0  0  0  0  0999 V2000
    1.1787   -8.0297    3.5154 O   0  0  0  0  0  0  0  0  0  0  0  0
    0.9969   -8.9689    3.0048 C   0  0  1  0  0  0  0  0  0  0  0  0
    0.9976   -8.9567    1.6341 C   0  0  2  0  0  0  0  0  0  0  0  0
    1.6062   -9.9071    0.9292 C   0  0  1  0  0  0  0  0  0  0  0  0
    2.1191  -10.9757    1.6503 C   0  0  0  0  0  0  0  0  0  0  0  0
    2.1177  -10.9891    3.0403 C   0  0  0  0  0  0  0  0  0  0  0  0
    1.5441   -9.8905    3.6897 C   0  0  0  0  0  0  0  0  0  0  0  0
    0.4333   -7.7031    1.0153 N   0  0  0  0  0  0  0  0  0  0  0  0
    0.6871   -6.5640    1.3305 C   0  0  0  0  0  0  0  0  0  0  0  0
    1.9581   -6.2293    1.7766 C   0  0  0  0  0  0  0  0  0  0  0  0
   -0.3205   -5.6168    1.1791 C   0  0  2  0  0  0  0  0  0  0  0  0
   -1.4465   -5.9165    0.5944 C   0  0  0  0  0  0  0  0  0  0  0  0
   -2.1858   -4.9087    0.2492 C   0  0  0  0  0  0  0  0  0  0  0  0
   -1.8254   -3.5616    0.5174 C   0  0  0  0  0  0  0  0  0  0  0  0
   -0.7477   -3.2281    1.2224 C   0  0  0  0  0  0  0  0  0  0  0  0
    0.1246   -4.2313    1.5024 C   0  0  0  0  0  0  0  0  0  0  0  0
    1.6008  -10.1436    4.9984 O   0  0  0  0  0  0  0  0  0  0  0  0
    1.2567   -3.9739    2.3266 O   0  0  0  0  0  0  0  0  0  0  0  0
    1.5182   -9.9138   -0.5645 O   0  0  0  0  0  0  0  0  0  0  0  0
  2  1  1  1
  2  3  1  0
  4  5  1  0
  2  7  1  0
  6  7  1  0
  3  8  1  1
  8  9  1  0
  9 10  1  0
 11  9  1  6
 11 12  1  0
 13 14  1  0
 11 16  1  0
 15 16  1  0
  7 17  2  0
 16 18  2  0
  4 19  1  6
 12 13  1  0
 14 15  1  0
  3  4  1  0
  5  6  1  0
M  END

$$$$
No_4346-/export/home/yangzhenyu/potential_scad_32_flow//YTHDC2/2024-12-06-03-22-00/
     RDKit          3D

 18 18  0  0  0  0  0  0  0  0999 V2000
    1.1787   -8.0297    3.5154 C   0  0  0  0  0  0  0  0  0  0  0  0
    1.1048   -9.2215    3.2892 C   0  0  0  0  0  0  0  0  0  0  0  0
    1.3627  -10.1721    4.3044 C   0  0  0  0  0  0  0  0  0  0  0  0
    1.0682  -11.5187    4.0618 C   0  0  0  0  0  0  0  0  0  0  0  0
    0.6332  -11.9655    2.9682 C   0  0  0  0  0  0  0  0  0  0  0  0
    0.4776  -11.1308    1.9203 C   0  0  0  0  0  0  0  0  0  0  0  0
    0.7470   -9.8274    2.0368 C   0  0  0  0  0  0  0  0  0  0  0  0
    1.8805   -7.1616    3.5538 C   0  0  0  0  0  0  0  0  0  0  0  0
    0.3661  -13.4265    2.7867 C   0  0  0  0  0  0  0  0  0  0  0  0
    1.3569  -14.3327    3.1423 N   0  0  0  0  0  0  0  0  0  0  0  0
    1.1861  -15.6556    3.0395 C   0  0  0  0  0  0  0  0  0  0  0  0
    0.1755  -16.2482    3.4792 O   0  0  0  0  0  0  0  0  0  0  0  0
    2.2367  -16.4083    2.2830 C   0  0  0  0  0  0  0  0  0  0  0  0
    0.7412   -9.0621    0.9460 C   0  0  0  0  0  0  0  0  0  0  0  0
   -0.3615   -8.5267    0.4453 C   0  0  0  0  0  0  0  0  0  0  0  0
   -0.6105   -8.1569   -0.7529 C   0  0  0  0  0  0  0  0  0  0  0  0
   -1.6425   -7.4383   -1.1594 C   0  0  0  0  0  0  0  0  0  0  0  0
   -2.6577   -7.1307   -0.2809 C   0  0  0  0  0  0  0  0  0  0  0  0
  1  2  1  0
  1  8  2  0
  5  9  1  0
  9 10  1  0
 10 11  1  0
 11 12  2  0
 11 13  1  0
  7 14  1  0
 14 15  1  0
 15 16  1  0
 16 17  2  3
 17 18  1  0
  2  3  2  0
  3  4  1  0
  4  5  2  0
  5  6  1  0
  6  7  2  0
  2  7  1  0
M  END

$$$$
No_4347-/export/home/yangzhenyu/potential_scad_32_flow//YTHDC2/2024-12-06-03-22-00/
     RDKit          3D

 17 18  0  0  1  0  0  0  0  0999 V2000
    1.1787   -8.0297    3.5154 C   0  0  0  0  0  0  0  0  0  0  0  0
    1.1048   -9.2215    3.2892 C   0  0  0  0  0  0  0  0  0  0  0  0
    1.2339   -9.7611    2.0189 C   0  0  0  0  0  0  0  0  0  0  0  0
    1.3583   -9.0036    0.9764 C   0  0  0  0  0  0  0  0  0  0  0  0
    1.5996   -7.6362    1.1311 C   0  0  0  0  0  0  0  0  0  0  0  0
    1.4830   -7.0928    2.3626 C   0  0  0  0  0  0  0  0  0  0  0  0
    1.1008  -11.2372    1.8542 C   0  0  2  0  0  0  0  0  0  0  0  0
    0.4812  -11.6084    0.6459 C   0  0  0  0  0  0  0  0  0  0  0  0
   -0.6166  -12.2864    0.7859 N   0  0  0  0  0  0  0  0  0  0  0  0
   -0.5732  -13.1733    1.8133 C   0  0  1  0  0  0  0  0  0  0  0  0
    0.2867  -12.9670    3.0202 C   0  0  0  0  0  0  0  0  0  0  0  0
    1.2173  -12.0124    2.8704 C   0  0  0  0  0  0  0  0  0  0  0  0
   -1.3967  -14.2649    1.8803 C   0  0  0  0  0  0  0  0  0  0  0  0
   -1.0312  -15.4204    2.6032 C   0  0  0  0  0  0  0  0  0  0  0  0
   -1.8602  -16.4426    2.8470 C   0  0  0  0  0  0  0  0  0  0  0  0
   -3.1509  -16.3541    2.4352 C   0  0  0  0  0  0  0  0  0  0  0  0
   -3.5503  -15.3317    1.6281 C   0  0  0  0  0  0  0  0  0  0  0  0
  7  3  1  1
  7  8  1  0
  8  9  1  0
  9 10  1  0
 10 11  1  1
  7 12  1  0
 11 12  1  0
 10 13  1  0
 13 14  2  3
 14 15  1  0
 15 16  2  3
 16 17  1  0
  1  2  2  0
  2  3  1  0
  3  4  2  0
  4  5  1  0
  5  6  2  0
  1  6  1  0
M  END

$$$$
No_4348-/export/home/yangzhenyu/potential_scad_32_flow//YTHDC2/2024-12-06-03-22-00/
     RDKit          3D

 17 18  0  0  1  0  0  0  0  0999 V2000
    1.1787   -8.0297    3.5154 C   0  0  0  0  0  0  0  0  0  0  0  0
    1.0491   -6.8434    2.9820 C   0  0  0  0  0  0  0  0  0  0  0  0
    0.9905   -9.0774    2.6527 C   0  0  0  0  0  0  0  0  0  0  0  0
    1.1655  -10.4663    3.1286 C   0  0  2  0  0  0  0  0  0  0  0  0
    1.7409  -10.6480    4.4599 C   0  0  0  0  0  0  0  0  0  0  0  0
    1.0486   -6.3431    1.8833 C   0  0  0  0  0  0  0  0  0  0  0  0
    0.8094   -7.4673    0.8674 C   0  0  0  0  0  0  0  0  0  0  0  0
    0.8523   -8.7792    1.1982 C   0  0  0  0  0  0  0  0  0  0  0  0
    1.8423  -11.3059    2.0428 C   0  0  0  0  0  0  0  0  0  0  0  0
    1.4397  -12.6603    2.0673 C   0  0  0  0  0  0  0  0  0  0  0  0
    0.1301  -13.0432    2.1834 C   0  0  0  0  0  0  0  0  0  0  0  0
   -0.0902  -14.4562    2.6341 C   0  0  0  0  0  0  0  0  0  0  0  0
    0.9916  -15.3457    2.6292 C   0  0  0  0  0  0  0  0  0  0  0  0
    2.3521  -14.8880    2.4854 C   0  0  0  0  0  0  0  0  0  0  0  0
    2.6020  -13.5719    2.2518 C   0  0  0  0  0  0  0  0  0  0  0  0
    0.8737   -4.8934    1.2442 C   0  0  0  0  0  0  0  0  0  0  0  0
    1.7754   -4.1598    1.8940 C   0  0  0  0  0  0  0  0  0  0  0  0
  3  4  1  0
  4  5  1  1
  4  9  1  0
  9 10  1  0
  6 16  1  0
 16 17  1  0
 10 11  2  0
 11 12  1  0
 12 13  2  0
 13 14  1  0
 14 15  2  0
 10 15  1  0
  1  2  2  0
  2  6  1  0
  6  7  2  0
  7  8  1  0
  3  8  2  0
  1  3  1  0
M  END

$$$$
No_4349-/export/home/yangzhenyu/potential_scad_32_flow//YTHDC2/2024-12-06-03-22-00/
     RDKit          3D

 18 20  0  0  0  0  0  0  0  0999 V2000
    1.1787   -8.0297    3.5154 C   0  0  0  0  0  0  0  0  0  0  0  0
    1.1048   -9.2215    3.2892 C   0  0  0  0  0  0  0  0  0  0  0  0
    1.2339   -9.7611    2.0189 C   0  0  0  0  0  0  0  0  0  0  0  0
    1.3583   -9.0036    0.9764 C   0  0  0  0  0  0  0  0  0  0  0  0
    1.5996   -7.6362    1.1311 C   0  0  0  0  0  0  0  0  0  0  0  0
    1.4830   -7.0928    2.3626 C   0  0  0  0  0  0  0  0  0  0  0  0
    1.1008  -11.2372    1.8542 C   0  0  0  0  0  0  0  0  0  0  0  0
    1.9749  -12.0938    2.2342 C   0  0  0  0  0  0  0  0  0  0  0  0
    1.5180  -13.3509    2.5910 C   0  0  0  0  0  0  0  0  0  0  0  0
    0.4120  -13.9272    2.2191 C   0  0  0  0  0  0  0  0  0  0  0  0
   -0.5860  -13.0563    1.8308 C   0  0  0  0  0  0  0  0  0  0  0  0
   -0.2264  -11.7453    1.4928 C   0  0  0  0  0  0  0  0  0  0  0  0
    1.5759   -5.6593    2.6277 Cl  0  0  0  0  0  0  0  0  0  0  0  0
    0.0981  -15.2159    2.5396 C   0  0  0  0  0  0  0  0  0  0  0  0
    1.0246  -16.0196    3.2052 C   0  0  0  0  0  0  0  0  0  0  0  0
    0.8683  -17.3654    3.5364 N   0  0  0  0  0  0  0  0  0  0  0  0
   -0.3761  -17.6340    3.2954 C   0  0  0  0  0  0  0  0  0  0  0  0
   -1.0148  -16.4211    2.7031 C   0  0  0  0  0  0  0  0  0  0  0  0
  3  7  1  0
  6 13  1  0
 10 14  1  0
 14 15  2  0
 15 16  1  0
 16 17  2  0
 14 18  1  0
 17 18  1  0
  1  2  2  0
  2  3  1  0
  3  4  2  0
  4  5  1  0
  5  6  2  0
  1  6  1  0
  7  8  2  0
  8  9  1  0
  9 10  2  0
 10 11  1  0
 11 12  2  0
  7 12  1  0
M  END

$$$$
No_4350-/export/home/yangzhenyu/potential_scad_32_flow//YTHDC2/2024-12-06-03-22-00/
     RDKit          3D

 19 20  0  0  0  0  0  0  0  0999 V2000
    1.1787   -8.0297    3.5154 C   0  0  0  0  0  0  0  0  0  0  0  0
    1.0491   -6.8434    2.9820 C   0  0  0  0  0  0  0  0  0  0  0  0
    1.9985   -8.9840    2.8958 C   0  0  0  0  0  0  0  0  0  0  0  0
    1.9135  -10.3404    3.6266 C   0  0  0  0  0  0  0  0  0  0  0  0
    1.3291  -11.3908    3.0222 C   0  0  0  0  0  0  0  0  0  0  0  0
    1.0344  -11.3281    1.7959 C   0  0  0  0  0  0  0  0  0  0  0  0
    0.5050   -6.6553    1.7492 C   0  0  0  0  0  0  0  0  0  0  0  0
    0.4773  -12.4299    1.1902 C   0  0  0  0  0  0  0  0  0  0  0  0
    0.3762  -13.6506    1.8382 C   0  0  0  0  0  0  0  0  0  0  0  0
    0.8121  -13.6797    3.1961 C   0  0  0  0  0  0  0  0  0  0  0  0
    1.2576  -12.4919    3.8438 C   0  0  0  0  0  0  0  0  0  0  0  0
    0.4006   -5.3094    1.3154 O   0  0  0  0  0  0  0  0  0  0  0  0
    0.2839   -7.5306    0.9428 O   0  0  0  0  0  0  0  0  0  0  0  0
   -0.0060  -15.0397    1.2697 C   0  0  0  0  0  0  0  0  0  0  0  0
    0.8038  -15.9394    1.2073 C   0  0  0  0  0  0  0  0  0  0  0  0
    0.3248  -17.1573    0.9124 C   0  0  0  0  0  0  0  0  0  0  0  0
   -0.9574  -17.4182    0.8272 C   0  0  0  0  0  0  0  0  0  0  0  0
   -1.8621  -16.4628    0.9865 C   0  0  0  0  0  0  0  0  0  0  0  0
   -1.3890  -15.1583    1.3036 C   0  0  0  0  0  0  0  0  0  0  0  0
  1  2  1  0
  1  3  1  0
  3  4  1  0
  4  5  1  0
  2  7  1  0
  7 12  2  0
  7 13  1  0
  9 14  1  0
  5  6  2  0
  6  8  1  0
  8  9  2  0
  9 10  1  0
 10 11  2  0
  5 11  1  0
 14 15  2  0
 15 16  1  0
 16 17  2  0
 17 18  1  0
 18 19  2  0
 14 19  1  0
M  END

$$$$
No_4351-/export/home/yangzhenyu/potential_scad_32_flow//YTHDC2/2024-12-06-03-22-00/
     RDKit          3D

 18 19  0  0  0  0  0  0  0  0999 V2000
    1.1787   -8.0297    3.5154 C   0  0  0  0  0  0  0  0  0  0  0  0
    1.0491   -6.8434    2.9820 C   0  0  0  0  0  0  0  0  0  0  0  0
    0.0950   -8.8404    3.2292 C   0  0  0  0  0  0  0  0  0  0  0  0
   -0.9173   -8.4596    2.5152 C   0  0  0  0  0  0  0  0  0  0  0  0
   -1.0331   -7.2162    2.0653 C   0  0  0  0  0  0  0  0  0  0  0  0
   -0.0105   -6.3168    2.3081 C   0  0  0  0  0  0  0  0  0  0  0  0
    0.1150   -4.9910    1.8495 C   0  0  0  0  0  0  0  0  0  0  0  0
   -0.1376   -4.7952    0.5550 C   0  0  0  0  0  0  0  0  0  0  0  0
   -0.2146   -3.3857    0.2341 C   0  0  0  0  0  0  0  0  0  0  0  0
    0.5012   -2.6512    1.3246 C   0  0  0  0  0  0  0  0  0  0  0  0
    0.8882   -2.9429    2.5431 C   0  0  0  0  0  0  0  0  0  0  0  0
    0.7123   -4.2525    2.8231 C   0  0  0  0  0  0  0  0  0  0  0  0
    0.0819  -10.1987    3.7643 Cl  0  0  0  0  0  0  0  0  0  0  0  0
    0.6822   -1.1113    0.9281 Cl  0  0  0  0  0  0  0  0  0  0  0  0
    1.3887   -2.0743    3.5268 Cl  0  0  0  0  0  0  0  0  0  0  0  0
   -2.0756   -9.2748    2.3692 O   0  0  0  0  0  0  0  0  0  0  0  0
   -3.1479   -9.1218    3.1037 C   0  0  0  0  0  0  0  0  0  0  0  0
   -3.4997   -8.1895    3.4695 C   0  0  0  0  0  0  0  0  0  0  0  0
  6  7  1  0
  3 13  1  0
 10 14  1  0
 11 15  1  0
  4 16  1  0
 16 17  1  0
 17 18  2  0
  1  2  2  0
  2  6  1  0
  5  6  2  0
  4  5  1  0
  3  4  2  0
  1  3  1  0
  7  8  2  0
  8  9  1  0
  9 10  2  0
 10 11  1  0
 11 12  2  0
  7 12  1  0
M  END

$$$$
No_4352-/export/home/yangzhenyu/potential_scad_32_flow//YTHDC2/2024-12-06-03-22-00/
     RDKit          3D

 20 20  0  0  1  0  0  0  0  0999 V2000
    1.1787   -8.0297    3.5154 C   0  0  0  0  0  0  0  0  0  0  0  0
    1.1048   -9.2215    3.2892 C   0  0  0  0  0  0  0  0  0  0  0  0
    1.2339   -9.7611    2.0189 C   0  0  0  0  0  0  0  0  0  0  0  0
    1.3583   -9.0036    0.9764 C   0  0  0  0  0  0  0  0  0  0  0  0
    1.5996   -7.6362    1.1311 C   0  0  0  0  0  0  0  0  0  0  0  0
    1.4830   -7.0928    2.3626 C   0  0  0  0  0  0  0  0  0  0  0  0
    1.1008  -11.2372    1.8542 C   0  0  1  0  0  0  0  0  0  0  0  0
    0.4812  -11.6084    0.6459 O   0  0  0  0  0  0  0  0  0  0  0  0
    1.6571  -12.0577    2.5947 C   0  0  0  0  0  0  0  0  0  0  0  0
    1.6239  -13.4638    2.1135 C   0  0  0  0  0  0  0  0  0  0  0  0
    1.1010  -14.3450    3.0307 C   0  0  0  0  0  0  0  0  0  0  0  0
    1.2924  -15.8107    2.7246 O   0  0  0  0  0  0  0  0  0  0  0  0
    1.5619   -5.6389    2.6434 O   0  0  0  0  0  0  0  0  0  0  0  0
    0.5368  -16.6286    3.2135 C   0  0  0  0  0  0  0  0  0  0  0  0
    1.6048   -9.4061   -0.3271 Cl  0  0  0  0  0  0  0  0  0  0  0  0
    1.3177   -5.1450    3.7374 C   0  0  0  0  0  0  0  0  0  0  0  0
    1.2056  -17.5966    3.9363 C   0  0  0  0  0  0  0  0  0  0  0  0
    0.6818  -18.2659    4.9482 O   0  0  0  0  0  0  0  0  0  0  0  0
    2.4084  -18.0132    3.4688 O   0  0  0  0  0  0  0  0  0  0  0  0
    0.8609   -3.7492    3.4585 C   0  0  0  0  0  0  0  0  0  0  0  0
  3  7  1  0
  7  8  1  6
  7  9  1  0
  9 10  1  0
 10 11  1  0
 11 12  1  0
  6 13  1  0
 12 14  1  0
  4 15  1  0
 13 16  1  0
 14 17  1  0
 17 18  2  0
 17 19  1  0
 16 20  1  0
  1  2  2  0
  2  3  1  0
  3  4  2  0
  4  5  1  0
  5  6  2  0
  1  6  1  0
M  END

$$$$
No_4353-/export/home/yangzhenyu/potential_scad_32_flow//YTHDC2/2024-12-06-03-22-00/
     RDKit          3D

 16 16  0  0  1  0  0  0  0  0999 V2000
    1.1787   -8.0297    3.5154 C   0  0  0  0  0  0  0  0  0  0  0  0
    1.0491   -6.8434    2.9820 C   0  0  0  0  0  0  0  0  0  0  0  0
    0.9905   -9.0774    2.6527 C   0  0  0  0  0  0  0  0  0  0  0  0
    0.7897   -8.9519    1.3691 C   0  0  0  0  0  0  0  0  0  0  0  0
    0.7018   -7.7198    0.7892 C   0  0  0  0  0  0  0  0  0  0  0  0
    0.8918   -6.5957    1.6117 C   0  0  0  0  0  0  0  0  0  0  0  0
    1.0600  -10.5680    3.3321 C   0  0  1  0  0  0  0  0  0  0  0  0
   -0.1041  -11.1772    3.5150 C   0  0  0  0  0  0  0  0  0  0  0  0
   -1.2204  -10.4119    3.8534 O   0  0  0  0  0  0  0  0  0  0  0  0
   -0.2965  -12.4135    3.4363 O   0  0  0  0  0  0  0  0  0  0  0  0
    0.9116   -5.2735    1.1240 C   0  0  0  0  0  0  0  0  0  0  0  0
    2.2177  -11.1261    3.5723 C   0  0  0  0  0  0  0  0  0  0  0  0
    2.6585  -10.7245    5.0168 O   0  0  0  0  0  0  0  0  0  0  0  0
    0.2401   -4.2173    1.8906 C   0  0  0  0  0  0  0  0  0  0  0  0
    0.1965   -3.1088    1.3704 C   0  0  0  0  0  0  0  0  0  0  0  0
    0.9789   -1.9748    1.7654 C   0  0  0  0  0  0  0  0  0  0  0  0
  3  7  1  0
  7  8  1  0
  8  9  1  0
  8 10  2  0
  6 11  1  0
  7 12  1  6
 12 13  1  0
 11 14  1  0
 14 15  1  0
 15 16  1  0
  1  2  2  0
  2  6  1  0
  5  6  2  0
  4  5  1  0
  3  4  2  0
  1  3  1  0
M  END

$$$$
No_4354-/export/home/yangzhenyu/potential_scad_32_flow//YTHDC2/2024-12-06-03-22-00/
     RDKit          3D

 18 19  0  0  0  0  0  0  0  0999 V2000
    1.1787   -8.0297    3.5154 C   0  0  0  0  0  0  0  0  0  0  0  0
    1.1048   -9.2215    3.2892 C   0  0  0  0  0  0  0  0  0  0  0  0
    1.2339   -9.7611    2.0189 C   0  0  0  0  0  0  0  0  0  0  0  0
    1.3583   -9.0036    0.9764 C   0  0  0  0  0  0  0  0  0  0  0  0
    1.5996   -7.6362    1.1311 C   0  0  0  0  0  0  0  0  0  0  0  0
    1.4830   -7.0928    2.3626 C   0  0  0  0  0  0  0  0  0  0  0  0
    1.1008  -11.2372    1.8542 C   0  0  0  0  0  0  0  0  0  0  0  0
    0.5178  -11.9759    2.3445 C   0  0  0  0  0  0  0  0  0  0  0  0
    0.4575  -13.3705    2.1281 C   0  0  0  0  0  0  0  0  0  0  0  0
    1.3992  -14.2795    2.9784 C   0  0  0  0  0  0  0  0  0  0  0  0
    1.3981  -15.5837    2.7718 C   0  0  0  0  0  0  0  0  0  0  0  0
    0.6479  -16.1498    1.8129 C   0  0  0  0  0  0  0  0  0  0  0  0
   -0.1507  -15.4364    1.0074 C   0  0  0  0  0  0  0  0  0  0  0  0
   -0.2761  -14.0581    1.2370 C   0  0  0  0  0  0  0  0  0  0  0  0
    1.5638   -5.6558    2.6514 C   0  0  0  0  0  0  0  0  0  0  0  0
    1.1965   -4.7842    1.6468 N   0  0  0  0  0  0  0  0  0  0  0  0
    1.4456   -3.4457    1.5862 C   0  0  0  0  0  0  0  0  0  0  0  0
   -0.8907  -13.3366    0.2392 C   0  0  0  0  0  0  0  0  0  0  0  0
  3  7  1  0
  7  8  2  3
  8  9  1  0
  6 15  1  0
 15 16  1  0
 16 17  1  0
 14 18  1  0
  1  2  2  0
  2  3  1  0
  3  4  2  0
  4  5  1  0
  5  6  2  0
  1  6  1  0
  9 10  2  0
 10 11  1  0
 11 12  2  0
 12 13  1  0
 13 14  2  0
  9 14  1  0
M  END

$$$$
No_4355-/export/home/yangzhenyu/potential_scad_32_flow//YTHDC2/2024-12-06-03-22-00/
     RDKit          3D

 20 21  0  0  1  0  0  0  0  0999 V2000
    1.1787   -8.0297    3.5154 C   0  0  0  0  0  0  0  0  0  0  0  0
    1.0491   -6.8434    2.9820 C   0  0  1  0  0  0  0  0  0  0  0  0
    0.9905   -9.0774    2.6527 C   0  0  0  0  0  0  0  0  0  0  0  0
    0.7897   -8.9519    1.3691 C   0  0  0  0  0  0  0  0  0  0  0  0
    0.7018   -7.7198    0.7892 C   0  0  0  0  0  0  0  0  0  0  0  0
    1.4312   -5.5794    3.7443 O   0  0  0  0  0  0  0  0  0  0  0  0
    0.9501   -6.6506    1.5469 C   0  0  0  0  0  0  0  0  0  0  0  0
    1.0197  -10.4509    3.2467 C   0  0  2  0  0  0  0  0  0  0  0  0
    2.1135  -11.0433    3.6065 C   0  0  0  0  0  0  0  0  0  0  0  0
    0.9113   -5.3360    1.1381 O   0  0  0  0  0  0  0  0  0  0  0  0
   -0.1092  -11.2026    3.3581 C   0  0  0  0  0  0  0  0  0  0  0  0
    3.1914  -10.2255    4.2139 O   0  0  0  0  0  0  0  0  0  0  0  0
   -0.1905  -12.4528    2.9526 C   0  0  0  0  0  0  0  0  0  0  0  0
   -1.4191  -13.1131    2.9472 C   0  0  0  0  0  0  0  0  0  0  0  0
   -1.4179  -14.4593    2.5885 C   0  0  0  0  0  0  0  0  0  0  0  0
   -2.6089  -15.1696    2.6091 C   0  0  0  0  0  0  0  0  0  0  0  0
   -2.5405  -16.4764    2.4373 C   0  0  0  0  0  0  0  0  0  0  0  0
   -1.3725  -17.1508    2.0703 C   0  0  0  0  0  0  0  0  0  0  0  0
   -0.1869  -16.4533    1.9913 C   0  0  0  0  0  0  0  0  0  0  0  0
   -0.1651  -15.0775    2.2531 C   0  0  0  0  0  0  0  0  0  0  0  0
  1  2  1  0
  3  4  1  0
  2  6  1  6
  2  7  1  0
  5  7  1  0
  8  3  1  6
  8  9  1  0
  7 10  2  0
  8 11  1  0
  9 12  2  0
 11 13  2  3
 13 14  1  0
 14 15  1  0
  1  3  1  0
  4  5  1  0
 15 16  2  0
 16 17  1  0
 17 18  2  0
 18 19  1  0
 19 20  2  0
 15 20  1  0
M  END

$$$$
No_4356-/export/home/yangzhenyu/potential_scad_32_flow//YTHDC2/2024-12-06-03-22-00/
     RDKit          3D

 20 21  0  0  0  0  0  0  0  0999 V2000
    1.1787   -8.0297    3.5154 C   0  0  0  0  0  0  0  0  0  0  0  0
    1.0491   -6.8434    2.9820 C   0  0  0  0  0  0  0  0  0  0  0  0
    0.9905   -9.0774    2.6527 C   0  0  0  0  0  0  0  0  0  0  0  0
    0.7897   -8.9519    1.3691 C   0  0  0  0  0  0  0  0  0  0  0  0
    0.7018   -7.7198    0.7892 C   0  0  0  0  0  0  0  0  0  0  0  0
    0.8918   -6.5957    1.6117 C   0  0  0  0  0  0  0  0  0  0  0  0
    1.0998  -10.4710    3.2437 C   0  0  0  0  0  0  0  0  0  0  0  0
    0.0471  -11.2546    3.3963 C   0  0  0  0  0  0  0  0  0  0  0  0
   -0.3712  -11.7969    2.5371 C   0  0  0  0  0  0  0  0  0  0  0  0
   -1.6982  -12.5008    2.6364 C   0  0  0  0  0  0  0  0  0  0  0  0
    0.8946   -5.2894    1.1762 O   0  0  0  0  0  0  0  0  0  0  0  0
   -2.0320  -13.7199    2.2655 C   0  0  0  0  0  0  0  0  0  0  0  0
   -1.0903  -14.4264    1.5316 C   0  0  0  0  0  0  0  0  0  0  0  0
    0.2036  -13.9167    1.2478 C   0  0  0  0  0  0  0  0  0  0  0  0
    0.5734  -12.7490    1.8097 C   0  0  0  0  0  0  0  0  0  0  0  0
    2.4444  -10.8322    3.5732 O   0  0  0  0  0  0  0  0  0  0  0  0
   -1.3739  -15.0348    0.5990 C   0  0  0  0  0  0  0  0  0  0  0  0
   -2.5841  -15.8240    0.6307 C   0  0  0  0  0  0  0  0  0  0  0  0
   -3.0560  -16.5933   -0.4287 C   0  0  0  0  0  0  0  0  0  0  0  0
   -2.2602  -16.6568   -1.5567 C   0  0  0  0  0  0  0  0  0  0  0  0
  1  2  1  0
  3  4  1  0
  2  6  1  0
  5  6  1  0
  3  7  1  0
  7  8  1  0
  6 11  2  0
  7 16  2  0
 13 17  1  0
 17 18  2  3
 18 19  1  0
 19 20  2  0
  8  9  1  0
  1  3  1  0
  4  5  1  0
  9 10  2  0
 10 12  1  0
 12 13  2  0
 13 14  1  0
 14 15  2  0
  9 15  1  0
M  END

$$$$
No_4357-/export/home/yangzhenyu/potential_scad_32_flow//YTHDC2/2024-12-06-03-22-00/
     RDKit          3D

 19 20  0  0  0  0  0  0  0  0999 V2000
    1.1787   -8.0297    3.5154 N   0  0  0  0  0  0  0  0  0  0  0  0
    1.0818   -9.0751    3.2053 C   0  0  0  0  0  0  0  0  0  0  0  0
    0.7576   -9.3725    1.9159 C   0  0  0  0  0  0  0  0  0  0  0  0
    0.7445  -10.8746    1.6491 C   0  0  0  0  0  0  0  0  0  0  0  0
    0.4267  -11.1283    0.3668 C   0  0  0  0  0  0  0  0  0  0  0  0
   -0.4331  -10.4839   -0.2801 C   0  0  0  0  0  0  0  0  0  0  0  0
   -0.6951   -9.0154    0.0775 C   0  0  0  0  0  0  0  0  0  0  0  0
   -0.1045   -8.5931    1.1754 C   0  0  0  0  0  0  0  0  0  0  0  0
   -0.0931   -7.2515    1.4954 C   0  0  0  0  0  0  0  0  0  0  0  0
    0.6847   -6.9087    2.7327 C   0  0  0  0  0  0  0  0  0  0  0  0
    0.8895   -5.5873    3.0888 C   0  0  0  0  0  0  0  0  0  0  0  0
   -0.5987   -6.2658    0.9492 O   0  0  0  0  0  0  0  0  0  0  0  0
    1.7145  -11.6627    2.1992 C   0  0  0  0  0  0  0  0  0  0  0  0
    1.2039  -12.9019    2.7876 C   0  0  0  0  0  0  0  0  0  0  0  0
    0.8031  -13.9683    1.9820 C   0  0  0  0  0  0  0  0  0  0  0  0
   -0.4132  -14.3708    1.9966 C   0  0  0  0  0  0  0  0  0  0  0  0
   -0.7069  -15.6791    1.8737 C   0  0  0  0  0  0  0  0  0  0  0  0
    0.2494  -16.5696    1.3976 C   0  0  0  0  0  0  0  0  0  0  0  0
    1.6281  -16.1251    1.3888 C   0  0  0  0  0  0  0  0  0  0  0  0
  1  2  1  0
  8  9  1  0
  1 10  1  0
  9 10  1  0
 10 11  1  0
  9 12  2  0
  4 13  1  0
 13 14  1  0
 14 15  1  0
 15 16  1  0
 16 17  2  3
 17 18  1  0
 18 19  2  0
  2  3  1  0
  3  4  2  0
  4  5  1  0
  5  6  2  0
  6  7  1  0
  7  8  2  0
  3  8  1  0
M  END

$$$$
No_4358-/export/home/yangzhenyu/potential_scad_32_flow//YTHDC2/2024-12-06-03-22-00/
     RDKit          3D

 11 11  0  0  0  0  0  0  0  0999 V2000
    1.1787   -8.0297    3.5154 C   0  0  0  0  0  0  0  0  0  0  0  0
    1.0491   -6.8434    2.9820 C   0  0  0  0  0  0  0  0  0  0  0  0
    0.0950   -8.8404    3.2292 C   0  0  0  0  0  0  0  0  0  0  0  0
   -0.9173   -8.4596    2.5152 C   0  0  0  0  0  0  0  0  0  0  0  0
   -1.0331   -7.2162    2.0653 C   0  0  0  0  0  0  0  0  0  0  0  0
   -0.0105   -6.3168    2.3081 C   0  0  0  0  0  0  0  0  0  0  0  0
    0.1465  -10.2446    3.6981 Cl  0  0  0  0  0  0  0  0  0  0  0  0
    0.0249   -4.9418    1.9014 C   0  0  0  0  0  0  0  0  0  0  0  0
   -0.5081   -4.6483    0.7557 O   0  0  0  0  0  0  0  0  0  0  0  0
    1.1941   -4.1543    2.1324 O   0  0  0  0  0  0  0  0  0  0  0  0
    1.3797   -2.8774    1.5162 C   0  0  0  0  0  0  0  0  0  0  0  0
  3  7  1  0
  6  8  1  0
  8  9  2  0
  8 10  1  0
 10 11  1  0
  1  2  2  0
  2  6  1  0
  5  6  2  0
  4  5  1  0
  3  4  2  0
  1  3  1  0
M  END

$$$$
No_4359-/export/home/yangzhenyu/potential_scad_32_flow//YTHDC2/2024-12-06-03-22-00/
     RDKit          3D

 20 21  0  0  1  0  0  0  0  0999 V2000
    1.1787   -8.0297    3.5154 C   0  0  0  0  0  0  0  0  0  0  0  0
    1.1048   -9.2215    3.2892 N   0  0  0  0  0  0  0  0  0  0  0  0
    1.5378  -10.1363    4.2323 C   0  0  0  0  0  0  0  0  0  0  0  0
    0.9975   -7.0391    2.5788 C   0  0  0  0  0  0  0  0  0  0  0  0
    0.7137   -7.5395    1.3675 C   0  0  0  0  0  0  0  0  0  0  0  0
    0.6451   -8.7545    1.0015 C   0  0  2  0  0  0  0  0  0  0  0  0
    0.8770   -9.6930    1.9260 C   0  0  1  0  0  0  0  0  0  0  0  0
    0.6249  -11.3005    4.4319 C   0  0  0  0  0  0  0  0  0  0  0  0
    1.0024  -11.0142    1.7634 C   0  0  0  0  0  0  0  0  0  0  0  0
    0.5480  -11.8848    2.9657 C   0  0  1  0  0  0  0  0  0  0  0  0
    0.2612  -13.1518    2.8249 C   0  0  0  0  0  0  0  0  0  0  0  0
   -0.7215  -13.6827    2.4442 O   0  0  0  0  0  0  0  0  0  0  0  0
    1.2487  -14.1356    3.2789 N   0  0  0  0  0  0  0  0  0  0  0  0
    0.4201   -9.2229   -0.4450 C   0  0  0  0  0  0  0  0  0  0  0  0
   -0.4437   -8.6585   -1.0957 O   0  0  0  0  0  0  0  0  0  0  0  0
    1.2754   -9.8131   -1.0339 O   0  0  0  0  0  0  0  0  0  0  0  0
    1.1452  -15.4415    3.1426 C   0  0  0  0  0  0  0  0  0  0  0  0
    2.0602  -16.0730    2.1663 C   0  0  0  0  0  0  0  0  0  0  0  0
    2.1841  -17.4060    2.0660 C   0  0  0  0  0  0  0  0  0  0  0  0
    1.2405  -18.1288    2.7523 C   0  0  0  0  0  0  0  0  0  0  0  0
  1  2  1  0
  2  3  1  0
  4  5  1  0
  2  7  1  0
  6  7  1  0
  3  8  1  0
  7  9  1  6
  8 10  1  0
  9 10  1  0
 10 11  1  1
 11 12  2  0
 11 13  1  0
  6 14  1  6
 14 15  2  0
 14 16  1  0
 13 17  1  0
 17 18  1  0
 18 19  2  3
 19 20  1  0
  1  4  1  0
  5  6  1  0
M  END

$$$$
No_4360-/export/home/yangzhenyu/potential_scad_32_flow//YTHDC2/2024-12-06-03-22-00/
     RDKit          3D

 18 18  0  0  0  0  0  0  0  0999 V2000
    1.1787   -8.0297    3.5154 C   0  0  0  0  0  0  0  0  0  0  0  0
    1.1048   -9.2215    3.2892 C   0  0  0  0  0  0  0  0  0  0  0  0
    1.2339   -9.7611    2.0189 C   0  0  0  0  0  0  0  0  0  0  0  0
    1.3583   -9.0036    0.9764 C   0  0  0  0  0  0  0  0  0  0  0  0
    1.7077   -9.6100   -0.3010 C   0  0  0  0  0  0  0  0  0  0  0  0
    1.3637   -7.1087    2.3226 C   0  0  0  0  0  0  0  0  0  0  0  0
    1.1857   -5.6971    2.3625 C   0  0  0  0  0  0  0  0  0  0  0  0
    1.5303   -7.6562    1.0219 C   0  0  0  0  0  0  0  0  0  0  0  0
    1.4843  -10.7897   -0.4021 O   0  0  0  0  0  0  0  0  0  0  0  0
    1.7507   -8.9703   -1.4183 O   0  0  0  0  0  0  0  0  0  0  0  0
    1.7409   -5.0309    3.3751 O   0  0  0  0  0  0  0  0  0  0  0  0
    0.6344   -5.0118    1.4713 O   0  0  0  0  0  0  0  0  0  0  0  0
    1.0213  -10.1560    4.3758 O   0  0  0  0  0  0  0  0  0  0  0  0
    1.6100  -11.4679    4.4622 C   0  0  0  0  0  0  0  0  0  0  0  0
    1.2749  -12.1756    3.3633 C   0  0  0  0  0  0  0  0  0  0  0  0
    1.0544  -13.4292    3.7524 C   0  0  0  0  0  0  0  0  0  0  0  0
    1.0342  -14.3390    2.6289 C   0  0  0  0  0  0  0  0  0  0  0  0
    1.1233  -14.0429    1.4263 C   0  0  0  0  0  0  0  0  0  0  0  0
  4  5  1  0
  6  7  1  0
  5  9  2  0
  5 10  1  0
  7 11  1  0
  7 12  2  0
  2 13  1  0
 13 14  1  0
 14 15  1  0
 15 16  1  0
 16 17  2  3
 17 18  1  0
  1  2  2  0
  2  3  1  0
  3  4  2  0
  4  8  1  0
  6  8  2  0
  1  6  1  0
M  END

$$$$
No_4361-/export/home/yangzhenyu/potential_scad_32_flow//YTHDC2/2024-12-06-03-22-00/
     RDKit          3D

 18 19  0  0  0  0  0  0  0  0999 V2000
    1.1787   -8.0297    3.5154 C   0  0  0  0  0  0  0  0  0  0  0  0
    1.1048   -9.2215    3.2892 C   0  0  0  0  0  0  0  0  0  0  0  0
    1.3627  -10.1721    4.3044 C   0  0  0  0  0  0  0  0  0  0  0  0
    1.0682  -11.5187    4.0618 C   0  0  0  0  0  0  0  0  0  0  0  0
    0.6332  -11.9655    2.9682 C   0  0  0  0  0  0  0  0  0  0  0  0
    0.4776  -11.1308    1.9203 C   0  0  0  0  0  0  0  0  0  0  0  0
    0.7470   -9.8274    2.0368 C   0  0  0  0  0  0  0  0  0  0  0  0
    0.5535   -7.1314    2.6861 C   0  0  0  0  0  0  0  0  0  0  0  0
    0.2950   -7.6000    1.3275 C   0  0  0  0  0  0  0  0  0  0  0  0
    0.2692   -8.8631    1.0973 C   0  0  0  0  0  0  0  0  0  0  0  0
   -0.0513   -6.7125    0.4242 O   0  0  0  0  0  0  0  0  0  0  0  0
    0.4918  -13.3974    2.7285 C   0  0  0  0  0  0  0  0  0  0  0  0
   -0.5878  -13.8014    2.2392 C   0  0  0  0  0  0  0  0  0  0  0  0
    1.5761  -14.2872    3.1179 C   0  0  0  0  0  0  0  0  0  0  0  0
   -0.7758  -15.1372    1.8977 C   0  0  0  0  0  0  0  0  0  0  0  0
   -1.9319  -15.6737    1.3952 C   0  0  0  0  0  0  0  0  0  0  0  0
    2.7435  -14.0358    3.1728 C   0  0  0  0  0  0  0  0  0  0  0  0
   -2.0764  -16.8763    1.2273 C   0  0  0  0  0  0  0  0  0  0  0  0
  1  2  1  0
  8  9  1  0
  7 10  1  0
  9 10  1  0
  9 11  2  0
  5 12  1  0
 12 13  2  3
 12 14  1  0
 13 15  1  0
 15 16  1  0
 14 17  1  0
 16 18  2  0
  1  8  1  0
  2  3  2  0
  3  4  1  0
  4  5  2  0
  5  6  1  0
  6  7  2  0
  2  7  1  0
M  END

$$$$
No_4362-/export/home/yangzhenyu/potential_scad_32_flow//YTHDC2/2024-12-06-03-22-00/
     RDKit          3D

 19 20  0  0  0  0  0  0  0  0999 V2000
    1.1787   -8.0297    3.5154 C   0  0  0  0  0  0  0  0  0  0  0  0
    1.1048   -9.2215    3.2892 C   0  0  0  0  0  0  0  0  0  0  0  0
    1.3627  -10.1721    4.3044 Cl  0  0  0  0  0  0  0  0  0  0  0  0
    0.9437   -6.9189    2.5731 C   0  0  0  0  0  0  0  0  0  0  0  0
    0.6904   -7.3879    1.3190 C   0  0  0  0  0  0  0  0  0  0  0  0
    0.5824   -8.6419    0.9733 C   0  0  0  0  0  0  0  0  0  0  0  0
    0.8094   -9.6214    1.8974 C   0  0  0  0  0  0  0  0  0  0  0  0
    0.2042  -10.8400    1.6928 C   0  0  0  0  0  0  0  0  0  0  0  0
    0.8648  -11.9293    1.9844 C   0  0  0  0  0  0  0  0  0  0  0  0
    0.4660  -13.3117    1.6739 C   0  0  0  0  0  0  0  0  0  0  0  0
   -0.4813  -13.3870    0.6545 C   0  0  0  0  0  0  0  0  0  0  0  0
   -1.0591  -12.2418    0.1677 C   0  0  0  0  0  0  0  0  0  0  0  0
   -0.6829  -11.0042    0.5273 C   0  0  0  0  0  0  0  0  0  0  0  0
    1.1272  -14.4118    2.2407 C   0  0  0  0  0  0  0  0  0  0  0  0
    0.3701  -15.1865    3.0872 C   0  0  0  0  0  0  0  0  0  0  0  0
   -0.7940  -15.3403    3.0464 C   0  0  0  0  0  0  0  0  0  0  0  0
   -1.4647  -16.3764    3.7572 C   0  0  0  0  0  0  0  0  0  0  0  0
   -0.5318  -17.3153    4.4645 C   0  0  0  0  0  0  0  0  0  0  0  0
    0.7613  -17.1869    4.4149 C   0  0  0  0  0  0  0  0  0  0  0  0
  2  3  1  0
  7  8  1  0
 10 14  1  0
 14 15  1  0
 15 16  2  3
 16 17  1  0
 17 18  2  3
 18 19  1  0
  1  2  2  0
  2  7  1  0
  6  7  2  0
  5  6  1  0
  4  5  2  0
  1  4  1  0
  8  9  2  0
  9 10  1  0
 10 11  2  0
 11 12  1  0
 12 13  2  0
  8 13  1  0
M  END

$$$$
No_4363-/export/home/yangzhenyu/potential_scad_32_flow//YTHDC2/2024-12-06-03-22-00/
     RDKit          3D

 17 18  0  0  1  0  0  0  0  0999 V2000
    1.1787   -8.0297    3.5154 C   0  0  0  0  0  0  0  0  0  0  0  0
    1.0491   -6.8434    2.9820 C   0  0  1  0  0  0  0  0  0  0  0  0
    0.9905   -9.0774    2.6527 C   0  0  0  0  0  0  0  0  0  0  0  0
    0.7897   -8.9519    1.3691 C   0  0  0  0  0  0  0  0  0  0  0  0
    0.7018   -7.7198    0.7892 C   0  0  0  0  0  0  0  0  0  0  0  0
    1.4312   -5.5794    3.7443 Cl  0  0  0  0  0  0  0  0  0  0  0  0
    0.9313   -6.7257    1.5340 C   0  0  0  0  0  0  0  0  0  0  0  0
    1.0064  -10.4910    3.2333 C   0  0  0  0  0  0  0  0  0  0  0  0
    1.1824  -11.6167    2.3998 C   0  0  0  0  0  0  0  0  0  0  0  0
    0.8978  -12.6448    2.6022 C   0  0  0  0  0  0  0  0  0  0  0  0
    0.3952  -13.0810    3.9877 C   0  0  0  0  0  0  0  0  0  0  0  0
    0.4302  -10.9521    4.4166 C   0  0  0  0  0  0  0  0  0  0  0  0
    0.1575  -12.1349    4.7144 C   0  0  0  0  0  0  0  0  0  0  0  0
    0.8925   -5.4236    1.0026 O   0  0  0  0  0  0  0  0  0  0  0  0
    1.2906  -14.0540    1.6013 C   0  0  0  0  0  0  0  0  0  0  0  0
    1.1646  -13.6203    0.4149 C   0  0  0  0  0  0  0  0  0  0  0  0
    2.8097  -14.3829    1.8914 C   0  0  0  0  0  0  0  0  0  0  0  0
  1  2  1  0
  3  4  1  0
  2  6  1  6
  2  7  1  0
  5  7  1  0
  3  8  1  0
  7 14  2  0
 10 15  1  0
 15 16  1  0
 15 17  1  0
  1  3  1  0
  4  5  1  0
  8  9  2  0
  9 10  1  0
 10 11  2  0
 11 13  1  0
 12 13  2  0
  8 12  1  0
M  END

$$$$
No_4364-/export/home/yangzhenyu/potential_scad_32_flow//YTHDC2/2024-12-06-03-22-00/
     RDKit          3D

 18 19  0  0  0  0  0  0  0  0999 V2000
    1.1787   -8.0297    3.5154 C   0  0  0  0  0  0  0  0  0  0  0  0
    1.1048   -9.2215    3.2892 C   0  0  0  0  0  0  0  0  0  0  0  0
    1.2339   -9.7611    2.0189 C   0  0  0  0  0  0  0  0  0  0  0  0
    1.3583   -9.0036    0.9764 C   0  0  0  0  0  0  0  0  0  0  0  0
    1.5996   -7.6362    1.1311 C   0  0  0  0  0  0  0  0  0  0  0  0
    1.4830   -7.0928    2.3626 C   0  0  0  0  0  0  0  0  0  0  0  0
    1.1171  -11.3311    1.8661 C   0  0  0  0  0  0  0  0  0  0  0  0
    1.9975  -12.1095    2.2478 C   0  0  0  0  0  0  0  0  0  0  0  0
    1.7697  -13.4418    1.9079 C   0  0  0  0  0  0  0  0  0  0  0  0
    0.8824  -13.8563    1.1154 C   0  0  0  0  0  0  0  0  0  0  0  0
   -0.0664  -12.9335    0.5986 C   0  0  0  0  0  0  0  0  0  0  0  0
    0.1158  -11.5559    0.9634 C   0  0  0  0  0  0  0  0  0  0  0  0
    1.5514   -5.6395    2.6394 C   0  0  0  0  0  0  0  0  0  0  0  0
   -0.8269  -10.6579    0.5192 C   0  0  0  0  0  0  0  0  0  0  0  0
   -1.9101  -10.3443    1.3694 F   0  0  0  0  0  0  0  0  0  0  0  0
   -0.2721   -9.5106    0.0479 F   0  0  0  0  0  0  0  0  0  0  0  0
   -1.6918  -11.2030   -0.3251 F   0  0  0  0  0  0  0  0  0  0  0  0
    0.6319   -4.8560    2.5732 C   0  0  0  0  0  0  0  0  0  0  0  0
  3  7  1  0
  6 13  1  0
 12 14  1  0
 14 15  1  0
 14 16  1  0
 14 17  1  0
 13 18  1  0
  1  2  2  0
  2  3  1  0
  3  4  2  0
  4  5  1  0
  5  6  2  0
  1  6  1  0
  7  8  2  0
  8  9  1  0
  9 10  2  0
 10 11  1  0
 11 12  2  0
  7 12  1  0
M  END

$$$$
No_4365-/export/home/yangzhenyu/potential_scad_32_flow//YTHDC2/2024-12-06-03-22-00/
     RDKit          3D

 18 19  0  0  0  0  0  0  0  0999 V2000
    1.1787   -8.0297    3.5154 C   0  0  0  0  0  0  0  0  0  0  0  0
    1.0491   -6.8434    2.9820 C   0  0  0  0  0  0  0  0  0  0  0  0
    0.0950   -8.8404    3.2292 C   0  0  0  0  0  0  0  0  0  0  0  0
   -0.9173   -8.4596    2.5152 C   0  0  0  0  0  0  0  0  0  0  0  0
   -1.0331   -7.2162    2.0653 C   0  0  0  0  0  0  0  0  0  0  0  0
   -0.0105   -6.3168    2.3081 C   0  0  0  0  0  0  0  0  0  0  0  0
    0.1150   -4.9910    1.8495 C   0  0  0  0  0  0  0  0  0  0  0  0
   -0.1376   -4.7952    0.5550 C   0  0  0  0  0  0  0  0  0  0  0  0
   -0.2146   -3.3857    0.2341 C   0  0  0  0  0  0  0  0  0  0  0  0
    0.4473   -2.4574    0.8723 C   0  0  0  0  0  0  0  0  0  0  0  0
    0.7907   -2.6741    2.1866 C   0  0  0  0  0  0  0  0  0  0  0  0
    0.6797   -3.9846    2.6856 C   0  0  0  0  0  0  0  0  0  0  0  0
    0.1655  -10.2559    3.7266 C   0  0  0  0  0  0  0  0  0  0  0  0
    0.1811  -11.3319    2.9391 C   0  0  0  0  0  0  0  0  0  0  0  0
    1.1346  -12.4105    3.2660 C   0  0  0  0  0  0  0  0  0  0  0  0
    1.1686  -13.5235    2.4985 C   0  0  0  0  0  0  0  0  0  0  0  0
    0.5722  -13.6655    1.4438 C   0  0  0  0  0  0  0  0  0  0  0  0
   -0.2262  -12.6263    0.9224 C   0  0  0  0  0  0  0  0  0  0  0  0
  6  7  1  0
  3 13  1  0
 13 14  1  0
 14 15  1  0
 15 16  2  3
 16 17  1  0
 17 18  2  0
  1  2  2  0
  2  6  1  0
  5  6  2  0
  4  5  1  0
  3  4  2  0
  1  3  1  0
  7  8  2  0
  8  9  1  0
  9 10  2  0
 10 11  1  0
 11 12  2  0
  7 12  1  0
M  END

$$$$
No_4366-/export/home/yangzhenyu/potential_scad_32_flow//YTHDC2/2024-12-06-03-22-00/
     RDKit          3D

 19 21  0  0  0  0  0  0  0  0999 V2000
    1.1787   -8.0297    3.5154 C   0  0  0  0  0  0  0  0  0  0  0  0
    1.1048   -9.2215    3.2892 C   0  0  0  0  0  0  0  0  0  0  0  0
    1.3627  -10.1721    4.3044 C   0  0  0  0  0  0  0  0  0  0  0  0
    1.0682  -11.5187    4.0618 C   0  0  0  0  0  0  0  0  0  0  0  0
    0.6332  -11.9655    2.9682 C   0  0  0  0  0  0  0  0  0  0  0  0
    0.4776  -11.1308    1.9203 C   0  0  0  0  0  0  0  0  0  0  0  0
    0.7470   -9.8274    2.0368 C   0  0  0  0  0  0  0  0  0  0  0  0
    1.0387   -7.0301    2.5175 C   0  0  0  0  0  0  0  0  0  0  0  0
    0.9130   -7.5288    1.2013 C   0  0  0  0  0  0  0  0  0  0  0  0
    0.7893   -8.7979    0.9542 C   0  0  0  0  0  0  0  0  0  0  0  0
    0.5241   -9.2578   -0.2817 C   0  0  0  0  0  0  0  0  0  0  0  0
    1.2450   -9.2169   -1.2769 O   0  0  0  0  0  0  0  0  0  0  0  0
   -0.8125   -9.7173   -0.5966 O   0  0  0  0  0  0  0  0  0  0  0  0
    0.4885  -13.6223    2.6798 C   0  0  0  0  0  0  0  0  0  0  0  0
    1.5383  -14.3524    3.1814 C   0  0  0  0  0  0  0  0  0  0  0  0
    1.2323  -15.7325    2.9817 C   0  0  0  0  0  0  0  0  0  0  0  0
    0.3435  -16.1955    2.2486 C   0  0  0  0  0  0  0  0  0  0  0  0
   -0.5483  -15.3419    1.6607 C   0  0  0  0  0  0  0  0  0  0  0  0
   -0.3722  -14.0237    1.8757 C   0  0  0  0  0  0  0  0  0  0  0  0
 10 11  1  0
 11 12  2  0
 11 13  1  0
  5 14  1  0
  2  3  1  0
  3  4  2  0
  4  5  1  0
  5  6  2  0
  6  7  1  0
  1  2  2  0
  2  7  1  0
  7 10  2  0
  9 10  1  0
  8  9  2  0
  1  8  1  0
 14 15  2  0
 15 16  1  0
 16 17  2  0
 17 18  1  0
 18 19  2  0
 14 19  1  0
M  END

$$$$
No_4367-/export/home/yangzhenyu/potential_scad_32_flow//YTHDC2/2024-12-06-03-22-00/
     RDKit          3D

 19 19  0  0  1  0  0  0  0  0999 V2000
    1.1787   -8.0297    3.5154 C   0  0  0  0  0  0  0  0  0  0  0  0
    1.1048   -9.2215    3.2892 C   0  0  0  0  0  0  0  0  0  0  0  0
    1.2339   -9.7611    2.0189 C   0  0  0  0  0  0  0  0  0  0  0  0
    1.3583   -9.0036    0.9764 C   0  0  0  0  0  0  0  0  0  0  0  0
    1.5996   -7.6362    1.1311 C   0  0  0  0  0  0  0  0  0  0  0  0
    1.4830   -7.0928    2.3626 C   0  0  0  0  0  0  0  0  0  0  0  0
    1.4898   -5.7274    2.6199 C   0  0  0  0  0  0  0  0  0  0  0  0
    1.1681  -11.2222    1.8390 C   0  0  2  0  0  0  0  0  0  0  0  0
    0.7145  -11.5870    0.5424 C   0  0  0  0  0  0  0  0  0  0  0  0
   -0.1922  -10.9837   -0.0791 O   0  0  0  0  0  0  0  0  0  0  0  0
    1.1977  -12.7506    0.1097 O   0  0  0  0  0  0  0  0  0  0  0  0
    1.6816   -5.1770    3.8597 O   0  0  0  0  0  0  0  0  0  0  0  0
    0.9697   -4.8477    1.7226 O   0  0  0  0  0  0  0  0  0  0  0  0
    0.8098  -11.9608    2.8618 C   0  0  0  0  0  0  0  0  0  0  0  0
    1.8604  -12.6425    3.5957 C   0  0  0  0  0  0  0  0  0  0  0  0
    2.2291  -13.7959    2.6317 O   0  0  0  0  0  0  0  0  0  0  0  0
    1.5857  -14.9772    2.9599 C   0  0  0  0  0  0  0  0  0  0  0  0
    0.4844  -15.0042    3.6998 C   0  0  0  0  0  0  0  0  0  0  0  0
    2.2615  -16.1731    2.5657 C   0  0  0  0  0  0  0  0  0  0  0  0
  6  7  1  0
  3  8  1  0
  8  9  1  0
  9 10  2  0
  9 11  1  0
  7 12  1  0
  7 13  2  0
  8 14  1  1
 14 15  1  0
 15 16  1  0
 16 17  1  0
 17 18  2  0
 17 19  1  0
  1  2  2  0
  2  3  1  0
  3  4  2  0
  4  5  1  0
  5  6  2  0
  1  6  1  0
M  END

$$$$
No_4368-/export/home/yangzhenyu/potential_scad_32_flow//YTHDC2/2024-12-06-03-22-00/
     RDKit          3D

 18 19  0  0  0  0  0  0  0  0999 V2000
    1.1787   -8.0297    3.5154 C   0  0  0  0  0  0  0  0  0  0  0  0
    1.1048   -9.2215    3.2892 C   0  0  0  0  0  0  0  0  0  0  0  0
    1.2339   -9.7611    2.0189 C   0  0  0  0  0  0  0  0  0  0  0  0
    1.3583   -9.0036    0.9764 C   0  0  0  0  0  0  0  0  0  0  0  0
    1.5996   -7.6362    1.1311 C   0  0  0  0  0  0  0  0  0  0  0  0
    1.4830   -7.0928    2.3626 C   0  0  0  0  0  0  0  0  0  0  0  0
    1.1008  -11.2372    1.8542 C   0  0  0  0  0  0  0  0  0  0  0  0
    0.5178  -11.9759    2.3445 C   0  0  0  0  0  0  0  0  0  0  0  0
    0.4575  -13.3705    2.1281 C   0  0  0  0  0  0  0  0  0  0  0  0
    1.3993  -14.2795    2.9783 C   0  0  0  0  0  0  0  0  0  0  0  0
    1.3982  -15.5837    2.7718 C   0  0  0  0  0  0  0  0  0  0  0  0
    0.6478  -16.1498    1.8129 C   0  0  0  0  0  0  0  0  0  0  0  0
   -0.1507  -15.4364    1.0075 C   0  0  0  0  0  0  0  0  0  0  0  0
   -0.2761  -14.0581    1.2370 C   0  0  0  0  0  0  0  0  0  0  0  0
    1.5638   -5.6558    2.6514 C   0  0  0  0  0  0  0  0  0  0  0  0
    1.1965   -4.7842    1.6468 N   0  0  0  0  0  0  0  0  0  0  0  0
   -0.0958   -4.7225    1.2766 C   0  0  0  0  0  0  0  0  0  0  0  0
   -0.3558   -3.7523    0.1838 O   0  0  0  0  0  0  0  0  0  0  0  0
  3  7  1  0
  7  8  2  3
  8  9  1  0
  6 15  1  0
 15 16  1  0
 16 17  1  0
 17 18  2  0
  1  2  2  0
  2  3  1  0
  3  4  2  0
  4  5  1  0
  5  6  2  0
  1  6  1  0
  9 10  2  0
 10 11  1  0
 11 12  2  0
 12 13  1  0
 13 14  2  0
  9 14  1  0
M  END

$$$$
No_4369-/export/home/yangzhenyu/potential_scad_32_flow//YTHDC2/2024-12-06-03-22-00/
     RDKit          3D

 18 18  0  0  1  0  0  0  0  0999 V2000
    1.1787   -8.0297    3.5154 C   0  0  0  0  0  0  0  0  0  0  0  0
    1.0491   -6.8434    2.9820 C   0  0  0  0  0  0  0  0  0  0  0  0
    1.9985   -8.9840    2.8958 C   0  0  2  0  0  0  0  0  0  0  0  0
    1.7297   -9.2108    1.6335 C   0  0  0  0  0  0  0  0  0  0  0  0
    1.7343   -8.0566    0.8408 C   0  0  2  0  0  0  0  0  0  0  0  0
    1.0269   -6.8892    1.4456 C   0  0  0  0  0  0  0  0  0  0  0  0
    1.7596   -8.0979   -0.4723 C   0  0  0  0  0  0  0  0  0  0  0  0
    2.7309   -8.8718   -1.0817 O   0  0  0  0  0  0  0  0  0  0  0  0
    1.3441   -7.4974   -1.3294 O   0  0  0  0  0  0  0  0  0  0  0  0
    1.9628  -10.3645    3.5874 C   0  0  0  0  0  0  0  0  0  0  0  0
    1.1748  -11.3089    3.3551 N   0  0  0  0  0  0  0  0  0  0  0  0
   -0.1491  -11.1599    3.6498 C   0  0  0  0  0  0  0  0  0  0  0  0
   -0.6467  -10.1908    4.5100 O   0  0  0  0  0  0  0  0  0  0  0  0
   -1.0940  -12.1304    3.3261 C   0  0  0  0  0  0  0  0  0  0  0  0
   -2.4182  -11.7826    3.2645 C   0  0  0  0  0  0  0  0  0  0  0  0
   -3.3072  -12.7005    2.7451 C   0  0  0  0  0  0  0  0  0  0  0  0
   -2.8078  -13.8324    2.1890 C   0  0  0  0  0  0  0  0  0  0  0  0
   -1.4583  -14.1056    2.1038 C   0  0  0  0  0  0  0  0  0  0  0  0
  1  2  1  0
  1  3  1  0
  3  4  1  0
  4  5  1  0
  2  6  1  0
  5  6  1  0
  5  7  1  6
  7  8  1  0
  7  9  2  0
  3 10  1  1
 10 11  1  0
 11 12  1  0
 12 13  2  0
 12 14  1  0
 14 15  2  3
 15 16  1  0
 16 17  2  3
 17 18  1  0
M  END

$$$$
No_4370-/export/home/yangzhenyu/potential_scad_32_flow//YTHDC2/2024-12-06-03-22-00/
     RDKit          3D

 19 20  0  0  0  0  0  0  0  0999 V2000
    1.1787   -8.0297    3.5154 C   0  0  0  0  0  0  0  0  0  0  0  0
    1.0491   -6.8434    2.9820 C   0  0  0  0  0  0  0  0  0  0  0  0
    0.0950   -8.8404    3.2292 C   0  0  0  0  0  0  0  0  0  0  0  0
   -0.9173   -8.4596    2.5152 C   0  0  0  0  0  0  0  0  0  0  0  0
   -1.0331   -7.2162    2.0653 C   0  0  0  0  0  0  0  0  0  0  0  0
   -0.0105   -6.3168    2.3081 C   0  0  0  0  0  0  0  0  0  0  0  0
    0.1465  -10.2446    3.6981 N   0  0  0  0  0  0  0  0  0  0  0  0
   -0.9862  -10.8490    3.9659 C   0  0  0  0  0  0  0  0  0  0  0  0
    1.4134  -10.8029    4.1388 C   0  0  0  0  0  0  0  0  0  0  0  0
    2.0337  -11.5785    3.1980 C   0  0  0  0  0  0  0  0  0  0  0  0
    1.6942  -12.8831    3.0562 C   0  0  0  0  0  0  0  0  0  0  0  0
    1.2879  -13.4652    1.8706 C   0  0  0  0  0  0  0  0  0  0  0  0
    1.0994  -14.9101    1.8761 C   0  0  0  0  0  0  0  0  0  0  0  0
    2.0297  -15.6989    2.3927 C   0  0  0  0  0  0  0  0  0  0  0  0
    1.8524  -17.0681    2.6930 C   0  0  0  0  0  0  0  0  0  0  0  0
    0.7857  -17.6391    2.4996 C   0  0  0  0  0  0  0  0  0  0  0  0
   -0.2567  -16.9541    1.9962 C   0  0  0  0  0  0  0  0  0  0  0  0
   -0.1774  -15.6143    1.7986 C   0  0  0  0  0  0  0  0  0  0  0  0
   -0.0667   -4.9961    1.8314 Cl  0  0  0  0  0  0  0  0  0  0  0  0
  3  7  1  0
  7  8  1  0
  7  9  1  0
  9 10  1  0
 10 11  1  0
 11 12  1  0
 12 13  1  0
  6 19  1  0
 13 14  2  0
 14 15  1  0
 15 16  2  0
 16 17  1  0
 17 18  2  0
 13 18  1  0
  1  2  2  0
  2  6  1  0
  5  6  2  0
  4  5  1  0
  3  4  2  0
  1  3  1  0
M  END

$$$$
No_4371-/export/home/yangzhenyu/potential_scad_32_flow//YTHDC2/2024-12-06-03-22-00/
     RDKit          3D

 18 19  0  0  1  0  0  0  0  0999 V2000
    1.1787   -8.0297    3.5154 C   0  0  0  0  0  0  0  0  0  0  0  0
    1.1048   -9.2215    3.2892 N   0  0  0  0  0  0  0  0  0  0  0  0
    1.5378  -10.1363    4.2323 C   0  0  0  0  0  0  0  0  0  0  0  0
    0.9975   -7.0391    2.5788 C   0  0  2  0  0  0  0  0  0  0  0  0
    0.9576   -7.4667    1.4612 C   0  0  0  0  0  0  0  0  0  0  0  0
    0.9920   -8.7097    0.9641 C   0  0  0  0  0  0  0  0  0  0  0  0
    1.0890   -9.6582    1.8728 C   0  0  2  0  0  0  0  0  0  0  0  0
    1.2006  -11.6068    3.9491 C   0  0  0  0  0  0  0  0  0  0  0  0
    0.9451  -11.9852    2.7322 C   0  0  0  0  0  0  0  0  0  0  0  0
    0.8871  -10.9641    1.7211 C   0  0  0  0  0  0  0  0  0  0  0  0
    0.7727  -13.2627    2.4592 C   0  0  2  0  0  0  0  0  0  0  0  0
    1.5091  -14.2545    3.0203 O   0  0  0  0  0  0  0  0  0  0  0  0
    0.8868   -9.0611   -0.3547 C   0  0  0  0  0  0  0  0  0  0  0  0
   -0.3954   -9.3316   -0.8509 O   0  0  0  0  0  0  0  0  0  0  0  0
    1.6493   -8.5804   -1.2689 O   0  0  0  0  0  0  0  0  0  0  0  0
    0.0240  -13.6593    1.4381 C   0  0  0  0  0  0  0  0  0  0  0  0
    1.2041   -5.4449    3.0529 Cl  0  0  0  0  0  0  0  0  0  0  0  0
    1.1729  -15.5618    2.8679 C   0  0  0  0  0  0  0  0  0  0  0  0
  1  2  1  0
  2  3  1  0
  4  5  1  0
  2  7  1  0
  6  7  1  0
  8  9  1  0
  7 10  1  1
  9 10  1  0
  9 11  1  0
 11 12  1  0
  6 13  1  0
 13 14  2  0
 13 15  1  0
 11 16  1  6
  4 17  1  6
 12 18  1  0
  3  8  1  0
  1  4  1  0
  5  6  1  0
M  END

$$$$
No_4372-/export/home/yangzhenyu/potential_scad_32_flow//YTHDC2/2024-12-06-03-22-00/
     RDKit          3D

 16 17  0  0  1  0  0  0  0  0999 V2000
    1.1787   -8.0297    3.5154 C   0  0  0  0  0  0  0  0  0  0  0  0
    1.0491   -6.8434    2.9820 C   0  0  0  0  0  0  0  0  0  0  0  0
    0.0950   -8.8404    3.2292 C   0  0  0  0  0  0  0  0  0  0  0  0
   -0.9173   -8.4596    2.5152 C   0  0  0  0  0  0  0  0  0  0  0  0
   -1.0331   -7.2162    2.0653 C   0  0  0  0  0  0  0  0  0  0  0  0
   -0.0105   -6.3168    2.3081 C   0  0  0  0  0  0  0  0  0  0  0  0
    0.1935  -10.3737    3.7416 C   0  0  2  0  0  0  0  0  0  0  0  0
    1.2407  -10.8901    4.0986 C   0  0  0  0  0  0  0  0  0  0  0  0
    1.7689  -11.7893    3.2364 C   0  0  0  0  0  0  0  0  0  0  0  0
    0.6976  -12.4278    2.4734 C   0  0  1  0  0  0  0  0  0  0  0  0
   -0.4761  -11.8255    2.3899 C   0  0  0  0  0  0  0  0  0  0  0  0
   -0.8307  -10.8353    3.1010 C   0  0  0  0  0  0  0  0  0  0  0  0
    1.1553  -13.5658    1.8027 C   0  0  0  0  0  0  0  0  0  0  0  0
    0.8878  -13.9113    0.6103 C   0  0  0  0  0  0  0  0  0  0  0  0
    0.8370  -14.9419    2.5637 C   0  0  0  0  0  0  0  0  0  0  0  0
   -0.0651   -4.9634    1.8830 C   0  0  0  0  0  0  0  0  0  0  0  0
  7  3  1  6
  7  8  1  0
  8  9  1  0
  9 10  1  0
 10 11  1  0
  7 12  1  0
 11 12  1  0
 10 13  1  6
 13 14  1  0
 13 15  1  0
  6 16  1  0
  1  2  2  0
  2  6  1  0
  5  6  2  0
  4  5  1  0
  3  4  2  0
  1  3  1  0
M  END

$$$$
No_4373-/export/home/yangzhenyu/potential_scad_32_flow//YTHDC2/2024-12-06-03-22-00/
     RDKit          3D

 17 18  0  0  1  0  0  0  0  0999 V2000
    1.1787   -8.0297    3.5154 C   0  0  0  0  0  0  0  0  0  0  0  0
    1.1048   -9.2215    3.2892 C   0  0  0  0  0  0  0  0  0  0  0  0
    1.2339   -9.7611    2.0189 C   0  0  1  0  0  0  0  0  0  0  0  0
    1.1954  -11.2312    1.8661 C   0  0  0  0  0  0  0  0  0  0  0  0
    1.5546  -12.1691    2.7931 C   0  0  0  0  0  0  0  0  0  0  0  0
    0.9527   -7.0669    2.3918 C   0  0  2  0  0  0  0  0  0  0  0  0
    1.0618   -7.6392    1.0692 C   0  0  0  0  0  0  0  0  0  0  0  0
    1.2060   -8.9530    0.8578 C   0  0  0  0  0  0  0  0  0  0  0  0
    1.5159  -13.5011    2.3738 C   0  0  0  0  0  0  0  0  0  0  0  0
    1.1409  -13.8990    1.1908 C   0  0  0  0  0  0  0  0  0  0  0  0
    0.9249  -13.0546    0.2183 C   0  0  0  0  0  0  0  0  0  0  0  0
    0.9227  -11.6707    0.5316 C   0  0  0  0  0  0  0  0  0  0  0  0
    1.0078   -5.6071    2.4628 C   0  0  0  0  0  0  0  0  0  0  0  0
    1.9136   -9.2295   -0.2537 O   0  0  0  0  0  0  0  0  0  0  0  0
    0.3381   -4.9132    1.6262 C   0  0  0  0  0  0  0  0  0  0  0  0
   -0.7718   -5.0616    1.2332 C   0  0  0  0  0  0  0  0  0  0  0  0
   -1.4318   -4.1761    0.2880 C   0  0  0  0  0  0  0  0  0  0  0  0
  1  2  1  0
  3  4  1  6
  6  7  1  0
  3  8  1  0
  7  8  1  0
  6 13  1  6
  8 14  2  0
 13 15  1  0
 15 16  2  3
 16 17  1  0
  2  3  1  0
  1  6  1  0
  4  5  2  0
  5  9  1  0
  9 10  2  0
 10 11  1  0
 11 12  2  0
  4 12  1  0
M  END

$$$$
No_4374-/export/home/yangzhenyu/potential_scad_32_flow//YTHDC2/2024-12-06-03-22-00/
     RDKit          3D

 17 17  0  0  1  0  0  0  0  0999 V2000
    1.1787   -8.0297    3.5154 C   0  0  0  0  0  0  0  0  0  0  0  0
    1.0491   -6.8434    2.9820 C   0  0  0  0  0  0  0  0  0  0  0  0
    1.9985   -8.9840    2.8958 C   0  0  2  0  0  0  0  0  0  0  0  0
    1.7297   -9.2108    1.6335 C   0  0  0  0  0  0  0  0  0  0  0  0
    1.7343   -8.0566    0.8408 C   0  0  0  0  0  0  0  0  0  0  0  0
    1.0269   -6.8892    1.4456 C   0  0  0  0  0  0  0  0  0  0  0  0
    2.0740   -7.9416   -0.3682 O   0  0  0  0  0  0  0  0  0  0  0  0
    1.9646  -10.3580    3.5767 C   0  0  0  0  0  0  0  0  0  0  0  0
    1.1665  -11.3332    3.3170 N   0  0  0  0  0  0  0  0  0  0  0  0
    1.4249  -12.6072    3.4921 C   0  0  0  0  0  0  0  0  0  0  0  0
    0.4077  -13.5155    2.9354 C   0  0  0  0  0  0  0  0  0  0  0  0
    0.5570  -13.9029    1.9807 C   0  0  0  0  0  0  0  0  0  0  0  0
    1.6649  -14.3608    1.5036 C   0  0  0  0  0  0  0  0  0  0  0  0
    2.6295  -10.5355    4.7589 O   0  0  0  0  0  0  0  0  0  0  0  0
    1.7705  -14.8556    0.1809 C   0  0  0  0  0  0  0  0  0  0  0  0
    0.5125  -15.1097   -0.3808 C   0  0  0  0  0  0  0  0  0  0  0  0
   -0.6807  -14.8320    0.1730 C   0  0  0  0  0  0  0  0  0  0  0  0
  1  2  1  0
  1  3  1  0
  3  4  1  0
  4  5  1  0
  2  6  1  0
  5  6  1  0
  5  7  2  0
  3  8  1  1
  8  9  1  0
  9 10  1  0
 10 11  1  0
 11 12  1  0
 12 13  2  3
  8 14  2  0
 13 15  1  0
 15 16  2  3
 16 17  1  0
M  END

$$$$
No_4375-/export/home/yangzhenyu/potential_scad_32_flow//YTHDC2/2024-12-06-03-22-00/
     RDKit          3D

 16 17  0  0  1  0  0  0  0  0999 V2000
    1.1787   -8.0297    3.5154 C   0  0  0  0  0  0  0  0  0  0  0  0
    1.1048   -9.2215    3.2892 C   0  0  0  0  0  0  0  0  0  0  0  0
    1.3627  -10.1721    4.3044 C   0  0  0  0  0  0  0  0  0  0  0  0
    1.0682  -11.5187    4.0618 C   0  0  0  0  0  0  0  0  0  0  0  0
    0.7653  -11.7320    2.7387 C   0  0  0  0  0  0  0  0  0  0  0  0
    0.5661  -10.9730    1.8367 C   0  0  0  0  0  0  0  0  0  0  0  0
    0.7745   -9.6758    2.0361 C   0  0  0  0  0  0  0  0  0  0  0  0
    0.4411   -6.9477    3.0544 N   0  0  0  0  0  0  0  0  0  0  0  0
    0.7394   -8.7029    1.0520 C   0  0  0  0  0  0  0  0  0  0  0  0
    0.2482   -7.2720    1.5275 C   0  0  2  0  0  0  0  0  0  0  0  0
   -0.1652   -6.4381    0.7459 C   0  0  0  0  0  0  0  0  0  0  0  0
   -0.2655   -5.1258    1.0886 C   0  0  0  0  0  0  0  0  0  0  0  0
    0.5233  -13.2457    2.3987 Cl  0  0  0  0  0  0  0  0  0  0  0  0
   -0.8892   -4.1537    0.2983 C   0  0  0  0  0  0  0  0  0  0  0  0
   -0.7917   -2.8063    0.6975 C   0  0  0  0  0  0  0  0  0  0  0  0
    0.0063   -2.3325    1.7338 C   0  0  0  0  0  0  0  0  0  0  0  0
  1  2  1  0
  1  8  1  0
  7  9  1  0
  8 10  1  0
 10  9  1  6
 10 11  1  0
 11 12  2  3
  5 13  1  0
 12 14  1  0
 14 15  2  3
 15 16  1  0
  2  3  2  0
  3  4  1  0
  4  5  2  0
  5  6  1  0
  6  7  2  0
  2  7  1  0
M  END

$$$$
No_4376-/export/home/yangzhenyu/potential_scad_32_flow//YTHDC2/2024-12-06-03-22-00/
     RDKit          3D

 17 18  0  0  1  0  0  0  0  0999 V2000
    1.1787   -8.0297    3.5154 C   0  0  0  0  0  0  0  0  0  0  0  0
    1.1048   -9.2215    3.2892 C   0  0  0  0  0  0  0  0  0  0  0  0
    1.2339   -9.7611    2.0189 C   0  0  0  0  0  0  0  0  0  0  0  0
    1.3583   -9.0036    0.9764 C   0  0  0  0  0  0  0  0  0  0  0  0
    1.5996   -7.6362    1.1311 C   0  0  0  0  0  0  0  0  0  0  0  0
    1.4830   -7.0928    2.3626 C   0  0  0  0  0  0  0  0  0  0  0  0
    1.5395   -5.7300    2.6182 C   0  0  0  0  0  0  0  0  0  0  0  0
    1.1775  -11.2233    1.8407 C   0  0  2  0  0  0  0  0  0  0  0  0
    1.9057  -12.1147    2.3397 Cl  0  0  0  0  0  0  0  0  0  0  0  0
    0.1547  -11.5723    0.8179 C   0  0  0  0  0  0  0  0  0  0  0  0
   -0.9802  -11.8837    1.3620 C   0  0  0  0  0  0  0  0  0  0  0  0
   -1.2417  -12.1151    2.3453 C   0  0  0  0  0  0  0  0  0  0  0  0
   -2.6043  -12.4608    2.7819 C   0  0  0  0  0  0  0  0  0  0  0  0
   -3.5670  -12.4900    1.9648 C   0  0  0  0  0  0  0  0  0  0  0  0
   -3.3419  -12.1628    0.6981 C   0  0  0  0  0  0  0  0  0  0  0  0
   -2.0593  -11.8628    0.2967 C   0  0  0  0  0  0  0  0  0  0  0  0
   -4.3629  -12.1823   -0.1795 C   0  0  0  0  0  0  0  0  0  0  0  0
  6  7  1  0
  3  8  1  0
  8  9  1  6
  8 10  1  0
 10 11  1  0
 15 17  1  0
 11 12  2  0
 12 13  1  0
 13 14  2  0
 14 15  1  0
 15 16  2  0
 11 16  1  0
  1  2  2  0
  2  3  1  0
  3  4  2  0
  4  5  1  0
  5  6  2  0
  1  6  1  0
M  END

$$$$
No_4377-/export/home/yangzhenyu/potential_scad_32_flow//YTHDC2/2024-12-06-03-22-00/
     RDKit          3D

 19 21  0  0  0  0  0  0  0  0999 V2000
    1.1787   -8.0297    3.5154 C   0  0  0  0  0  0  0  0  0  0  0  0
    1.1048   -9.2215    3.2892 C   0  0  0  0  0  0  0  0  0  0  0  0
    1.3627  -10.1721    4.3044 C   0  0  0  0  0  0  0  0  0  0  0  0
    1.0682  -11.5187    4.0618 C   0  0  0  0  0  0  0  0  0  0  0  0
    0.6332  -11.9655    2.9682 C   0  0  0  0  0  0  0  0  0  0  0  0
    0.4719  -13.4293    2.7591 C   0  0  0  0  0  0  0  0  0  0  0  0
    1.1778  -13.9123    1.8627 C   0  0  0  0  0  0  0  0  0  0  0  0
    1.0139   -7.1500    2.3162 C   0  0  0  0  0  0  0  0  0  0  0  0
    0.8622   -7.8861    1.1794 C   0  0  0  0  0  0  0  0  0  0  0  0
    0.8855   -9.0755    0.9004 C   0  0  0  0  0  0  0  0  0  0  0  0
    0.9673   -9.9327    1.9921 C   0  0  0  0  0  0  0  0  0  0  0  0
    0.7608  -11.2581    1.8170 C   0  0  0  0  0  0  0  0  0  0  0  0
    1.8607  -14.7531    2.0206 C   0  0  0  0  0  0  0  0  0  0  0  0
    1.7459  -15.6951    3.2626 C   0  0  0  0  0  0  0  0  0  0  0  0
    0.7309  -15.3512    4.0617 C   0  0  0  0  0  0  0  0  0  0  0  0
    0.0672  -14.1718    3.8568 C   0  0  0  0  0  0  0  0  0  0  0  0
    1.0869   -5.4495    2.3811 Cl  0  0  0  0  0  0  0  0  0  0  0  0
    0.6976   -9.5987   -0.3580 C   0  0  0  0  0  0  0  0  0  0  0  0
    1.3992   -9.3051   -1.3338 O   0  0  0  0  0  0  0  0  0  0  0  0
  5  6  1  0
  8 17  1  0
 10 18  1  0
 18 19  2  0
  1  2  2  0
 10 11  2  0
  9 10  1  0
  8  9  2  0
  1  8  1  0
  2  3  1  0
  3  4  2  0
  4  5  1  0
  5 12  2  0
 11 12  1  0
  2 11  1  0
  6  7  2  0
  7 13  1  0
 13 14  2  0
 14 15  1  0
 15 16  2  0
  6 16  1  0
M  END

$$$$
No_4378-/export/home/yangzhenyu/potential_scad_32_flow//YTHDC2/2024-12-06-03-22-00/
     RDKit          3D

 19 21  0  0  0  0  0  0  0  0999 V2000
    1.1787   -8.0297    3.5154 Cl  0  0  0  0  0  0  0  0  0  0  0  0
    0.7279   -9.0023    2.8722 C   0  0  0  0  0  0  0  0  0  0  0  0
   -0.0117   -8.9271    1.8829 C   0  0  0  0  0  0  0  0  0  0  0  0
   -0.2543  -10.1657    1.2408 C   0  0  0  0  0  0  0  0  0  0  0  0
    0.3372  -11.3025    1.8538 C   0  0  0  0  0  0  0  0  0  0  0  0
    1.1543  -10.8698    3.0528 C   0  0  0  0  0  0  0  0  0  0  0  0
    1.3792  -10.1334    3.4349 N   0  0  0  0  0  0  0  0  0  0  0  0
    1.7320  -12.4505    3.5142 C   0  0  0  0  0  0  0  0  0  0  0  0
    0.1254  -12.5645    1.2064 C   0  0  0  0  0  0  0  0  0  0  0  0
    0.7821  -13.7574    1.8061 C   0  0  0  0  0  0  0  0  0  0  0  0
    1.5767  -13.6208    2.9393 C   0  0  0  0  0  0  0  0  0  0  0  0
    2.1831  -14.7068    3.4080 O   0  0  0  0  0  0  0  0  0  0  0  0
   -0.6475   -7.8292    1.2436 C   0  0  0  0  0  0  0  0  0  0  0  0
   -0.0849   -6.9095    0.9164 C   0  0  0  0  0  0  0  0  0  0  0  0
   -0.2449   -5.8935    0.9648 C   0  0  0  0  0  0  0  0  0  0  0  0
   -1.5803   -5.3303    1.2469 C   0  0  0  0  0  0  0  0  0  0  0  0
   -2.4691   -6.2381    1.5120 C   0  0  0  0  0  0  0  0  0  0  0  0
   -2.0909   -7.6342    1.5857 C   0  0  0  0  0  0  0  0  0  0  0  0
   -2.0988   -4.0229    1.0469 Cl  0  0  0  0  0  0  0  0  0  0  0  0
  1  2  1  0
  6  8  1  0
  5  9  1  0
  8 11  1  0
 10 11  1  0
 11 12  2  0
  3 13  1  0
 16 19  1  0
  9 10  1  0
  2  3  2  0
  3  4  1  0
  4  5  2  0
  5  6  1  0
  6  7  2  0
  2  7  1  0
 13 14  2  0
 14 15  1  0
 15 16  2  0
 16 17  1  0
 17 18  2  0
 13 18  1  0
M  END

$$$$
No_4379-/export/home/yangzhenyu/potential_scad_32_flow//YTHDC2/2024-12-06-03-22-00/
     RDKit          3D

 18 20  0  0  0  0  0  0  0  0999 V2000
    1.1787   -8.0297    3.5154 C   0  0  0  0  0  0  0  0  0  0  0  0
    1.1048   -9.2215    3.2892 C   0  0  0  0  0  0  0  0  0  0  0  0
    1.3627  -10.1721    4.3044 C   0  0  0  0  0  0  0  0  0  0  0  0
    1.0682  -11.5187    4.0618 C   0  0  0  0  0  0  0  0  0  0  0  0
    0.7653  -11.7320    2.7387 C   0  0  0  0  0  0  0  0  0  0  0  0
    0.5661  -10.9730    1.8367 C   0  0  0  0  0  0  0  0  0  0  0  0
    0.7745   -9.6758    2.0361 C   0  0  0  0  0  0  0  0  0  0  0  0
    1.2131   -6.9952    2.4858 C   0  0  0  0  0  0  0  0  0  0  0  0
    1.0372   -7.3618    1.2450 C   0  0  0  0  0  0  0  0  0  0  0  0
    0.8884   -8.7092    0.9459 C   0  0  0  0  0  0  0  0  0  0  0  0
    0.7739   -9.1153   -0.2836 O   0  0  0  0  0  0  0  0  0  0  0  0
    0.5120  -13.2385    2.4293 C   0  0  0  0  0  0  0  0  0  0  0  0
    1.4244  -14.1699    2.8309 C   0  0  0  0  0  0  0  0  0  0  0  0
    1.5761  -15.3992    2.1743 C   0  0  0  0  0  0  0  0  0  0  0  0
    0.6262  -15.8051    1.3763 C   0  0  0  0  0  0  0  0  0  0  0  0
   -0.3368  -15.0071    0.9888 C   0  0  0  0  0  0  0  0  0  0  0  0
   -0.4071  -13.6731    1.6065 C   0  0  0  0  0  0  0  0  0  0  0  0
    1.3897   -5.5979    2.8535 Cl  0  0  0  0  0  0  0  0  0  0  0  0
  1  2  1  0
  8  9  1  0
  7 10  1  0
  9 10  1  0
 10 11  2  0
  5 12  1  0
  8 18  1  0
  1  8  1  0
 12 13  2  0
 13 14  1  0
 14 15  2  0
 15 16  1  0
 16 17  2  0
 12 17  1  0
  2  3  2  0
  3  4  1  0
  4  5  2  0
  5  6  1  0
  6  7  2  0
  2  7  1  0
M  END

$$$$
No_4380-/export/home/yangzhenyu/potential_scad_32_flow//YTHDC2/2024-12-06-03-22-00/
     RDKit          3D

 19 20  0  0  1  0  0  0  0  0999 V2000
    1.1787   -8.0297    3.5154 C   0  0  0  0  0  0  0  0  0  0  0  0
    1.1048   -9.2215    3.2892 C   0  0  0  0  0  0  0  0  0  0  0  0
    1.2339   -9.7611    2.0189 C   0  0  0  0  0  0  0  0  0  0  0  0
    1.3583   -9.0036    0.9764 C   0  0  0  0  0  0  0  0  0  0  0  0
    1.5996   -7.6362    1.1311 C   0  0  0  0  0  0  0  0  0  0  0  0
    1.4830   -7.0928    2.3626 C   0  0  0  0  0  0  0  0  0  0  0  0
    1.1008  -11.2372    1.8542 C   0  0  2  0  0  0  0  0  0  0  0  0
    1.9749  -12.0938    2.2342 C   0  0  0  0  0  0  0  0  0  0  0  0
    1.7533  -13.4231    1.8956 C   0  0  0  0  0  0  0  0  0  0  0  0
    0.8624  -13.8318    1.1071 C   0  0  2  0  0  0  0  0  0  0  0  0
    0.0173  -12.3388    0.8496 C   0  0  0  0  0  0  0  0  0  0  0  0
    1.5379   -5.6484    2.6265 C   0  0  0  0  0  0  0  0  0  0  0  0
    1.1824   -4.7839    1.6413 O   0  0  0  0  0  0  0  0  0  0  0  0
    1.8188   -5.0761    3.7377 O   0  0  0  0  0  0  0  0  0  0  0  0
    0.1565  -14.6253    0.4251 C   0  0  0  0  0  0  0  0  0  0  0  0
   -0.7137  -14.3106   -0.6282 O   0  0  0  0  0  0  0  0  0  0  0  0
    0.1531  -15.8322    0.8624 O   0  0  0  0  0  0  0  0  0  0  0  0
    1.6461   -9.5728   -0.5268 C   0  0  0  0  0  0  0  0  0  0  0  0
    2.5753   -9.7834   -0.8773 O   0  0  0  0  0  0  0  0  0  0  0  0
  7  3  1  6
  7  8  1  0
  8  9  2  0
  9 10  1  0
  7 11  1  0
 10 11  1  0
  6 12  1  0
 12 13  2  0
 12 14  1  0
 10 15  1  1
 15 16  2  0
 15 17  1  0
  4 18  1  0
 18 19  2  0
  1  2  2  0
  2  3  1  0
  3  4  2  0
  4  5  1  0
  5  6  2  0
  1  6  1  0
M  END

$$$$
No_4381-/export/home/yangzhenyu/potential_scad_32_flow//YTHDC2/2024-12-06-03-22-00/
     RDKit          3D

 17 18  0  0  1  0  0  0  0  0999 V2000
    1.1787   -8.0297    3.5154 C   0  0  0  0  0  0  0  0  0  0  0  0
    1.0491   -6.8434    2.9820 C   0  0  0  0  0  0  0  0  0  0  0  0
    0.9905   -9.0774    2.6527 C   0  0  0  0  0  0  0  0  0  0  0  0
    0.7897   -8.9519    1.3691 C   0  0  0  0  0  0  0  0  0  0  0  0
    0.8824   -7.5617    0.9293 C   0  0  0  0  0  0  0  0  0  0  0  0
    1.0828   -6.5260    1.6856 C   0  0  0  0  0  0  0  0  0  0  0  0
    0.9482  -10.4875    3.1638 C   0  0  1  0  0  0  0  0  0  0  0  0
   -0.2133  -11.1105    3.3942 C   0  0  2  0  0  0  0  0  0  0  0  0
   -1.3105  -10.3194    3.7986 C   0  0  0  0  0  0  0  0  0  0  0  0
   -1.3713   -9.6474    4.9629 C   0  0  0  0  0  0  0  0  0  0  0  0
   -2.1476   -8.4914    5.1479 C   0  0  0  0  0  0  0  0  0  0  0  0
   -3.0547   -8.2465    4.1775 C   0  0  0  0  0  0  0  0  0  0  0  0
   -3.1057   -8.8285    3.0570 C   0  0  0  0  0  0  0  0  0  0  0  0
   -2.2895   -9.8937    2.7901 C   0  0  0  0  0  0  0  0  0  0  0  0
   -0.2050  -12.3604    3.7907 I   0  0  0  0  0  0  0  0  0  0  0  0
    2.2261  -10.9969    3.1853 C   0  0  0  0  0  0  0  0  0  0  0  0
    2.9628  -10.9464    4.3825 N   0  0  0  0  0  0  0  0  0  0  0  0
  3  7  1  0
  7  8  1  0
  8  9  1  0
  8 15  1  1
  7 16  1  6
 16 17  1  0
  1  2  2  0
  2  6  1  0
  5  6  2  0
  4  5  1  0
  3  4  2  0
  1  3  1  0
  9 10  2  0
 10 11  1  0
 11 12  2  0
 12 13  1  0
 13 14  2  0
  9 14  1  0
M  END

$$$$
No_4382-/export/home/yangzhenyu/potential_scad_32_flow//YTHDC2/2024-12-06-03-22-00/
     RDKit          3D

 21 22  0  0  1  0  0  0  0  0999 V2000
    1.1787   -8.0297    3.5154 C   0  0  0  0  0  0  0  0  0  0  0  0
    1.0491   -6.8434    2.9820 C   0  0  0  0  0  0  0  0  0  0  0  0
    1.9985   -8.9840    2.8958 C   0  0  0  0  0  0  0  0  0  0  0  0
    1.7297   -9.2108    1.6335 C   0  0  2  0  0  0  0  0  0  0  0  0
    2.1788  -10.5482    1.1239 C   0  0  0  0  0  0  0  0  0  0  0  0
    0.8226   -6.9903    1.4377 C   0  0  0  0  0  0  0  0  0  0  0  0
    1.5914   -8.1153    0.8208 C   0  0  0  0  0  0  0  0  0  0  0  0
    1.2448  -11.3331    0.7136 O   0  0  0  0  0  0  0  0  0  0  0  0
    1.6861   -8.0977   -0.4570 O   0  0  0  0  0  0  0  0  0  0  0  0
    0.0708  -11.2210    0.8463 C   0  0  0  0  0  0  0  0  0  0  0  0
   -0.5031  -11.8316    1.9327 C   0  0  0  0  0  0  0  0  0  0  0  0
    0.1263  -12.8121    2.5652 C   0  0  0  0  0  0  0  0  0  0  0  0
   -0.4417  -13.8387    3.1700 C   0  0  0  0  0  0  0  0  0  0  0  0
   -1.7567  -13.9014    3.1436 C   0  0  0  0  0  0  0  0  0  0  0  0
   -2.5296  -12.9707    2.5790 C   0  0  0  0  0  0  0  0  0  0  0  0
   -1.9053  -11.9548    1.9001 C   0  0  0  0  0  0  0  0  0  0  0  0
   -0.7372  -10.4541    0.0336 O   0  0  0  0  0  0  0  0  0  0  0  0
   -3.9389  -12.9374    2.5795 C   0  0  0  0  0  0  0  0  0  0  0  0
   -4.5852  -13.9931    2.0524 C   0  0  0  0  0  0  0  0  0  0  0  0
   -4.6098  -12.2075    3.7918 C   0  0  0  0  0  0  0  0  0  0  0  0
   -5.9031  -12.4825    4.0524 C   0  0  0  0  0  0  0  0  0  0  0  0
  1  2  1  0
  1  3  1  0
  3  4  1  0
  4  5  1  6
  2  6  1  0
  4  7  1  0
  6  7  1  0
  5  8  1  0
  7  9  2  0
  8 10  1  0
 10 11  1  0
 10 17  2  0
 15 18  1  0
 18 19  2  0
 18 20  1  0
 20 21  2  0
 11 12  2  0
 12 13  1  0
 13 14  2  0
 14 15  1  0
 15 16  2  0
 11 16  1  0
M  END

$$$$
No_4383-/export/home/yangzhenyu/potential_scad_32_flow//YTHDC2/2024-12-06-03-22-00/
     RDKit          3D

 18 19  0  0  0  0  0  0  0  0999 V2000
    1.1787   -8.0297    3.5154 C   0  0  0  0  0  0  0  0  0  0  0  0
    1.0491   -6.8434    2.9820 C   0  0  0  0  0  0  0  0  0  0  0  0
    0.0950   -8.8404    3.2292 C   0  0  0  0  0  0  0  0  0  0  0  0
    0.0602  -10.1764    3.8231 C   0  0  0  0  0  0  0  0  0  0  0  0
    0.2248   -6.3830    2.0648 C   0  0  0  0  0  0  0  0  0  0  0  0
   -0.6745   -7.2322    1.6857 C   0  0  0  0  0  0  0  0  0  0  0  0
   -0.7374   -8.4992    2.1291 C   0  0  0  0  0  0  0  0  0  0  0  0
   -0.1792  -11.3045    3.0702 C   0  0  0  0  0  0  0  0  0  0  0  0
   -1.1988  -11.5142    2.3719 C   0  0  0  0  0  0  0  0  0  0  0  0
   -1.3032  -12.6630    1.6608 C   0  0  0  0  0  0  0  0  0  0  0  0
   -0.3886  -13.6232    1.6931 C   0  0  0  0  0  0  0  0  0  0  0  0
    0.7893  -13.4523    2.4094 C   0  0  0  0  0  0  0  0  0  0  0  0
    0.8860  -12.2904    3.1814 C   0  0  0  0  0  0  0  0  0  0  0  0
    0.5083   -4.9596    1.4791 Cl  0  0  0  0  0  0  0  0  0  0  0  0
    1.9114  -14.5074    2.5152 C   0  0  0  0  0  0  0  0  0  0  0  0
    1.6627  -15.6014    3.0261 C   0  0  0  0  0  0  0  0  0  0  0  0
    0.5376  -15.9135    3.8063 C   0  0  0  0  0  0  0  0  0  0  0  0
    2.5703  -16.6861    2.7600 C   0  0  0  0  0  0  0  0  0  0  0  0
  3  4  1  0
  4  8  1  0
  5 14  1  0
 12 15  1  0
 15 16  1  0
 16 17  1  0
 16 18  1  0
  8  9  2  0
  9 10  1  0
 10 11  2  0
 11 12  1  0
 12 13  2  0
  8 13  1  0
  1  2  2  0
  2  5  1  0
  5  6  2  0
  6  7  1  0
  3  7  2  0
  1  3  1  0
M  END

$$$$
No_4384-/export/home/yangzhenyu/potential_scad_32_flow//YTHDC2/2024-12-06-03-22-00/
     RDKit          3D

 17 18  0  0  1  0  0  0  0  0999 V2000
    1.1787   -8.0297    3.5154 C   0  0  0  0  0  0  0  0  0  0  0  0
    1.1048   -9.2215    3.2892 C   0  0  0  0  0  0  0  0  0  0  0  0
    1.2339   -9.7611    2.0189 C   0  0  0  0  0  0  0  0  0  0  0  0
    1.3583   -9.0036    0.9764 C   0  0  0  0  0  0  0  0  0  0  0  0
    1.5996   -7.6362    1.1311 C   0  0  0  0  0  0  0  0  0  0  0  0
    1.4830   -7.0928    2.3626 C   0  0  0  0  0  0  0  0  0  0  0  0
    1.1171  -11.3311    1.8661 C   0  0  1  0  0  0  0  0  0  0  0  0
    0.5022  -11.6388    0.6531 C   0  0  0  0  0  0  0  0  0  0  0  0
    0.5683  -13.0838    0.5424 O   0  0  0  0  0  0  0  0  0  0  0  0
   -0.3302  -11.0366   -0.0227 O   0  0  0  0  0  0  0  0  0  0  0  0
    1.5702   -5.6546    2.7057 Cl  0  0  0  0  0  0  0  0  0  0  0  0
    1.8895  -12.0469    2.5828 C   0  0  0  0  0  0  0  0  0  0  0  0
    1.2861  -13.3145    2.9292 C   0  0  0  0  0  0  0  0  0  0  0  0
    1.2272  -14.2923    2.0183 C   0  0  2  0  0  0  0  0  0  0  0  0
    0.2729  -14.1590    1.0301 C   0  0  0  0  0  0  0  0  0  0  0  0
    0.9695  -15.7100    2.7298 C   0  0  0  0  0  0  0  0  0  0  0  0
    1.9757  -16.4872    2.8744 O   0  0  0  0  0  0  0  0  0  0  0  0
  7  3  1  6
  7  8  1  0
  8  9  1  0
  8 10  2  0
  6 11  1  0
  7 12  1  0
 12 13  1  0
 13 14  1  0
  9 15  1  0
 14 15  1  0
 14 16  1  1
 16 17  2  0
  1  2  2  0
  2  3  1  0
  3  4  2  0
  4  5  1  0
  5  6  2  0
  1  6  1  0
M  END

$$$$
No_4385-/export/home/yangzhenyu/potential_scad_32_flow//YTHDC2/2024-12-06-03-22-00/
     RDKit          3D

 18 19  0  0  0  0  0  0  0  0999 V2000
    1.1787   -8.0297    3.5154 C   0  0  0  0  0  0  0  0  0  0  0  0
    1.0491   -6.8434    2.9820 C   0  0  0  0  0  0  0  0  0  0  0  0
    1.9985   -8.9840    2.8958 C   0  0  0  0  0  0  0  0  0  0  0  0
    1.9135  -10.3404    3.6266 C   0  0  0  0  0  0  0  0  0  0  0  0
    1.3291  -11.3908    3.0222 N   0  0  0  0  0  0  0  0  0  0  0  0
    1.1965   -6.5140    1.7930 C   0  0  0  0  0  0  0  0  0  0  0  0
    1.4426   -7.4651    0.7835 C   0  0  0  0  0  0  0  0  0  0  0  0
    1.8392   -8.8002    1.3181 C   0  0  0  0  0  0  0  0  0  0  0  0
    0.6670  -11.4502    2.1705 C   0  0  0  0  0  0  0  0  0  0  0  0
   -0.4611  -10.9194    2.1550 C   0  0  0  0  0  0  0  0  0  0  0  0
   -1.4397  -11.1805    1.1430 N   0  0  0  0  0  0  0  0  0  0  0  0
   -0.8481  -11.8874    0.1367 C   0  0  0  0  0  0  0  0  0  0  0  0
    0.3520  -12.4289    0.0407 C   0  0  0  0  0  0  0  0  0  0  0  0
    1.1491  -12.3059    1.2184 C   0  0  0  0  0  0  0  0  0  0  0  0
    2.3906   -9.7148    0.5902 N   0  0  0  0  0  0  0  0  0  0  0  0
    2.7803  -10.2185    4.5995 O   0  0  0  0  0  0  0  0  0  0  0  0
    0.8783   -5.1110    1.2112 Cl  0  0  0  0  0  0  0  0  0  0  0  0
   -1.7604  -12.0473   -0.9639 O   0  0  0  0  0  0  0  0  0  0  0  0
  3  4  1  0
  4  5  1  0
  5  9  1  0
  4 16  2  0
  6 17  1  0
 12 18  1  0
  8 15  1  0
  9 10  2  0
 10 11  1  0
 11 12  2  0
 12 13  1  0
 13 14  2  0
  9 14  1  0
  1  2  2  0
  2  6  1  0
  6  7  2  0
  7  8  1  0
  3  8  2  0
  1  3  1  0
M  END

$$$$
No_4386-/export/home/yangzhenyu/potential_scad_32_flow//YTHDC2/2024-12-06-03-22-00/
     RDKit          3D

 17 17  0  0  1  0  0  0  0  0999 V2000
    1.1787   -8.0297    3.5154 C   0  0  0  0  0  0  0  0  0  0  0  0
    1.1048   -9.2215    3.2892 C   0  0  0  0  0  0  0  0  0  0  0  0
    1.2339   -9.7611    2.0189 C   0  0  0  0  0  0  0  0  0  0  0  0
    1.1954  -11.2312    1.8661 C   0  0  2  0  0  0  0  0  0  0  0  0
    1.5546  -12.1691    2.7931 C   0  0  0  0  0  0  0  0  0  0  0  0
    0.9527   -7.0669    2.3918 Cl  0  0  0  0  0  0  0  0  0  0  0  0
    1.4641  -13.5710    2.4174 C   0  0  0  0  0  0  0  0  0  0  0  0
    1.9712  -14.0469    1.2476 C   0  0  0  0  0  0  0  0  0  0  0  0
    1.9044  -15.4039    1.0971 N   0  0  0  0  0  0  0  0  0  0  0  0
    0.8553  -14.3498    3.3265 C   0  0  0  0  0  0  0  0  0  0  0  0
    0.9486  -15.7398    3.0739 C   0  0  0  0  0  0  0  0  0  0  0  0
    1.4778  -16.2383    1.9527 C   0  0  0  0  0  0  0  0  0  0  0  0
    0.8977  -11.5370    0.5682 C   0  0  0  0  0  0  0  0  0  0  0  0
    0.8237  -10.7853   -0.4332 O   0  0  0  0  0  0  0  0  0  0  0  0
   -0.0818  -12.5965    0.4296 O   0  0  0  0  0  0  0  0  0  0  0  0
    0.3267  -16.6342    4.1033 C   0  0  0  0  0  0  0  0  0  0  0  0
    1.6251  -17.5816    1.6677 C   0  0  0  0  0  0  0  0  0  0  0  0
  1  2  1  0
  2  3  2  3
  3  4  1  0
  4  5  1  6
  1  6  1  0
  5  7  1  0
  4 13  1  0
 13 14  2  0
 13 15  1  0
 11 16  1  0
 12 17  1  0
  7  8  2  0
  8  9  1  0
  9 12  2  0
 11 12  1  0
 10 11  2  0
  7 10  1  0
M  END

$$$$
No_4387-/export/home/yangzhenyu/potential_scad_32_flow//YTHDC2/2024-12-06-03-22-00/
     RDKit          3D

 19 19  0  0  1  0  0  0  0  0999 V2000
    1.1787   -8.0297    3.5154 C   0  0  0  0  0  0  0  0  0  0  0  0
    1.1048   -9.2215    3.2892 C   0  0  0  0  0  0  0  0  0  0  0  0
    1.2339   -9.7611    2.0189 C   0  0  0  0  0  0  0  0  0  0  0  0
    1.3583   -9.0036    0.9764 C   0  0  0  0  0  0  0  0  0  0  0  0
    1.5996   -7.6362    1.1311 C   0  0  0  0  0  0  0  0  0  0  0  0
    1.4830   -7.0928    2.3626 C   0  0  0  0  0  0  0  0  0  0  0  0
    1.4898   -5.7274    2.6199 C   0  0  0  0  0  0  0  0  0  0  0  0
    1.1882  -11.3736    1.8424 C   0  0  0  0  0  0  0  0  0  0  0  0
    0.2883  -11.9819    2.0702 C   0  0  0  0  0  0  0  0  0  0  0  0
   -0.9572  -11.5102    2.7181 C   0  0  0  0  0  0  0  0  0  0  0  0
    0.3022  -13.4688    1.8359 C   0  0  0  0  0  0  0  0  0  0  0  0
    1.3249  -14.1478    2.3486 C   0  0  0  0  0  0  0  0  0  0  0  0
    1.4448  -14.5278    3.5587 C   0  0  0  0  0  0  0  0  0  0  0  0
    1.6908   -5.1672    3.8572 N   0  0  0  0  0  0  0  0  0  0  0  0
    1.3419   -4.8471    1.6232 O   0  0  0  0  0  0  0  0  0  0  0  0
    0.7724  -15.8489    3.6978 C   0  0  2  0  0  0  0  0  0  0  0  0
   -0.3346  -16.0060    4.3080 C   0  0  0  0  0  0  0  0  0  0  0  0
    1.6220  -16.9366    3.2440 C   0  0  0  0  0  0  0  0  0  0  0  0
    1.2923  -18.2101    3.6224 C   0  0  0  0  0  0  0  0  0  0  0  0
  6  7  1  0
  3  8  1  0
  8  9  2  3
  9 10  1  0
  9 11  1  0
 11 12  1  0
 12 13  1  0
  7 14  1  0
  7 15  2  0
 13 16  1  0
 16 17  1  1
 16 18  1  0
 18 19  2  0
  1  2  2  0
  2  3  1  0
  3  4  2  0
  4  5  1  0
  5  6  2  0
  1  6  1  0
M  END

$$$$
No_4388-/export/home/yangzhenyu/potential_scad_32_flow//YTHDC2/2024-12-06-03-22-00/
     RDKit          3D

 19 20  0  0  1  0  0  0  0  0999 V2000
    1.1787   -8.0297    3.5154 N   0  0  0  0  0  0  0  0  0  0  0  0
    0.8669   -7.0905    2.8589 C   0  0  0  0  0  0  0  0  0  0  0  0
    1.0447   -7.3244    1.4123 C   0  0  0  0  0  0  0  0  0  0  0  0
    1.3942   -8.6358    1.3800 C   0  0  1  0  0  0  0  0  0  0  0  0
    1.8973   -9.2189    0.1308 C   0  0  0  0  0  0  0  0  0  0  0  0
    1.7355   -9.0428    2.5696 C   0  0  2  0  0  0  0  0  0  0  0  0
    2.2590   -8.4521   -0.9202 O   0  0  0  0  0  0  0  0  0  0  0  0
    1.9664  -10.5042   -0.0173 O   0  0  0  0  0  0  0  0  0  0  0  0
    2.0867  -10.2474    2.9449 C   0  0  0  0  0  0  0  0  0  0  0  0
    2.2525  -10.6355    4.2342 C   0  0  0  0  0  0  0  0  0  0  0  0
    2.4387  -11.9614    4.6279 C   0  0  0  0  0  0  0  0  0  0  0  0
    1.1528  -12.7658    4.2244 C   0  0  0  0  0  0  0  0  0  0  0  0
    1.0895  -13.0468    2.8347 C   0  0  1  0  0  0  0  0  0  0  0  0
    1.9686  -13.6944    2.1382 C   0  0  0  0  0  0  0  0  0  0  0  0
    1.7497  -13.8385    0.8276 C   0  0  0  0  0  0  0  0  0  0  0  0
    0.6581  -13.3643    0.2721 C   0  0  0  0  0  0  0  0  0  0  0  0
   -0.3631  -12.8877    0.8941 C   0  0  0  0  0  0  0  0  0  0  0  0
   -0.1248  -12.6068    2.3031 C   0  0  0  0  0  0  0  0  0  0  0  0
   -1.1019  -11.9923    3.0672 O   0  0  0  0  0  0  0  0  0  0  0  0
  1  2  1  0
  2  3  2  0
  3  4  1  0
  4  5  1  6
  1  6  1  0
  4  6  1  0
  5  7  2  0
  5  8  1  0
  6  9  1  1
  9 10  1  0
 10 11  1  0
 11 12  1  0
 13 12  1  1
 13 14  1  0
 15 16  1  0
 13 18  1  0
 17 18  1  0
 18 19  2  0
 14 15  1  0
 16 17  1  0
M  END

$$$$
No_4389-/export/home/yangzhenyu/potential_scad_32_flow//YTHDC2/2024-12-06-03-22-00/
     RDKit          3D

 19 21  0  0  0  0  0  0  0  0999 V2000
    1.1787   -8.0297    3.5154 C   0  0  0  0  0  0  0  0  0  0  0  0
    1.0491   -6.8434    2.9820 C   0  0  0  0  0  0  0  0  0  0  0  0
    0.2462   -8.9560    3.0873 C   0  0  0  0  0  0  0  0  0  0  0  0
    0.3295   -6.5187    1.9069 C   0  0  0  0  0  0  0  0  0  0  0  0
   -0.5260   -8.7862    2.1368 C   0  0  0  0  0  0  0  0  0  0  0  0
   -0.5458   -7.5614    1.5054 C   0  0  0  0  0  0  0  0  0  0  0  0
    0.3663  -10.3301    3.7373 C   0  0  0  0  0  0  0  0  0  0  0  0
   -0.8414  -11.0073    3.8266 C   0  0  0  0  0  0  0  0  0  0  0  0
   -1.8073  -10.7830    2.9067 C   0  0  0  0  0  0  0  0  0  0  0  0
   -1.6751   -9.6316    2.0473 C   0  0  0  0  0  0  0  0  0  0  0  0
    0.3723   -5.1463    1.0710 C   0  0  0  0  0  0  0  0  0  0  0  0
   -0.7248   -4.7247    0.6186 C   0  0  0  0  0  0  0  0  0  0  0  0
   -0.8947   -4.3232   -0.5207 C   0  0  0  0  0  0  0  0  0  0  0  0
   -0.7543   -3.0055   -0.8268 C   0  0  0  0  0  0  0  0  0  0  0  0
   -1.1245   -2.3947   -2.0244 C   0  0  0  0  0  0  0  0  0  0  0  0
   -1.9242   -3.0576   -2.8612 C   0  0  0  0  0  0  0  0  0  0  0  0
   -2.3251   -4.3427   -2.5235 C   0  0  0  0  0  0  0  0  0  0  0  0
   -1.8826   -4.9687   -1.3399 C   0  0  0  0  0  0  0  0  0  0  0  0
   -2.4310   -2.5036   -4.0411 O   0  0  0  0  0  0  0  0  0  0  0  0
  4 11  1  0
 11 12  1  0
 12 13  1  0
 16 19  1  0
  5 10  2  0
  9 10  1  0
  8  9  2  0
  7  8  1  0
  3  7  2  0
 13 14  2  0
 14 15  1  0
 15 16  2  0
 16 17  1  0
 17 18  2  0
 13 18  1  0
  1  2  2  0
  2  4  1  0
  4  6  2  0
  5  6  1  0
  3  5  1  0
  1  3  1  0
M  END

$$$$
No_4390-/export/home/yangzhenyu/potential_scad_32_flow//YTHDC2/2024-12-06-03-22-00/
     RDKit          3D

 19 20  0  0  1  0  0  0  0  0999 V2000
    1.1787   -8.0297    3.5154 C   0  0  0  0  0  0  0  0  0  0  0  0
    1.1048   -9.2215    3.2892 C   0  0  0  0  0  0  0  0  0  0  0  0
    1.3627  -10.1721    4.3044 C   0  0  0  0  0  0  0  0  0  0  0  0
    1.7354  -11.4730    3.9023 C   0  0  0  0  0  0  0  0  0  0  0  0
    1.8080  -11.8127    2.7216 C   0  0  0  0  0  0  0  0  0  0  0  0
    1.5854  -11.0021    1.7249 C   0  0  0  0  0  0  0  0  0  0  0  0
    1.3573   -9.7389    1.9287 C   0  0  0  0  0  0  0  0  0  0  0  0
    1.2865   -8.8078    0.9161 C   0  0  0  0  0  0  0  0  0  0  0  0
    0.9210   -7.5140    1.1674 C   0  0  0  0  0  0  0  0  0  0  0  0
    1.0097   -7.0192    2.4369 C   0  0  0  0  0  0  0  0  0  0  0  0
    2.0228  -13.2586    2.4222 C   0  0  0  0  0  0  0  0  0  0  0  0
    2.3575  -13.7715    1.2631 N   0  0  0  0  0  0  0  0  0  0  0  0
    1.8005  -14.1907    3.3956 O   0  0  0  0  0  0  0  0  0  0  0  0
    0.8130   -5.3909    2.7513 Cl  0  0  0  0  0  0  0  0  0  0  0  0
    1.4418   -9.2016   -0.4160 I   0  0  0  0  0  0  0  0  0  0  0  0
    2.6121  -15.0675    1.1560 C   0  0  1  0  0  0  0  0  0  0  0  0
    3.5043  -15.6649    1.9773 C   0  0  0  0  0  0  0  0  0  0  0  0
    1.6666  -15.7631    0.5067 C   0  0  0  0  0  0  0  0  0  0  0  0
    1.5199  -17.1418    0.7312 S   0  0  0  0  0  0  0  0  0  0  0  0
  5 11  1  0
 11 12  1  0
 11 13  2  0
 10 14  1  0
  8 15  1  0
 12 16  1  0
 16 17  1  1
 16 18  1  0
 18 19  2  0
  1  2  2  0
  7  8  2  0
  8  9  1  0
  9 10  2  0
  1 10  1  0
  2  3  1  0
  3  4  2  0
  4  5  1  0
  5  6  2  0
  6  7  1  0
  2  7  1  0
M  END

$$$$
No_4391-/export/home/yangzhenyu/potential_scad_32_flow//YTHDC2/2024-12-06-03-22-00/
     RDKit          3D

 20 21  0  0  1  0  0  0  0  0999 V2000
    1.1787   -8.0297    3.5154 C   0  0  0  0  0  0  0  0  0  0  0  0
    1.0491   -6.8434    2.9820 C   0  0  0  0  0  0  0  0  0  0  0  0
    0.9905   -9.0774    2.6527 C   0  0  0  0  0  0  0  0  0  0  0  0
    0.7897   -8.9519    1.3691 C   0  0  0  0  0  0  0  0  0  0  0  0
    0.7018   -7.7198    0.7892 C   0  0  0  0  0  0  0  0  0  0  0  0
    0.8918   -6.5957    1.6117 C   0  0  0  0  0  0  0  0  0  0  0  0
    1.0711  -10.4814    3.2282 C   0  0  2  0  0  0  0  0  0  0  0  0
    2.1432  -11.0138    3.5962 C   0  0  0  0  0  0  0  0  0  0  0  0
   -0.0553  -11.2345    3.2841 C   0  0  0  0  0  0  0  0  0  0  0  0
   -1.2156  -10.5474    3.8659 C   0  0  0  0  0  0  0  0  0  0  0  0
   -2.4298  -10.5507    3.5126 C   0  0  0  0  0  0  0  0  0  0  0  0
   -2.7367  -11.5737    2.7091 C   0  0  0  0  0  0  0  0  0  0  0  0
   -1.7753  -12.3128    2.0548 C   0  0  0  0  0  0  0  0  0  0  0  0
   -0.4511  -12.1275    2.3307 C   0  0  0  0  0  0  0  0  0  0  0  0
    0.9011   -5.2937    1.0853 I   0  0  0  0  0  0  0  0  0  0  0  0
    2.1850  -11.7260    4.8699 O   0  0  0  0  0  0  0  0  0  0  0  0
   -4.0700  -11.9228    2.3542 F   0  0  0  0  0  0  0  0  0  0  0  0
    0.5390  -12.7382    1.5841 C   0  0  0  0  0  0  0  0  0  0  0  0
    1.1551  -13.9437    2.0658 O   0  0  0  0  0  0  0  0  0  0  0  0
    1.5633  -12.0015    0.9924 O   0  0  0  0  0  0  0  0  0  0  0  0
  3  7  1  0
  7  8  1  6
  7  9  1  0
  6 15  1  0
  8 16  2  0
 12 17  1  0
 14 18  1  0
 18 19  1  0
 18 20  2  0
  1  2  2  0
  2  6  1  0
  5  6  2  0
  4  5  1  0
  3  4  2  0
  1  3  1  0
  9 10  2  0
 10 11  1  0
 11 12  2  0
 12 13  1  0
 13 14  2  0
  9 14  1  0
M  END

$$$$
No_4392-/export/home/yangzhenyu/potential_scad_32_flow//YTHDC2/2024-12-06-03-22-00/
     RDKit          3D

 19 19  0  0  0  0  0  0  0  0999 V2000
    1.1787   -8.0297    3.5154 C   0  0  0  0  0  0  0  0  0  0  0  0
    1.1048   -9.2215    3.2892 C   0  0  0  0  0  0  0  0  0  0  0  0
    1.2339   -9.7611    2.0189 C   0  0  0  0  0  0  0  0  0  0  0  0
    1.3583   -9.0036    0.9764 C   0  0  0  0  0  0  0  0  0  0  0  0
    1.7077   -9.6100   -0.3010 C   0  0  0  0  0  0  0  0  0  0  0  0
    1.3637   -7.1087    2.3226 C   0  0  0  0  0  0  0  0  0  0  0  0
    1.4257   -7.6645    1.0231 C   0  0  0  0  0  0  0  0  0  0  0  0
    1.6722  -10.7840   -0.4044 O   0  0  0  0  0  0  0  0  0  0  0  0
    1.4862   -8.9147   -1.4018 N   0  0  0  0  0  0  0  0  0  0  0  0
    1.1522  -10.1801    4.3889 Cl  0  0  0  0  0  0  0  0  0  0  0  0
    1.3147   -5.5862    2.5363 C   0  0  0  0  0  0  0  0  0  0  0  0
    0.9846   -4.8171    1.5729 O   0  0  0  0  0  0  0  0  0  0  0  0
    1.7060   -5.1079    3.6839 O   0  0  0  0  0  0  0  0  0  0  0  0
    1.3198  -11.1522    1.9556 C   0  0  0  0  0  0  0  0  0  0  0  0
    0.3450  -12.0832    1.8058 C   0  0  0  0  0  0  0  0  0  0  0  0
    0.5175  -13.4553    1.7425 C   0  0  0  0  0  0  0  0  0  0  0  0
   -0.4122  -14.2152    1.4091 C   0  0  0  0  0  0  0  0  0  0  0  0
   -1.6871  -13.8526    1.3248 C   0  0  0  0  0  0  0  0  0  0  0  0
   -1.9984  -12.5219    1.4434 C   0  0  0  0  0  0  0  0  0  0  0  0
  4  5  1  0
  5  8  2  0
  5  9  1  0
  2 10  1  0
  6 11  1  0
 11 12  1  0
 11 13  2  0
  3 14  1  0
 14 15  1  0
 15 16  1  0
 16 17  2  3
 17 18  1  0
 18 19  2  0
  1  2  2  0
  2  3  1  0
  3  4  2  0
  4  7  1  0
  6  7  2  0
  1  6  1  0
M  END

$$$$
No_4393-/export/home/yangzhenyu/potential_scad_32_flow//YTHDC2/2024-12-06-03-22-00/
     RDKit          3D

 18 19  0  0  1  0  0  0  0  0999 V2000
    1.1787   -8.0297    3.5154 C   0  0  0  0  0  0  0  0  0  0  0  0
    1.0491   -6.8434    2.9820 C   0  0  0  0  0  0  0  0  0  0  0  0
    1.9985   -8.9840    2.8958 C   0  0  2  0  0  0  0  0  0  0  0  0
    1.7297   -9.2108    1.6335 C   0  0  0  0  0  0  0  0  0  0  0  0
    1.7343   -8.0566    0.8408 C   0  0  0  0  0  0  0  0  0  0  0  0
    1.0269   -6.8892    1.4456 C   0  0  0  0  0  0  0  0  0  0  0  0
    2.0740   -7.9416   -0.3682 O   0  0  0  0  0  0  0  0  0  0  0  0
    1.9646  -10.3580    3.5767 C   0  0  0  0  0  0  0  0  0  0  0  0
    1.1665  -11.3332    3.3170 N   0  0  0  0  0  0  0  0  0  0  0  0
    1.4249  -12.6072    3.4921 C   0  0  0  0  0  0  0  0  0  0  0  0
    0.4077  -13.5155    2.9354 C   0  0  0  0  0  0  0  0  0  0  0  0
    0.5570  -13.9029    1.9807 C   0  0  2  0  0  0  0  0  0  0  0  0
   -0.2931  -13.6976    0.9882 C   0  0  0  0  0  0  0  0  0  0  0  0
   -0.5641  -14.4571   -0.0789 C   0  0  0  0  0  0  0  0  0  0  0  0
    0.2723  -15.5353   -0.3403 C   0  0  0  0  0  0  0  0  0  0  0  0
    1.3521  -15.1412    1.7468 C   0  0  0  0  0  0  0  0  0  0  0  0
    1.1300  -15.9304    0.6282 C   0  0  0  0  0  0  0  0  0  0  0  0
    2.3791  -15.3771    2.5944 O   0  0  0  0  0  0  0  0  0  0  0  0
  1  2  1  0
  1  3  1  0
  3  4  1  0
  4  5  1  0
  2  6  1  0
  5  6  1  0
  5  7  2  0
  3  8  1  1
  8  9  1  0
  9 10  1  0
 10 11  1  0
 12 11  1  1
 12 13  1  0
 14 15  1  0
 12 16  1  0
 16 17  1  0
 16 18  2  0
 13 14  1  0
 15 17  1  0
M  END

$$$$
No_4394-/export/home/yangzhenyu/potential_scad_32_flow//YTHDC2/2024-12-06-03-22-00/
     RDKit          3D

 19 19  0  0  0  0  0  0  0  0999 V2000
    1.1787   -8.0297    3.5154 C   0  0  0  0  0  0  0  0  0  0  0  0
    1.0491   -6.8434    2.9820 C   0  0  0  0  0  0  0  0  0  0  0  0
    1.9985   -8.9840    2.8958 C   0  0  0  0  0  0  0  0  0  0  0  0
    1.1814  -10.1889    2.5497 C   0  0  0  0  0  0  0  0  0  0  0  0
    0.3496  -10.1352    1.6537 C   0  0  0  0  0  0  0  0  0  0  0  0
   -0.8355  -10.5689    1.8958 C   0  0  0  0  0  0  0  0  0  0  0  0
   -1.0417  -11.4150    2.9972 C   0  0  0  0  0  0  0  0  0  0  0  0
    0.0974  -11.7237    3.8799 C   0  0  0  0  0  0  0  0  0  0  0  0
    1.2333  -10.9395    3.7501 C   0  0  0  0  0  0  0  0  0  0  0  0
    1.7731   -5.7931    3.0567 C   0  0  0  0  0  0  0  0  0  0  0  0
    1.1116   -4.5302    3.1418 C   0  0  0  0  0  0  0  0  0  0  0  0
    2.3220  -11.1640    4.4741 C   0  0  0  0  0  0  0  0  0  0  0  0
    0.8363   -3.9960    4.2563 C   0  0  0  0  0  0  0  0  0  0  0  0
    1.3835   -2.7671    4.6057 C   0  0  0  0  0  0  0  0  0  0  0  0
    0.4220   -9.2114    0.4934 C   0  0  0  0  0  0  0  0  0  0  0  0
    1.6324   -9.0497   -0.1703 C   0  0  0  0  0  0  0  0  0  0  0  0
    1.9492   -7.9318   -0.7548 O   0  0  0  0  0  0  0  0  0  0  0  0
    2.5578  -10.0190   -0.0648 O   0  0  0  0  0  0  0  0  0  0  0  0
    2.2991   -2.2223    3.7582 C   0  0  0  0  0  0  0  0  0  0  0  0
  1  2  1  0
  1  3  1  0
  3  4  1  0
  2 10  1  0
 10 11  1  0
  9 12  1  0
 11 13  1  0
 13 14  1  0
  5 15  1  0
 15 16  1  0
 16 17  1  0
 16 18  2  0
 14 19  1  0
  4  5  2  0
  5  6  1  0
  6  7  2  0
  7  8  1  0
  8  9  2  0
  4  9  1  0
M  END

$$$$
No_4395-/export/home/yangzhenyu/potential_scad_32_flow//YTHDC2/2024-12-06-03-22-00/
     RDKit          3D

 19 20  0  0  1  0  0  0  0  0999 V2000
    1.1787   -8.0297    3.5154 C   0  0  0  0  0  0  0  0  0  0  0  0
    1.0491   -6.8434    2.9820 N   0  0  0  0  0  0  0  0  0  0  0  0
    2.0155   -8.9614    2.9776 C   0  0  0  0  0  0  0  0  0  0  0  0
    1.9967   -9.1783    1.7307 C   0  0  2  0  0  0  0  0  0  0  0  0
    2.6229  -10.4409    1.2711 C   0  0  0  0  0  0  0  0  0  0  0  0
    1.5138   -8.3046    0.7974 C   0  0  0  0  0  0  0  0  0  0  0  0
    1.5531   -8.5665   -0.5113 C   0  0  0  0  0  0  0  0  0  0  0  0
    0.9537   -7.0172    1.4365 C   0  0  0  0  0  0  0  0  0  0  0  0
    2.1638  -11.5443    1.8092 O   0  0  0  0  0  0  0  0  0  0  0  0
    2.7331   -8.4642   -1.1778 O   0  0  0  0  0  0  0  0  0  0  0  0
    0.5353   -8.5394   -1.3676 O   0  0  0  0  0  0  0  0  0  0  0  0
    1.6516  -12.6563    0.9985 C   0  0  0  0  0  0  0  0  0  0  0  0
    0.4664   -6.0315    0.8407 O   0  0  0  0  0  0  0  0  0  0  0  0
    0.6530  -13.3185    1.6105 C   0  0  0  0  0  0  0  0  0  0  0  0
    0.5660  -13.8824    2.5648 C   0  0  0  0  0  0  0  0  0  0  0  0
   -0.3549  -14.8862    2.8663 C   0  0  0  0  0  0  0  0  0  0  0  0
   -1.3858  -15.1059    2.1448 C   0  0  0  0  0  0  0  0  0  0  0  0
   -1.5275  -14.4601    1.0496 C   0  0  0  0  0  0  0  0  0  0  0  0
   -0.4712  -13.5383    0.5869 C   0  0  0  0  0  0  0  0  0  0  0  0
  1  2  1  0
  1  3  1  0
  4  5  1  6
  4  6  1  0
  6  7  1  0
  2  8  1  0
  6  8  1  0
  5  9  1  0
  7 10  2  0
  7 11  1  0
  9 12  1  0
  8 13  2  0
 12 14  1  0
  3  4  1  0
 14 15  2  0
 15 16  1  0
 16 17  2  0
 17 18  1  0
 18 19  2  0
 14 19  1  0
M  END

$$$$
No_4396-/export/home/yangzhenyu/potential_scad_32_flow//YTHDC2/2024-12-06-03-22-00/
     RDKit          3D

 19 20  0  0  0  0  0  0  0  0999 V2000
    1.1787   -8.0297    3.5154 C   0  0  0  0  0  0  0  0  0  0  0  0
    1.1048   -9.2215    3.2892 C   0  0  0  0  0  0  0  0  0  0  0  0
    1.2339   -9.7611    2.0189 C   0  0  0  0  0  0  0  0  0  0  0  0
    1.3583   -9.0036    0.9764 C   0  0  0  0  0  0  0  0  0  0  0  0
    1.5996   -7.6362    1.1311 C   0  0  0  0  0  0  0  0  0  0  0  0
    1.4830   -7.0928    2.3626 C   0  0  0  0  0  0  0  0  0  0  0  0
    1.4898   -5.7274    2.6199 C   0  0  0  0  0  0  0  0  0  0  0  0
    1.1681  -11.2222    1.8390 C   0  0  0  0  0  0  0  0  0  0  0  0
    0.5014  -11.9760    2.2068 C   0  0  0  0  0  0  0  0  0  0  0  0
    0.4167  -13.3685    2.0527 C   0  0  0  0  0  0  0  0  0  0  0  0
   -0.6161  -14.0718    1.8701 C   0  0  0  0  0  0  0  0  0  0  0  0
   -0.5561  -15.5453    1.8466 C   0  0  0  0  0  0  0  0  0  0  0  0
    0.7310  -16.1377    2.1551 C   0  0  0  0  0  0  0  0  0  0  0  0
    1.8180  -15.4300    2.5124 C   0  0  0  0  0  0  0  0  0  0  0  0
    1.7507  -14.0019    2.4628 C   0  0  0  0  0  0  0  0  0  0  0  0
    0.6670   -4.9772    2.7273 O   0  0  0  0  0  0  0  0  0  0  0  0
    0.8966  -17.7168    2.2775 O   0  0  0  0  0  0  0  0  0  0  0  0
    2.1641  -18.0806    2.5262 C   0  0  0  0  0  0  0  0  0  0  0  0
    1.5578   -9.5018   -0.5061 C   0  0  0  0  0  0  0  0  0  0  0  0
  6  7  1  0
  3  8  1  0
  8  9  2  3
  9 10  1  0
  7 16  2  0
 13 17  1  0
 17 18  1  0
  4 19  1  0
  1  2  2  0
  2  3  1  0
  3  4  2  0
  4  5  1  0
  5  6  2  0
  1  6  1  0
 10 11  2  0
 11 12  1  0
 12 13  2  0
 13 14  1  0
 14 15  2  0
 10 15  1  0
M  END

$$$$
No_4397-/export/home/yangzhenyu/potential_scad_32_flow//YTHDC2/2024-12-06-03-22-00/
     RDKit          3D

 18 18  0  0  1  0  0  0  0  0999 V2000
    1.1787   -8.0297    3.5154 C   0  0  0  0  0  0  0  0  0  0  0  0
    1.0491   -6.8434    2.9820 C   0  0  0  0  0  0  0  0  0  0  0  0
    1.9985   -8.9840    2.8958 C   0  0  0  0  0  0  0  0  0  0  0  0
    1.1814  -10.1889    2.5497 C   0  0  2  0  0  0  0  0  0  0  0  0
    0.9817  -11.1388    2.8134 C   0  0  2  0  0  0  0  0  0  0  0  0
    1.6854  -11.5768    4.1035 C   0  0  0  0  0  0  0  0  0  0  0  0
    1.3832   -6.6295    1.8080 C   0  0  0  0  0  0  0  0  0  0  0  0
    1.6311   -7.4361    0.8932 N   0  0  0  0  0  0  0  0  0  0  0  0
    0.9788   -5.2517    1.2263 O   0  0  0  0  0  0  0  0  0  0  0  0
    1.0591  -12.2944    1.9878 C   0  0  0  0  0  0  0  0  0  0  0  0
    0.8508  -12.1274    0.7444 O   0  0  0  0  0  0  0  0  0  0  0  0
    0.6977  -13.6377    2.4183 N   0  0  0  0  0  0  0  0  0  0  0  0
    0.8583  -14.5931    1.9667 C   0  0  0  0  0  0  0  0  0  0  0  0
    2.2785  -15.2479    2.0923 C   0  0  0  0  0  0  0  0  0  0  0  0
    2.5843  -16.5161    1.9310 O   0  0  0  0  0  0  0  0  0  0  0  0
    3.2938  -14.4448    2.2995 O   0  0  0  0  0  0  0  0  0  0  0  0
    0.6780   -9.7476    1.1631 C   0  0  0  0  0  0  0  0  0  0  0  0
    1.1162   -8.6283    0.1335 C   0  0  0  0  0  0  0  0  0  0  0  0
  1  2  1  0
  1  3  1  0
  4  3  1  6
  4  5  1  0
  5  6  1  1
  2  7  1  0
  7  8  1  0
  7  9  2  0
  5 10  1  0
 10 11  2  0
 10 12  1  0
 12 13  1  0
 13 14  1  0
 14 15  2  0
 14 16  1  0
  4 17  1  0
  8 18  1  0
 17 18  1  0
M  END

$$$$
No_4398-/export/home/yangzhenyu/potential_scad_32_flow//YTHDC2/2024-12-06-03-22-00/
     RDKit          3D

 17 17  0  0  1  0  0  0  0  0999 V2000
    1.1787   -8.0297    3.5154 Cl  0  0  0  0  0  0  0  0  0  0  0  0
    0.6122   -7.9650    2.5747 C   0  0  2  0  0  0  0  0  0  0  0  0
    0.4809   -9.1882    1.8138 C   0  0  0  0  0  0  0  0  0  0  0  0
    0.7467  -10.3320    2.4096 C   0  0  0  0  0  0  0  0  0  0  0  0
    0.5573  -11.4169    1.6406 C   0  0  0  0  0  0  0  0  0  0  0  0
    0.2362  -11.5476    0.3779 C   0  0  0  0  0  0  0  0  0  0  0  0
   -0.0649  -10.3312   -0.2851 C   0  0  0  0  0  0  0  0  0  0  0  0
    0.0600   -9.1113    0.4830 C   0  0  0  0  0  0  0  0  0  0  0  0
    0.1256   -6.7823    2.0531 C   0  0  0  0  0  0  0  0  0  0  0  0
    0.9965   -5.9122    1.3527 C   0  0  0  0  0  0  0  0  0  0  0  0
    0.5454   -4.5562    1.1857 O   0  0  0  0  0  0  0  0  0  0  0  0
    0.9063  -12.9528    2.3910 C   0  0  1  0  0  0  0  0  0  0  0  0
    1.8587  -13.0594    3.1313 C   0  0  0  0  0  0  0  0  0  0  0  0
   -0.1151  -13.8702    2.3519 C   0  0  0  0  0  0  0  0  0  0  0  0
   -1.3610  -13.7530    2.3236 C   0  0  0  0  0  0  0  0  0  0  0  0
   -2.2572  -14.7644    2.2682 O   0  0  0  0  0  0  0  0  0  0  0  0
   -1.9755  -12.4917    2.4718 O   0  0  0  0  0  0  0  0  0  0  0  0
  2  1  1  6
  2  3  1  0
  2  9  1  0
  9 10  1  0
 10 11  1  0
  5 12  1  0
 12 13  1  1
 12 14  1  0
 14 15  1  0
 15 16  2  0
 15 17  1  0
  3  4  2  0
  4  5  1  0
  5  6  2  0
  6  7  1  0
  7  8  2  0
  3  8  1  0
M  END

$$$$
No_4399-/export/home/yangzhenyu/potential_scad_32_flow//YTHDC2/2024-12-06-03-22-00/
     RDKit          3D

 16 16  0  0  1  0  0  0  0  0999 V2000
    1.1787   -8.0297    3.5154 C   0  0  0  0  0  0  0  0  0  0  0  0
    1.1048   -9.2215    3.2892 C   0  0  0  0  0  0  0  0  0  0  0  0
    1.2339   -9.7611    2.0189 C   0  0  0  0  0  0  0  0  0  0  0  0
    1.3583   -9.0036    0.9764 C   0  0  0  0  0  0  0  0  0  0  0  0
    1.5996   -7.6362    1.1311 C   0  0  0  0  0  0  0  0  0  0  0  0
    1.4830   -7.0928    2.3626 C   0  0  0  0  0  0  0  0  0  0  0  0
    1.5395   -5.7300    2.6182 C   0  0  0  0  0  0  0  0  0  0  0  0
    1.1775  -11.2233    1.8407 C   0  0  0  0  0  0  0  0  0  0  0  0
    0.7252  -11.5870    0.5412 O   0  0  0  0  0  0  0  0  0  0  0  0
    1.6561  -12.0585    2.6191 N   0  0  0  0  0  0  0  0  0  0  0  0
    1.6681  -13.4386    2.3529 C   0  0  2  0  0  0  0  0  0  0  0  0
    2.7136  -14.1523    1.7590 C   0  0  0  0  0  0  0  0  0  0  0  0
    0.4586  -14.0695    2.5397 C   0  0  2  0  0  0  0  0  0  0  0  0
   -0.6563  -13.5564    2.8845 C   0  0  0  0  0  0  0  0  0  0  0  0
    0.6123  -15.5301    2.5071 C   0  0  0  0  0  0  0  0  0  0  0  0
   -0.5797  -16.1747    2.9847 C   0  0  0  0  0  0  0  0  0  0  0  0
  6  7  1  0
  3  8  1  0
  8  9  2  0
  8 10  1  0
 10 11  1  0
 11 12  1  6
 11 13  1  0
 13 14  1  1
 13 15  1  0
 15 16  2  0
  1  2  2  0
  2  3  1  0
  3  4  2  0
  4  5  1  0
  5  6  2  0
  1  6  1  0
M  END

$$$$
No_4400-/export/home/yangzhenyu/potential_scad_32_flow//YTHDC2/2024-12-06-03-22-00/
     RDKit          3D

 17 17  0  0  0  0  0  0  0  0999 V2000
    1.1787   -8.0297    3.5154 N   0  0  0  0  0  0  0  0  0  0  0  0
    1.0818   -9.0751    3.2053 C   0  0  0  0  0  0  0  0  0  0  0  0
    0.7576   -9.3725    1.9159 C   0  0  0  0  0  0  0  0  0  0  0  0
    0.8823   -8.4917    1.0547 C   0  0  0  0  0  0  0  0  0  0  0  0
    1.4631   -7.3107    1.2451 C   0  0  0  0  0  0  0  0  0  0  0  0
    1.6470   -6.9326    2.5669 C   0  0  0  0  0  0  0  0  0  0  0  0
    0.8237  -10.1305    4.2407 C   0  0  0  0  0  0  0  0  0  0  0  0
    1.7644  -11.1125    4.2479 C   0  0  0  0  0  0  0  0  0  0  0  0
    0.8446   -8.8698   -0.4314 C   0  0  0  0  0  0  0  0  0  0  0  0
    1.7120   -8.8126   -1.2544 O   0  0  0  0  0  0  0  0  0  0  0  0
   -0.3402   -9.4623   -0.7863 N   0  0  0  0  0  0  0  0  0  0  0  0
    1.6121  -12.0608    3.3214 C   0  0  0  0  0  0  0  0  0  0  0  0
    0.9002  -13.1244    3.6077 N   0  0  0  0  0  0  0  0  0  0  0  0
    0.0621  -13.5161    2.9277 C   0  0  0  0  0  0  0  0  0  0  0  0
    0.1858  -13.9434    1.9521 O   0  0  0  0  0  0  0  0  0  0  0  0
   -0.9969  -14.3704    3.6334 O   0  0  0  0  0  0  0  0  0  0  0  0
   -0.7040   -9.6762   -2.1305 C   0  0  0  0  0  0  0  0  0  0  0  0
  2  7  1  0
  7  8  1  0
  4  9  1  0
  9 10  2  0
  9 11  1  0
  8 12  1  0
 12 13  1  0
 13 14  1  0
 14 15  2  0
 14 16  1  0
 11 17  1  0
  1  2  2  0
  2  3  1  0
  3  4  2  0
  4  5  1  0
  5  6  2  0
  1  6  1  0
M  END

$$$$
No_4401-/export/home/yangzhenyu/potential_scad_32_flow//YTHDC2/2024-12-06-03-22-00/
     RDKit          3D

 18 18  0  0  0  0  0  0  0  0999 V2000
    1.1787   -8.0297    3.5154 C   0  0  0  0  0  0  0  0  0  0  0  0
    1.1048   -9.2215    3.2892 C   0  0  0  0  0  0  0  0  0  0  0  0
    1.2339   -9.7611    2.0189 C   0  0  0  0  0  0  0  0  0  0  0  0
    1.3583   -9.0036    0.9764 C   0  0  0  0  0  0  0  0  0  0  0  0
    1.7077   -9.6100   -0.3010 C   0  0  0  0  0  0  0  0  0  0  0  0
    1.3637   -7.1087    2.3226 C   0  0  0  0  0  0  0  0  0  0  0  0
    1.4257   -7.6645    1.0231 C   0  0  0  0  0  0  0  0  0  0  0  0
    1.6722  -10.7840   -0.4044 O   0  0  0  0  0  0  0  0  0  0  0  0
    1.4862   -8.9147   -1.4018 O   0  0  0  0  0  0  0  0  0  0  0  0
    1.1383  -10.1804    4.3877 C   0  0  0  0  0  0  0  0  0  0  0  0
    1.9382  -11.5205    4.1144 C   0  0  0  0  0  0  0  0  0  0  0  0
    1.1035  -12.4680    3.4297 C   0  0  0  0  0  0  0  0  0  0  0  0
    1.6773  -13.6839    3.0049 C   0  0  0  0  0  0  0  0  0  0  0  0
    1.9989  -13.8348    1.8296 C   0  0  0  0  0  0  0  0  0  0  0  0
    2.7862  -14.7993    1.3380 O   0  0  0  0  0  0  0  0  0  0  0  0
    1.5213  -13.0544    0.8221 O   0  0  0  0  0  0  0  0  0  0  0  0
    1.2768   -5.6129    2.5492 C   0  0  0  0  0  0  0  0  0  0  0  0
    0.8570   -4.8640    1.5474 P   0  0  0  0  0  0  0  0  0  0  0  0
  4  5  1  0
  5  8  2  0
  5  9  1  0
  2 10  1  0
 10 11  1  0
 11 12  1  0
 12 13  1  0
 13 14  1  0
 14 15  1  0
 14 16  2  0
  6 17  1  0
 17 18  1  0
  1  2  2  0
  2  3  1  0
  3  4  2  0
  4  7  1  0
  6  7  2  0
  1  6  1  0
M  END

$$$$
No_4402-/export/home/yangzhenyu/potential_scad_32_flow//YTHDC2/2024-12-06-03-22-00/
     RDKit          3D

 18 19  0  0  0  0  0  0  0  0999 V2000
    1.1787   -8.0297    3.5154 N   0  0  0  0  0  0  0  0  0  0  0  0
    1.0818   -9.0751    3.2053 C   0  0  0  0  0  0  0  0  0  0  0  0
    1.5216  -10.1164    3.9747 C   0  0  0  0  0  0  0  0  0  0  0  0
    1.4823  -11.4258    3.6006 C   0  0  0  0  0  0  0  0  0  0  0  0
    0.7594  -11.7488    2.5365 C   0  0  0  0  0  0  0  0  0  0  0  0
    0.1233  -10.8366    1.8408 C   0  0  0  0  0  0  0  0  0  0  0  0
    0.4160   -9.5408    2.0369 C   0  0  0  0  0  0  0  0  0  0  0  0
    1.1822   -6.8212    2.7752 C   0  0  0  0  0  0  0  0  0  0  0  0
    1.2615   -7.1230    1.3431 N   0  0  0  0  0  0  0  0  0  0  0  0
    1.5010   -5.4696    3.2089 C   0  0  0  0  0  0  0  0  0  0  0  0
    0.5129  -13.1995    2.3869 C   0  0  0  0  0  0  0  0  0  0  0  0
   -0.7104  -13.7323    2.2245 C   0  0  0  0  0  0  0  0  0  0  0  0
   -0.7650  -15.1804    2.1601 C   0  0  0  0  0  0  0  0  0  0  0  0
    0.3538  -16.0184    2.3637 C   0  0  0  0  0  0  0  0  0  0  0  0
    1.6124  -15.3821    2.6702 C   0  0  0  0  0  0  0  0  0  0  0  0
    1.7253  -14.0090    2.7553 C   0  0  0  0  0  0  0  0  0  0  0  0
    0.2103  -17.3532    2.3934 Cl  0  0  0  0  0  0  0  0  0  0  0  0
    1.1882   -4.4480    2.4302 C   0  0  0  0  0  0  0  0  0  0  0  0
  1  2  1  0
  1  8  2  3
  8  9  1  0
  8 10  1  0
  5 11  1  0
 14 17  1  0
 10 18  2  0
 11 12  2  0
 12 13  1  0
 13 14  2  0
 14 15  1  0
 15 16  2  0
 11 16  1  0
  2  3  2  0
  3  4  1  0
  4  5  2  0
  5  6  1  0
  6  7  2  0
  2  7  1  0
M  END

$$$$
No_4403-/export/home/yangzhenyu/potential_scad_32_flow//YTHDC2/2024-12-06-03-22-00/
     RDKit          3D

 18 19  0  0  0  0  0  0  0  0999 V2000
    1.1787   -8.0297    3.5154 C   0  0  0  0  0  0  0  0  0  0  0  0
    1.1048   -9.2215    3.2892 C   0  0  0  0  0  0  0  0  0  0  0  0
    1.2339   -9.7611    2.0189 C   0  0  0  0  0  0  0  0  0  0  0  0
    1.3583   -9.0036    0.9764 C   0  0  0  0  0  0  0  0  0  0  0  0
    1.5996   -7.6362    1.1311 C   0  0  0  0  0  0  0  0  0  0  0  0
    1.4830   -7.0928    2.3626 C   0  0  0  0  0  0  0  0  0  0  0  0
    1.1008  -11.2372    1.8542 C   0  0  0  0  0  0  0  0  0  0  0  0
    0.5178  -11.9759    2.3445 C   0  0  0  0  0  0  0  0  0  0  0  0
    0.4575  -13.3705    2.1281 C   0  0  0  0  0  0  0  0  0  0  0  0
    1.1632  -14.1013    2.0451 C   0  0  0  0  0  0  0  0  0  0  0  0
    1.0401  -15.5542    1.9840 C   0  0  0  0  0  0  0  0  0  0  0  0
   -0.1527  -16.0372    1.9519 C   0  0  0  0  0  0  0  0  0  0  0  0
   -1.1928  -15.2536    2.0893 C   0  0  0  0  0  0  0  0  0  0  0  0
   -1.0069  -13.8556    2.3031 C   0  0  0  0  0  0  0  0  0  0  0  0
    1.5633   -9.4040   -0.3599 Cl  0  0  0  0  0  0  0  0  0  0  0  0
    1.5115   -5.6216    2.5990 Cl  0  0  0  0  0  0  0  0  0  0  0  0
   -0.4443  -17.4330    1.8660 C   0  0  0  0  0  0  0  0  0  0  0  0
   -0.1002  -18.2380    2.9316 C   0  0  0  0  0  0  0  0  0  0  0  0
  3  7  1  0
  7  8  2  3
  8  9  1  0
  4 15  1  0
  6 16  1  0
 12 17  1  0
 17 18  2  0
  1  2  2  0
  2  3  1  0
  3  4  2  0
  4  5  1  0
  5  6  2  0
  1  6  1  0
  9 10  2  0
 10 11  1  0
 11 12  2  0
 12 13  1  0
 13 14  2  0
  9 14  1  0
M  END

$$$$
No_4404-/export/home/yangzhenyu/potential_scad_32_flow//YTHDC2/2024-12-06-03-22-00/
     RDKit          3D

 19 19  0  0  1  0  0  0  0  0999 V2000
    1.1787   -8.0297    3.5154 C   0  0  0  0  0  0  0  0  0  0  0  0
    1.1048   -9.2215    3.2892 C   0  0  0  0  0  0  0  0  0  0  0  0
    1.2339   -9.7611    2.0189 C   0  0  0  0  0  0  0  0  0  0  0  0
    1.3583   -9.0036    0.9764 C   0  0  0  0  0  0  0  0  0  0  0  0
    1.5996   -7.6362    1.1311 C   0  0  0  0  0  0  0  0  0  0  0  0
    1.4830   -7.0928    2.3626 C   0  0  0  0  0  0  0  0  0  0  0  0
    1.1008  -11.2372    1.8542 C   0  0  0  0  0  0  0  0  0  0  0  0
    1.9749  -12.0938    2.2342 C   0  0  0  0  0  0  0  0  0  0  0  0
    1.5180  -13.3509    2.5910 C   0  0  0  0  0  0  0  0  0  0  0  0
    2.0215  -14.5416    2.0368 C   0  0  1  0  0  0  0  0  0  0  0  0
    3.0544  -14.4977    1.2713 C   0  0  0  0  0  0  0  0  0  0  0  0
    1.5572  -15.7494    2.5918 C   0  0  0  0  0  0  0  0  0  0  0  0
    2.1917  -16.9405    2.3257 O   0  0  0  0  0  0  0  0  0  0  0  0
    0.5116  -15.9222    3.4696 C   0  0  0  0  0  0  0  0  0  0  0  0
    1.5330   -5.6494    2.6454 O   0  0  0  0  0  0  0  0  0  0  0  0
    1.5239   -9.4136   -0.3712 C   0  0  0  0  0  0  0  0  0  0  0  0
    2.4951   -9.8611   -0.7254 O   0  0  0  0  0  0  0  0  0  0  0  0
    0.5015   -9.0946   -1.2225 O   0  0  0  0  0  0  0  0  0  0  0  0
   -0.6451  -15.8802    3.1581 C   0  0  0  0  0  0  0  0  0  0  0  0
  3  7  1  0
  7  8  1  0
  8  9  1  0
  9 10  1  0
 10 11  1  1
 10 12  1  0
 12 13  2  0
 12 14  1  0
  6 15  1  0
  4 16  1  0
 16 17  2  0
 16 18  1  0
 14 19  1  0
  1  2  2  0
  2  3  1  0
  3  4  2  0
  4  5  1  0
  5  6  2  0
  1  6  1  0
M  END

$$$$
No_4405-/export/home/yangzhenyu/potential_scad_32_flow//YTHDC2/2024-12-06-03-22-00/
     RDKit          3D

 18 19  0  0  0  0  0  0  0  0999 V2000
    1.1787   -8.0297    3.5154 C   0  0  0  0  0  0  0  0  0  0  0  0
    1.0491   -6.8434    2.9820 C   0  0  0  0  0  0  0  0  0  0  0  0
    0.9905   -9.0774    2.6527 C   0  0  0  0  0  0  0  0  0  0  0  0
    0.7897   -8.9519    1.3691 C   0  0  0  0  0  0  0  0  0  0  0  0
    0.7018   -7.7198    0.7892 C   0  0  0  0  0  0  0  0  0  0  0  0
    0.8918   -6.5957    1.6117 C   0  0  0  0  0  0  0  0  0  0  0  0
    1.0711  -10.4814    3.2282 C   0  0  0  0  0  0  0  0  0  0  0  0
    1.1227  -11.5770    2.4616 N   0  0  0  0  0  0  0  0  0  0  0  0
    1.6450  -11.7010    1.5326 C   0  0  0  0  0  0  0  0  0  0  0  0
    1.5161  -12.8828    0.7562 C   0  0  0  0  0  0  0  0  0  0  0  0
    0.5290  -13.6609    1.1321 C   0  0  0  0  0  0  0  0  0  0  0  0
    0.0494  -13.0805    2.3417 C   0  0  0  0  0  0  0  0  0  0  0  0
    1.2846  -10.6522    4.5554 O   0  0  0  0  0  0  0  0  0  0  0  0
    0.8056   -5.3059    1.1278 O   0  0  0  0  0  0  0  0  0  0  0  0
    1.1675   -4.2456    1.9011 C   0  0  0  0  0  0  0  0  0  0  0  0
    0.0970  -14.8596    0.8375 C   0  0  0  0  0  0  0  0  0  0  0  0
    0.6458  -15.9014    1.1418 C   0  0  0  0  0  0  0  0  0  0  0  0
    1.6935  -15.9702    1.9410 C   0  0  0  0  0  0  0  0  0  0  0  0
  3  7  1  0
  7  8  1  0
  8  9  1  0
  9 10  2  0
 10 11  1  0
  8 12  1  0
 11 12  2  0
  7 13  2  0
  6 14  1  0
 14 15  1  0
 11 16  1  0
 16 17  1  0
 17 18  2  0
  1  2  2  0
  2  6  1  0
  5  6  2  0
  4  5  1  0
  3  4  2  0
  1  3  1  0
M  END

$$$$
No_4406-/export/home/yangzhenyu/potential_scad_32_flow//YTHDC2/2024-12-06-03-22-00/
     RDKit          3D

 19 19  0  0  1  0  0  0  0  0999 V2000
    1.1787   -8.0297    3.5154 N   0  0  0  0  0  0  0  0  0  0  0  0
    0.8669   -7.0905    2.8589 C   0  0  0  0  0  0  0  0  0  0  0  0
    1.0447   -7.3244    1.4123 C   0  0  0  0  0  0  0  0  0  0  0  0
    1.3746   -8.4389    1.0864 C   0  0  0  0  0  0  0  0  0  0  0  0
    1.8493   -9.4093    1.8124 C   0  0  0  0  0  0  0  0  0  0  0  0
    1.7421   -9.2119    3.1541 C   0  0  0  0  0  0  0  0  0  0  0  0
    2.0083  -10.3048    4.0591 C   0  0  0  0  0  0  0  0  0  0  0  0
    1.9680  -11.5379    3.8671 C   0  0  0  0  0  0  0  0  0  0  0  0
    1.6912   -8.6815   -0.4035 C   0  0  0  0  0  0  0  0  0  0  0  0
    0.6658   -8.6863   -1.1267 O   0  0  0  0  0  0  0  0  0  0  0  0
    2.8141   -8.7123   -1.0296 O   0  0  0  0  0  0  0  0  0  0  0  0
    1.0231  -12.0972    3.0928 I   0  0  0  0  0  0  0  0  0  0  0  0
    0.4800   -5.7910    3.3601 C   0  0  0  0  0  0  0  0  0  0  0  0
    1.6138   -4.7952    3.4971 C   0  0  0  0  0  0  0  0  0  0  0  0
    1.1069   -3.5217    2.9657 O   0  0  0  0  0  0  0  0  0  0  0  0
    0.8876   -2.6176    3.7345 C   0  0  2  0  0  0  0  0  0  0  0  0
    1.9916   -2.2620    4.3778 C   0  0  0  0  0  0  0  0  0  0  0  0
   -0.1020   -3.1819    4.8854 C   0  0  0  0  0  0  0  0  0  0  0  0
   -1.5230   -3.0148    4.3559 C   0  0  0  0  0  0  0  0  0  0  0  0
  6  7  1  0
  7  8  2  3
  4  9  1  0
  9 10  2  0
  9 11  1  0
  8 12  1  0
  2 13  1  0
 13 14  1  0
 14 15  1  0
 15 16  1  0
 16 17  1  1
 16 18  1  0
 18 19  1  0
  1  2  2  0
  2  3  1  0
  3  4  2  0
  4  5  1  0
  5  6  2  0
  1  6  1  0
M  END

$$$$
No_4407-/export/home/yangzhenyu/potential_scad_32_flow//YTHDC2/2024-12-06-03-22-00/
     RDKit          3D

 18 18  0  0  0  0  0  0  0  0999 V2000
    1.1787   -8.0297    3.5154 C   0  0  0  0  0  0  0  0  0  0  0  0
    1.1048   -9.2215    3.2892 C   0  0  0  0  0  0  0  0  0  0  0  0
    1.3627  -10.1721    4.3044 C   0  0  0  0  0  0  0  0  0  0  0  0
    1.7354  -11.4730    3.9023 C   0  0  0  0  0  0  0  0  0  0  0  0
    1.8080  -11.8127    2.7216 C   0  0  0  0  0  0  0  0  0  0  0  0
    1.5854  -11.0021    1.7249 C   0  0  0  0  0  0  0  0  0  0  0  0
    1.3573   -9.7389    1.9287 C   0  0  0  0  0  0  0  0  0  0  0  0
    1.2865   -8.8078    0.9161 C   0  0  0  0  0  0  0  0  0  0  0  0
    1.6845   -9.1638   -0.2896 C   0  0  0  0  0  0  0  0  0  0  0  0
    1.0768   -8.8580   -1.3382 O   0  0  0  0  0  0  0  0  0  0  0  0
    2.9730   -9.5144   -0.5934 O   0  0  0  0  0  0  0  0  0  0  0  0
    2.0318  -13.2452    2.4010 C   0  0  0  0  0  0  0  0  0  0  0  0
    1.7917  -14.1990    3.2187 O   0  0  0  0  0  0  0  0  0  0  0  0
    3.0263  -13.4985    1.5690 O   0  0  0  0  0  0  0  0  0  0  0  0
    0.0914   -7.2369    3.3396 N   0  0  0  0  0  0  0  0  0  0  0  0
    0.1264   -5.9636    2.7619 C   0  0  0  0  0  0  0  0  0  0  0  0
    1.2656   -5.2931    2.6047 O   0  0  0  0  0  0  0  0  0  0  0  0
   -1.0596   -5.1451    2.6696 C   0  0  0  0  0  0  0  0  0  0  0  0
  1  2  1  0
  7  8  1  0
  8  9  1  0
  9 10  1  0
  9 11  2  0
  5 12  1  0
 12 13  1  0
 12 14  2  0
  1 15  1  0
 15 16  1  0
 16 17  2  0
 16 18  1  0
  2  3  2  0
  3  4  1  0
  4  5  2  0
  5  6  1  0
  6  7  2  0
  2  7  1  0
M  END

$$$$
No_4408-/export/home/yangzhenyu/potential_scad_32_flow//YTHDC2/2024-12-06-03-22-00/
     RDKit          3D

 19 20  0  0  1  0  0  0  0  0999 V2000
    1.1787   -8.0297    3.5154 C   0  0  0  0  0  0  0  0  0  0  0  0
    1.0491   -6.8434    2.9820 C   0  0  0  0  0  0  0  0  0  0  0  0
    0.0950   -8.8404    3.2292 C   0  0  0  0  0  0  0  0  0  0  0  0
   -0.9173   -8.4596    2.5152 C   0  0  0  0  0  0  0  0  0  0  0  0
   -1.0331   -7.2162    2.0653 C   0  0  0  0  0  0  0  0  0  0  0  0
   -0.0105   -6.3168    2.3081 C   0  0  0  0  0  0  0  0  0  0  0  0
    0.1465  -10.2446    3.6981 C   0  0  0  0  0  0  0  0  0  0  0  0
    1.2433  -10.8239    4.0166 C   0  0  0  0  0  0  0  0  0  0  0  0
    1.0790  -12.2885    4.3778 C   0  0  0  0  0  0  0  0  0  0  0  0
    0.8834  -12.9822    3.2583 C   0  0  2  0  0  0  0  0  0  0  0  0
    0.9855  -14.4349    3.3223 C   0  0  0  0  0  0  0  0  0  0  0  0
    0.9707  -15.3487    3.9996 O   0  0  0  0  0  0  0  0  0  0  0  0
    1.4575  -14.8712    1.9433 C   0  0  0  0  0  0  0  0  0  0  0  0
    1.7744  -14.0470    1.0071 C   0  0  0  0  0  0  0  0  0  0  0  0
    1.7018  -12.6472    1.1046 C   0  0  0  0  0  0  0  0  0  0  0  0
    1.2498  -12.0881    2.2197 C   0  0  0  0  0  0  0  0  0  0  0  0
   -0.1234   -5.0604    1.8330 Br  0  0  0  0  0  0  0  0  0  0  0  0
    1.5679  -16.2407    1.6789 C   0  0  0  0  0  0  0  0  0  0  0  0
    2.6007  -16.9415    2.1602 C   0  0  0  0  0  0  0  0  0  0  0  0
  3  7  1  0
  7  8  2  3
  8  9  1  0
 10 11  1  0
 11 12  2  0
 11 13  1  0
 14 15  1  0
 10 16  1  0
 15 16  1  0
  6 17  1  0
 13 18  1  0
 18 19  1  0
 10  9  1  1
 13 14  1  0
  1  2  2  0
  2  6  1  0
  5  6  2  0
  4  5  1  0
  3  4  2  0
  1  3  1  0
M  END

$$$$
No_4409-/export/home/yangzhenyu/potential_scad_32_flow//YTHDC2/2024-12-06-03-22-00/
     RDKit          3D

 19 20  0  0  0  0  0  0  0  0999 V2000
    1.1787   -8.0297    3.5154 C   0  0  0  0  0  0  0  0  0  0  0  0
    1.0491   -6.8434    2.9820 C   0  0  0  0  0  0  0  0  0  0  0  0
    0.0950   -8.8404    3.2292 C   0  0  0  0  0  0  0  0  0  0  0  0
   -0.9173   -8.4596    2.5152 C   0  0  0  0  0  0  0  0  0  0  0  0
   -1.0331   -7.2162    2.0653 C   0  0  0  0  0  0  0  0  0  0  0  0
   -0.0105   -6.3168    2.3081 C   0  0  0  0  0  0  0  0  0  0  0  0
    0.0485   -4.9783    1.8782 C   0  0  0  0  0  0  0  0  0  0  0  0
   -0.6974   -4.6139    0.8644 N   0  0  0  0  0  0  0  0  0  0  0  0
    1.1225   -4.1435    2.1836 O   0  0  0  0  0  0  0  0  0  0  0  0
    0.1681  -10.2798    3.6512 C   0  0  0  0  0  0  0  0  0  0  0  0
   -1.0484  -10.9644    3.7962 C   0  0  0  0  0  0  0  0  0  0  0  0
    1.4188  -10.9514    4.0736 C   0  0  0  0  0  0  0  0  0  0  0  0
    1.4953  -12.2849    4.1458 C   0  0  0  0  0  0  0  0  0  0  0  0
    0.3575  -13.0140    3.9415 C   0  0  0  0  0  0  0  0  0  0  0  0
   -0.9019  -12.3562    3.8314 C   0  0  0  0  0  0  0  0  0  0  0  0
   -0.9486   -3.4491    0.5413 C   0  0  0  0  0  0  0  0  0  0  0  0
   -0.5645   -2.9568   -0.6609 C   0  0  0  0  0  0  0  0  0  0  0  0
   -0.9710   -1.8508   -1.3445 C   0  0  0  0  0  0  0  0  0  0  0  0
   -1.4622   -1.7898   -2.5060 O   0  0  0  0  0  0  0  0  0  0  0  0
  6  7  1  0
  7  8  1  0
  7  9  2  0
  3 10  1  0
  8 16  1  0
 16 17  1  0
 17 18  1  0
 18 19  2  0
 10 11  2  0
 11 15  1  0
 14 15  2  0
 13 14  1  0
 12 13  2  0
 10 12  1  0
  1  2  2  0
  2  6  1  0
  5  6  2  0
  4  5  1  0
  3  4  2  0
  1  3  1  0
M  END

$$$$
No_4410-/export/home/yangzhenyu/potential_scad_32_flow//YTHDC2/2024-12-06-03-22-00/
     RDKit          3D

 19 20  0  0  0  0  0  0  0  0999 V2000
    1.1787   -8.0297    3.5154 C   0  0  0  0  0  0  0  0  0  0  0  0
    1.0491   -6.8434    2.9820 C   0  0  0  0  0  0  0  0  0  0  0  0
    0.0950   -8.8404    3.2292 C   0  0  0  0  0  0  0  0  0  0  0  0
   -0.9173   -8.4596    2.5152 C   0  0  0  0  0  0  0  0  0  0  0  0
   -1.0331   -7.2162    2.0653 C   0  0  0  0  0  0  0  0  0  0  0  0
   -0.0105   -6.3168    2.3081 C   0  0  0  0  0  0  0  0  0  0  0  0
    0.1465  -10.2446    3.6981 C   0  0  0  0  0  0  0  0  0  0  0  0
    1.2433  -10.8239    4.0166 C   0  0  0  0  0  0  0  0  0  0  0  0
    1.0790  -12.2885    4.3779 C   0  0  0  0  0  0  0  0  0  0  0  0
    0.8834  -12.9822    3.2583 C   0  0  0  0  0  0  0  0  0  0  0  0
    0.9855  -14.4349    3.3223 C   0  0  0  0  0  0  0  0  0  0  0  0
    1.2040  -15.2012    2.1256 C   0  0  0  0  0  0  0  0  0  0  0  0
    1.0345  -14.5412    0.9681 C   0  0  0  0  0  0  0  0  0  0  0  0
    0.9442  -13.1796    0.8630 C   0  0  0  0  0  0  0  0  0  0  0  0
    0.8455  -12.3759    1.9692 C   0  0  0  0  0  0  0  0  0  0  0  0
   -0.1271   -5.0771    1.7787 O   0  0  0  0  0  0  0  0  0  0  0  0
   -0.9220   -4.5811    1.0671 C   0  0  0  0  0  0  0  0  0  0  0  0
    1.3669  -16.5708    2.3166 N   0  0  0  0  0  0  0  0  0  0  0  0
    0.5781  -17.5689    1.9080 O   0  0  0  0  0  0  0  0  0  0  0  0
  3  7  1  0
  7  8  2  3
  8  9  1  0
  6 16  1  0
 16 17  1  0
 12 18  1  0
 18 19  2  0
  9 10  1  0
  1  2  2  0
  2  6  1  0
  5  6  2  0
  4  5  1  0
  3  4  2  0
  1  3  1  0
 10 11  2  0
 11 12  1  0
 12 13  2  0
 13 14  1  0
 14 15  2  0
 10 15  1  0
M  END

$$$$
No_4411-/export/home/yangzhenyu/potential_scad_32_flow//YTHDC2/2024-12-06-03-22-00/
     RDKit          3D

 19 20  0  0  1  0  0  0  0  0999 V2000
    1.1787   -8.0297    3.5154 C   0  0  0  0  0  0  0  0  0  0  0  0
    1.1048   -9.2215    3.2892 C   0  0  0  0  0  0  0  0  0  0  0  0
    1.0239   -9.7790    2.0239 C   0  0  2  0  0  0  0  0  0  0  0  0
    1.0632  -11.2393    1.8978 C   0  0  0  0  0  0  0  0  0  0  0  0
    1.2664   -7.1133    2.3309 C   0  0  0  0  0  0  0  0  0  0  0  0
    1.2080   -7.6832    1.0760 C   0  0  0  0  0  0  0  0  0  0  0  0
    1.1535   -8.9837    0.8897 C   0  0  0  0  0  0  0  0  0  0  0  0
    1.5434  -12.1192    2.7356 C   0  0  0  0  0  0  0  0  0  0  0  0
    1.4960  -13.4804    2.4774 C   0  0  0  0  0  0  0  0  0  0  0  0
    0.9784  -14.0090    1.4059 C   0  0  0  0  0  0  0  0  0  0  0  0
    0.5172  -12.7686    0.5874 C   0  0  0  0  0  0  0  0  0  0  0  0
    0.5178  -11.6476    0.7565 C   0  0  0  0  0  0  0  0  0  0  0  0
    1.0329   -9.4165   -0.3766 O   0  0  0  0  0  0  0  0  0  0  0  0
    1.3625   -5.6441    2.5416 Cl  0  0  0  0  0  0  0  0  0  0  0  0
    2.1946  -14.5376    3.6137 Cl  0  0  0  0  0  0  0  0  0  0  0  0
    0.9810  -15.1865    0.9805 O   0  0  0  0  0  0  0  0  0  0  0  0
    0.0202  -15.6870    0.2775 C   0  0  0  0  0  0  0  0  0  0  0  0
   -0.9859  -16.0838    0.9011 C   0  0  0  0  0  0  0  0  0  0  0  0
   -0.7934  -16.9398    1.9556 S   0  0  0  0  0  0  0  0  0  0  0  0
  2  3  1  0
  3  4  1  1
  1  5  1  0
  3  7  1  0
  6  7  1  0
  7 13  2  0
  5 14  1  0
  9 15  1  0
 10 16  1  0
 16 17  1  0
 17 18  1  0
 18 19  1  0
  1  2  1  0
  5  6  1  0
  4  8  2  0
  8  9  1  0
  9 10  2  0
 10 11  1  0
 11 12  2  0
  4 12  1  0
M  END

$$$$
No_4412-/export/home/yangzhenyu/potential_scad_32_flow//YTHDC2/2024-12-06-03-22-00/
     RDKit          3D

 18 19  0  0  1  0  0  0  0  0999 V2000
    1.1787   -8.0297    3.5154 C   0  0  0  0  0  0  0  0  0  0  0  0
    1.0491   -6.8434    2.9820 C   0  0  0  0  0  0  0  0  0  0  0  0
    0.0950   -8.8404    3.2292 C   0  0  0  0  0  0  0  0  0  0  0  0
   -0.9173   -8.4596    2.5152 C   0  0  0  0  0  0  0  0  0  0  0  0
   -1.0331   -7.2162    2.0653 C   0  0  0  0  0  0  0  0  0  0  0  0
   -0.0105   -6.3168    2.3081 C   0  0  0  0  0  0  0  0  0  0  0  0
    0.1150   -4.9910    1.8495 C   0  0  0  0  0  0  0  0  0  0  0  0
   -0.5774   -4.1593    2.0596 O   0  0  0  0  0  0  0  0  0  0  0  0
    1.1226   -4.6805    0.9513 O   0  0  0  0  0  0  0  0  0  0  0  0
    0.1816  -10.2865    3.6380 C   0  0  0  0  0  0  0  0  0  0  0  0
    0.3143  -11.3472    2.7939 N   0  0  0  0  0  0  0  0  0  0  0  0
    0.4739  -12.5831    3.3126 C   0  0  0  0  0  0  0  0  0  0  0  0
    0.0887  -13.6463    2.5790 C   0  0  2  0  0  0  0  0  0  0  0  0
    0.4324  -15.0212    3.2425 O   0  0  0  0  0  0  0  0  0  0  0  0
    0.2515  -16.0683    2.6040 C   0  0  0  0  0  0  0  0  0  0  0  0
   -0.3643  -13.7138    1.4147 C   0  0  0  0  0  0  0  0  0  0  0  0
   -0.9444  -14.6769    0.8093 C   0  0  0  0  0  0  0  0  0  0  0  0
   -0.5053  -16.0102    1.4011 C   0  0  0  0  0  0  0  0  0  0  0  0
  6  7  1  0
  7  8  2  0
  7  9  1  0
  3 10  1  0
 10 11  1  0
 11 12  1  0
 13 12  1  6
 13 14  1  0
 14 15  1  0
 13 16  1  0
 16 17  2  0
 15 18  1  0
 17 18  1  0
  1  2  2  0
  2  6  1  0
  5  6  2  0
  4  5  1  0
  3  4  2  0
  1  3  1  0
M  END

$$$$
No_4413-/export/home/yangzhenyu/potential_scad_32_flow//YTHDC2/2024-12-06-03-22-00/
     RDKit          3D

 17 17  0  0  1  0  0  0  0  0999 V2000
    1.1787   -8.0297    3.5154 C   0  0  0  0  0  0  0  0  0  0  0  0
    1.0491   -6.8434    2.9820 C   0  0  0  0  0  0  0  0  0  0  0  0
    0.2462   -8.9560    3.0873 C   0  0  0  0  0  0  0  0  0  0  0  0
    0.3295   -6.5187    1.9069 C   0  0  0  0  0  0  0  0  0  0  0  0
   -0.5260   -8.7862    2.1368 C   0  0  0  0  0  0  0  0  0  0  0  0
   -0.5458   -7.5614    1.5054 C   0  0  0  0  0  0  0  0  0  0  0  0
    0.3663  -10.3301    3.7373 C   0  0  0  0  0  0  0  0  0  0  0  0
    1.4366  -10.9552    4.0036 C   0  0  0  0  0  0  0  0  0  0  0  0
    1.4341  -12.3582    3.7416 C   0  0  0  0  0  0  0  0  0  0  0  0
    0.5158  -12.4378    2.4872 C   0  0  0  0  0  0  0  0  0  0  0  0
    0.5463  -14.0017    2.2240 C   0  0  2  0  0  0  0  0  0  0  0  0
    1.7932  -14.6867    2.1744 P   0  0  0  0  0  0  0  0  0  0  0  0
    2.9167  -13.8965    2.0807 O   0  0  0  0  0  0  0  0  0  0  0  0
    2.1243  -15.5285    3.5101 O   0  0  0  0  0  0  0  0  0  0  0  0
    0.2757   -5.3121    1.2611 Cl  0  0  0  0  0  0  0  0  0  0  0  0
    1.7039  -15.8187    1.1881 O   0  0  0  0  0  0  0  0  0  0  0  0
   -0.6885  -14.5124    1.9931 C   0  0  0  0  0  0  0  0  0  0  0  0
  3  7  1  0
  7  8  1  0
  8  9  1  0
  9 10  1  0
 10 11  1  0
 11 12  1  0
 12 13  2  0
 12 14  1  0
  4 15  1  0
 12 16  1  0
 11 17  1  6
  1  2  2  0
  2  4  1  0
  4  6  2  0
  5  6  1  0
  3  5  2  0
  1  3  1  0
M  END

$$$$
No_4414-/export/home/yangzhenyu/potential_scad_32_flow//YTHDC2/2024-12-06-03-22-00/
     RDKit          3D

 19 20  0  0  0  0  0  0  0  0999 V2000
    1.1787   -8.0297    3.5154 C   0  0  0  0  0  0  0  0  0  0  0  0
    1.1048   -9.2215    3.2892 C   0  0  0  0  0  0  0  0  0  0  0  0
    1.2339   -9.7611    2.0189 C   0  0  0  0  0  0  0  0  0  0  0  0
    1.3583   -9.0036    0.9764 C   0  0  0  0  0  0  0  0  0  0  0  0
    1.5996   -7.6362    1.1311 C   0  0  0  0  0  0  0  0  0  0  0  0
    1.4830   -7.0928    2.3626 C   0  0  0  0  0  0  0  0  0  0  0  0
    1.5395   -5.7300    2.6182 C   0  0  0  0  0  0  0  0  0  0  0  0
    1.1775  -11.2233    1.8407 C   0  0  0  0  0  0  0  0  0  0  0  0
    0.7252  -11.5870    0.5412 N   0  0  0  0  0  0  0  0  0  0  0  0
    0.8329  -12.0209    2.7657 O   0  0  0  0  0  0  0  0  0  0  0  0
    0.6293   -4.8796    2.7711 O   0  0  0  0  0  0  0  0  0  0  0  0
    0.6358  -13.0245    0.3418 C   0  0  0  0  0  0  0  0  0  0  0  0
   -0.5068  -13.4320   -0.2513 C   0  0  0  0  0  0  0  0  0  0  0  0
   -1.4184  -12.5209   -0.8243 C   0  0  0  0  0  0  0  0  0  0  0  0
   -1.6856  -12.5919   -2.0664 C   0  0  0  0  0  0  0  0  0  0  0  0
   -1.6541  -13.7938   -2.7498 C   0  0  0  0  0  0  0  0  0  0  0  0
   -0.9742  -14.8614   -2.1708 C   0  0  0  0  0  0  0  0  0  0  0  0
   -0.3443  -14.6798   -0.8822 C   0  0  0  0  0  0  0  0  0  0  0  0
   -2.3080  -14.0208   -4.1711 O   0  0  0  0  0  0  0  0  0  0  0  0
  6  7  1  0
  3  8  1  0
  8  9  1  0
  8 10  2  0
  7 11  2  0
  9 12  2  3
 12 13  1  0
 16 19  1  0
  1  2  2  0
  2  3  1  0
  3  4  2  0
  4  5  1  0
  5  6  2  0
  1  6  1  0
 13 14  2  0
 14 15  1  0
 15 16  2  0
 16 17  1  0
 17 18  2  0
 13 18  1  0
M  END

$$$$
No_4415-/export/home/yangzhenyu/potential_scad_32_flow//YTHDC2/2024-12-06-03-22-00/
     RDKit          3D

 17 18  0  0  1  0  0  0  0  0999 V2000
    1.1787   -8.0297    3.5154 O   0  0  0  0  0  0  0  0  0  0  0  0
    0.9969   -8.9689    3.0048 C   0  0  0  0  0  0  0  0  0  0  0  0
    0.9976   -8.9567    1.6341 C   0  0  0  0  0  0  0  0  0  0  0  0
    0.7663   -7.7728    1.0082 C   0  0  2  0  0  0  0  0  0  0  0  0
    1.1468   -6.5619    1.6541 C   0  0  1  0  0  0  0  0  0  0  0  0
    0.8575   -5.3105    0.9942 C   0  0  0  0  0  0  0  0  0  0  0  0
    0.8018  -10.1566    3.6714 C   0  0  0  0  0  0  0  0  0  0  0  0
   -0.3554  -10.6223    3.9694 C   0  0  0  0  0  0  0  0  0  0  0  0
    1.1596   -4.1893    1.9647 C   0  0  0  0  0  0  0  0  0  0  0  0
    1.5212   -4.3985    3.2903 N   0  0  0  0  0  0  0  0  0  0  0  0
    1.5018   -6.1819    3.0744 C   0  0  0  0  0  0  0  0  0  0  0  0
   -0.8594  -11.7999    3.6224 C   0  0  0  0  0  0  0  0  0  0  0  0
    0.0983  -12.8106    3.5654 C   0  0  0  0  0  0  0  0  0  0  0  0
    1.4833  -12.4643    3.3358 C   0  0  0  0  0  0  0  0  0  0  0  0
    1.8084  -11.1253    3.4308 C   0  0  0  0  0  0  0  0  0  0  0  0
    0.1130   -7.7939   -0.0068 C   0  0  0  0  0  0  0  0  0  0  0  0
   -0.4380   -8.5836   -0.5911 N   0  0  0  0  0  0  0  0  0  0  0  0
  1  2  1  0
  2  3  1  0
  4  3  1  1
  4  5  1  0
  5  6  1  0
  2  7  1  0
  6  9  2  0
  9 10  1  0
  5 11  1  1
 10 11  1  0
  4 16  1  0
 16 17  1  0
  7  8  2  0
  8 12  1  0
 12 13  2  0
 13 14  1  0
 14 15  2  0
  7 15  1  0
M  END

$$$$
No_4416-/export/home/yangzhenyu/potential_scad_32_flow//YTHDC2/2024-12-06-03-22-00/
     RDKit          3D

 19 20  0  0  1  0  0  0  0  0999 V2000
    1.1787   -8.0297    3.5154 C   0  0  0  0  0  0  0  0  0  0  0  0
    1.1048   -9.2215    3.2892 C   0  0  0  0  0  0  0  0  0  0  0  0
    1.2339   -9.7611    2.0189 C   0  0  0  0  0  0  0  0  0  0  0  0
    1.3583   -9.0036    0.9764 C   0  0  0  0  0  0  0  0  0  0  0  0
    1.5996   -7.6362    1.1311 C   0  0  0  0  0  0  0  0  0  0  0  0
    1.4830   -7.0928    2.3626 C   0  0  0  0  0  0  0  0  0  0  0  0
    1.4898   -5.7274    2.6199 C   0  0  0  0  0  0  0  0  0  0  0  0
    1.1681  -11.2222    1.8390 C   0  0  2  0  0  0  0  0  0  0  0  0
    1.9047  -12.1147    2.3357 C   0  0  0  0  0  0  0  0  0  0  0  0
    1.6844  -13.4555    2.0602 C   0  0  0  0  0  0  0  0  0  0  0  0
    0.6977  -13.8514    1.3046 C   0  0  0  0  0  0  0  0  0  0  0  0
   -0.1168  -12.9151    0.6554 C   0  0  0  0  0  0  0  0  0  0  0  0
    0.1481  -11.5441    0.9254 C   0  0  0  0  0  0  0  0  0  0  0  0
    0.6713   -4.9864    2.7287 N   0  0  0  0  0  0  0  0  0  0  0  0
   -0.5880   -5.2167    2.3410 C   0  0  0  0  0  0  0  0  0  0  0  0
    0.7959   -3.5490    3.2258 C   0  0  0  0  0  0  0  0  0  0  0  0
   -1.3343   -4.6015    1.9910 Cl  0  0  0  0  0  0  0  0  0  0  0  0
   -0.8774   -6.6355    2.0871 O   0  0  0  0  0  0  0  0  0  0  0  0
   -0.7243  -10.6520    0.3542 O   0  0  0  0  0  0  0  0  0  0  0  0
  6  7  1  0
  8  3  1  6
  8  9  1  0
 10 11  1  0
  8 13  1  0
 12 13  1  0
  7 14  1  0
 14 15  1  0
 14 16  1  0
 15 17  1  0
 15 18  2  0
 13 19  2  0
  9 10  1  0
 11 12  1  0
  1  2  2  0
  2  3  1  0
  3  4  2  0
  4  5  1  0
  5  6  2  0
  1  6  1  0
M  END

$$$$
No_4417-/export/home/yangzhenyu/potential_scad_32_flow//YTHDC2/2024-12-06-03-22-00/
     RDKit          3D

 19 20  0  0  0  0  0  0  0  0999 V2000
    1.1787   -8.0297    3.5154 C   0  0  0  0  0  0  0  0  0  0  0  0
    1.1048   -9.2215    3.2892 C   0  0  0  0  0  0  0  0  0  0  0  0
    1.3627  -10.1721    4.3044 C   0  0  0  0  0  0  0  0  0  0  0  0
    1.7354  -11.4730    3.9023 C   0  0  0  0  0  0  0  0  0  0  0  0
    1.8080  -11.8127    2.7216 C   0  0  0  0  0  0  0  0  0  0  0  0
    1.5854  -11.0021    1.7249 C   0  0  0  0  0  0  0  0  0  0  0  0
    1.3573   -9.7389    1.9287 C   0  0  0  0  0  0  0  0  0  0  0  0
    1.8368   -8.7825    1.1219 C   0  0  0  0  0  0  0  0  0  0  0  0
    1.9725   -7.4028    1.6075 C   0  0  0  0  0  0  0  0  0  0  0  0
    1.5382   -7.0198    2.6259 C   0  0  0  0  0  0  0  0  0  0  0  0
    2.0004  -13.4106    2.2736 O   0  0  0  0  0  0  0  0  0  0  0  0
    1.4673   -5.6267    2.9695 C   0  0  0  0  0  0  0  0  0  0  0  0
    2.1126   -9.1189   -0.2194 C   0  0  0  0  0  0  0  0  0  0  0  0
    2.7550   -9.9566   -0.6047 O   0  0  0  0  0  0  0  0  0  0  0  0
    1.6722   -8.2875   -1.2506 O   0  0  0  0  0  0  0  0  0  0  0  0
    1.7811  -14.3114    3.0232 C   0  0  0  0  0  0  0  0  0  0  0  0
    2.1167  -15.5738    2.4425 C   0  0  0  0  0  0  0  0  0  0  0  0
    1.8678  -16.7589    3.0454 C   0  0  0  0  0  0  0  0  0  0  0  0
    2.5291  -17.9852    2.7828 C   0  0  0  0  0  0  0  0  0  0  0  0
  5 11  1  0
 10 12  1  0
  8 13  1  0
 13 14  2  0
 13 15  1  0
 11 16  1  0
 16 17  1  0
 17 18  1  0
 18 19  2  0
  1  2  2  0
  7  8  2  0
  8  9  1  0
  9 10  2  0
  1 10  1  0
  2  3  1  0
  3  4  2  0
  4  5  1  0
  5  6  2  0
  6  7  1  0
  2  7  1  0
M  END

$$$$
No_4418-/export/home/yangzhenyu/potential_scad_32_flow//YTHDC2/2024-12-06-03-22-00/
     RDKit          3D

 12 12  0  0  0  0  0  0  0  0999 V2000
    1.1787   -8.0297    3.5154 C   0  0  0  0  0  0  0  0  0  0  0  0
    1.1048   -9.2215    3.2892 C   0  0  0  0  0  0  0  0  0  0  0  0
    1.3627  -10.1721    4.3044 C   0  0  0  0  0  0  0  0  0  0  0  0
    1.7354  -11.4730    3.9023 C   0  0  0  0  0  0  0  0  0  0  0  0
    1.8080  -11.8127    2.7216 C   0  0  0  0  0  0  0  0  0  0  0  0
    1.5854  -11.0021    1.7249 C   0  0  0  0  0  0  0  0  0  0  0  0
    1.3573   -9.7389    1.9287 C   0  0  0  0  0  0  0  0  0  0  0  0
    1.1102   -8.8712    0.9017 C   0  0  0  0  0  0  0  0  0  0  0  0
    1.5724   -9.1697   -0.3048 C   0  0  0  0  0  0  0  0  0  0  0  0
    2.5692  -10.0138   -0.6172 I   0  0  0  0  0  0  0  0  0  0  0  0
    2.0458  -13.2324    2.4294 N   0  0  0  0  0  0  0  0  0  0  0  0
    2.0961  -13.8529    1.2809 O   0  0  0  0  0  0  0  0  0  0  0  0
  1  2  1  0
  7  8  1  0
  8  9  2  3
  9 10  1  0
  5 11  1  0
 11 12  2  0
  2  3  2  0
  3  4  1  0
  4  5  2  0
  5  6  1  0
  6  7  2  0
  2  7  1  0
M  END

$$$$
No_4419-/export/home/yangzhenyu/potential_scad_32_flow//YTHDC2/2024-12-06-03-22-00/
     RDKit          3D

 19 21  0  0  1  0  0  0  0  0999 V2000
    1.1787   -8.0297    3.5154 O   0  0  0  0  0  0  0  0  0  0  0  0
    0.9969   -8.9689    3.0048 C   0  0  1  0  0  0  0  0  0  0  0  0
    0.9976   -8.9567    1.6341 C   0  0  2  0  0  0  0  0  0  0  0  0
    1.6062   -9.9071    0.9292 C   0  0  0  0  0  0  0  0  0  0  0  0
    2.1191  -10.9757    1.6503 C   0  0  0  0  0  0  0  0  0  0  0  0
    2.1177  -10.9891    3.0403 C   0  0  0  0  0  0  0  0  0  0  0  0
    1.5441   -9.8905    3.6897 C   0  0  0  0  0  0  0  0  0  0  0  0
    0.5010   -7.8165    1.0436 N   0  0  0  0  0  0  0  0  0  0  0  0
   -0.3147   -7.1869    1.3379 C   0  0  2  0  0  0  0  0  0  0  0  0
   -1.2102   -7.6936    2.2224 C   0  0  0  0  0  0  0  0  0  0  0  0
   -2.2717   -7.4172    2.4630 C   0  0  0  0  0  0  0  0  0  0  0  0
   -3.0469   -8.0149    3.5637 C   0  0  0  0  0  0  0  0  0  0  0  0
   -2.4022   -9.1359    4.1097 C   0  0  0  0  0  0  0  0  0  0  0  0
   -1.2412   -9.5890    3.8032 C   0  0  0  0  0  0  0  0  0  0  0  0
   -0.6082   -9.1231    2.8316 C   0  0  0  0  0  0  0  0  0  0  0  0
    2.6639  -12.0627    3.7005 O   0  0  0  0  0  0  0  0  0  0  0  0
   -0.5876   -6.0064    0.7927 C   0  0  0  0  0  0  0  0  0  0  0  0
    0.0495   -4.8511    1.4376 C   0  0  0  0  0  0  0  0  0  0  0  0
   -0.1884   -3.5421    0.9977 C   0  0  0  0  0  0  0  0  0  0  0  0
  2  1  1  1
  2  3  1  0
  4  5  1  0
  2  7  1  0
  6  7  1  0
  3  8  1  0
  9 10  1  0
  2 15  1  0
  6 16  1  0
  9 17  1  6
 17 18  1  0
 18 19  2  0
  8  9  1  0
  3  4  1  1
  5  6  1  0
 10 11  2  0
 11 12  1  0
 12 13  2  0
 13 14  1  0
 14 15  2  0
 10 15  1  0
M  END

$$$$
No_4420-/export/home/yangzhenyu/potential_scad_32_flow//YTHDC2/2024-12-06-03-22-00/
     RDKit          3D

 19 20  0  0  0  0  0  0  0  0999 V2000
    1.1787   -8.0297    3.5154 C   0  0  0  0  0  0  0  0  0  0  0  0
    1.1048   -9.2215    3.2892 C   0  0  0  0  0  0  0  0  0  0  0  0
    1.2339   -9.7611    2.0189 C   0  0  0  0  0  0  0  0  0  0  0  0
    1.3583   -9.0036    0.9764 C   0  0  0  0  0  0  0  0  0  0  0  0
    1.5996   -7.6362    1.1311 C   0  0  0  0  0  0  0  0  0  0  0  0
    1.4830   -7.0928    2.3626 C   0  0  0  0  0  0  0  0  0  0  0  0
    1.5395   -5.7300    2.6182 C   0  0  0  0  0  0  0  0  0  0  0  0
    1.1775  -11.2233    1.8407 C   0  0  0  0  0  0  0  0  0  0  0  0
    0.5085  -11.9762    2.1989 N   0  0  0  0  0  0  0  0  0  0  0  0
    0.4721  -13.2598    1.9931 N   0  0  0  0  0  0  0  0  0  0  0  0
   -0.4851  -13.9874    2.5106 C   0  0  0  0  0  0  0  0  0  0  0  0
   -1.6606  -13.6088    2.6875 C   0  0  0  0  0  0  0  0  0  0  0  0
   -0.1374  -15.4280    2.9488 C   0  0  0  0  0  0  0  0  0  0  0  0
    1.2125  -15.6315    3.4061 C   0  0  0  0  0  0  0  0  0  0  0  0
    1.3905  -17.0669    3.5713 C   0  0  0  0  0  0  0  0  0  0  0  0
    0.5823  -17.9972    3.4265 C   0  0  0  0  0  0  0  0  0  0  0  0
   -0.6734  -17.6845    2.9378 C   0  0  0  0  0  0  0  0  0  0  0  0
   -0.9864  -16.3744    2.7427 C   0  0  0  0  0  0  0  0  0  0  0  0
    0.6237   -4.8882    2.7712 O   0  0  0  0  0  0  0  0  0  0  0  0
  6  7  1  0
  3  8  1  0
  8  9  2  3
  9 10  1  0
 10 11  1  0
 11 12  1  0
 11 13  1  0
  7 19  1  0
  1  2  2  0
  2  3  1  0
  3  4  2  0
  4  5  1  0
  5  6  2  0
  1  6  1  0
 13 14  2  0
 14 15  1  0
 15 16  2  0
 16 17  1  0
 17 18  2  0
 13 18  1  0
M  END

$$$$
No_4421-/export/home/yangzhenyu/potential_scad_32_flow//YTHDC2/2024-12-06-03-22-00/
     RDKit          3D

 18 18  0  0  0  0  0  0  0  0999 V2000
    1.1787   -8.0297    3.5154 C   0  0  0  0  0  0  0  0  0  0  0  0
    1.1048   -9.2215    3.2892 C   0  0  0  0  0  0  0  0  0  0  0  0
    1.2339   -9.7611    2.0189 C   0  0  0  0  0  0  0  0  0  0  0  0
    1.3583   -9.0036    0.9764 C   0  0  0  0  0  0  0  0  0  0  0  0
    1.5996   -7.6362    1.1311 C   0  0  0  0  0  0  0  0  0  0  0  0
    1.4830   -7.0928    2.3626 C   0  0  0  0  0  0  0  0  0  0  0  0
    1.5395   -5.7300    2.6182 C   0  0  0  0  0  0  0  0  0  0  0  0
    1.1969  -11.3760    1.8433 C   0  0  0  0  0  0  0  0  0  0  0  0
    1.0771  -11.6644    0.5388 O   0  0  0  0  0  0  0  0  0  0  0  0
    1.3881  -12.0946    2.7683 N   0  0  0  0  0  0  0  0  0  0  0  0
    1.4226  -13.4857    2.6586 C   0  0  0  0  0  0  0  0  0  0  0  0
    0.8731  -14.0996    1.8233 C   0  0  0  0  0  0  0  0  0  0  0  0
    1.6714  -14.8879    1.0401 C   0  0  0  0  0  0  0  0  0  0  0  0
    1.0387  -15.5239   -0.0078 O   0  0  0  0  0  0  0  0  0  0  0  0
    2.9717  -14.9041    0.9736 O   0  0  0  0  0  0  0  0  0  0  0  0
    1.2697   -4.8011    1.7081 C   0  0  0  0  0  0  0  0  0  0  0  0
    1.2223   -3.3784    1.9449 C   0  0  0  0  0  0  0  0  0  0  0  0
    2.0165   -2.9306    2.9416 C   0  0  0  0  0  0  0  0  0  0  0  0
  6  7  1  0
  3  8  1  0
  8  9  2  0
  8 10  1  0
 10 11  1  0
 11 12  1  0
 12 13  1  0
 13 14  1  0
 13 15  2  0
  7 16  2  3
 16 17  1  0
 17 18  2  0
  1  2  2  0
  2  3  1  0
  3  4  2  0
  4  5  1  0
  5  6  2  0
  1  6  1  0
M  END

$$$$
No_4422-/export/home/yangzhenyu/potential_scad_32_flow//YTHDC2/2024-12-06-03-22-00/
     RDKit          3D

 20 20  0  0  1  0  0  0  0  0999 V2000
    1.1787   -8.0297    3.5154 C   0  0  0  0  0  0  0  0  0  0  0  0
    1.1048   -9.2215    3.2892 C   0  0  0  0  0  0  0  0  0  0  0  0
    1.2339   -9.7611    2.0189 C   0  0  0  0  0  0  0  0  0  0  0  0
    1.3583   -9.0036    0.9764 C   0  0  0  0  0  0  0  0  0  0  0  0
    1.5996   -7.6362    1.1311 C   0  0  0  0  0  0  0  0  0  0  0  0
    1.4830   -7.0928    2.3626 C   0  0  0  0  0  0  0  0  0  0  0  0
    1.4898   -5.7274    2.6199 C   0  0  0  0  0  0  0  0  0  0  0  0
    1.1681  -11.2222    1.8390 C   0  0  1  0  0  0  0  0  0  0  0  0
    0.7145  -11.5870    0.5424 C   0  0  0  0  0  0  0  0  0  0  0  0
   -0.1922  -10.9837   -0.0791 C   0  0  0  0  0  0  0  0  0  0  0  0
    1.7315  -12.0566    2.7056 C   0  0  0  0  0  0  0  0  0  0  0  0
    0.8589  -12.8979    3.2425 C   0  0  0  0  0  0  0  0  0  0  0  0
    0.3760  -13.9353    2.4502 C   0  0  2  0  0  0  0  0  0  0  0  0
   -0.9542  -14.0357    2.3071 C   0  0  0  0  0  0  0  0  0  0  0  0
   -1.7624  -13.1009    2.7073 C   0  0  0  0  0  0  0  0  0  0  0  0
   -1.4593  -14.6690    1.1684 C   0  0  0  0  0  0  0  0  0  0  0  0
    1.5692  -14.6358    2.1781 C   0  0  0  0  0  0  0  0  0  0  0  0
    1.6704   -5.1788    3.8485 O   0  0  0  0  0  0  0  0  0  0  0  0
    0.9288   -4.8508    1.7290 O   0  0  0  0  0  0  0  0  0  0  0  0
   -1.1343  -10.1526    0.7776 C   0  0  0  0  0  0  0  0  0  0  0  0
  6  7  1  0
  3  8  1  0
  8  9  1  0
  9 10  2  3
  8 11  1  6
 11 12  1  0
 12 13  1  0
 13 14  1  0
 14 15  1  0
 14 16  1  0
 13 17  1  1
  7 18  1  0
  7 19  2  0
 10 20  1  0
  1  2  2  0
  2  3  1  0
  3  4  2  0
  4  5  1  0
  5  6  2  0
  1  6  1  0
M  END

$$$$
No_4423-/export/home/yangzhenyu/potential_scad_32_flow//YTHDC2/2024-12-06-03-22-00/
     RDKit          3D

 21 22  0  0  1  0  0  0  0  0999 V2000
    1.1787   -8.0297    3.5154 C   0  0  0  0  0  0  0  0  0  0  0  0
    1.0491   -6.8434    2.9820 C   0  0  0  0  0  0  0  0  0  0  0  0
    0.0950   -8.8404    3.2292 C   0  0  0  0  0  0  0  0  0  0  0  0
   -0.9173   -8.4596    2.5152 C   0  0  0  0  0  0  0  0  0  0  0  0
   -1.0331   -7.2162    2.0653 C   0  0  0  0  0  0  0  0  0  0  0  0
   -0.0105   -6.3168    2.3081 C   0  0  0  0  0  0  0  0  0  0  0  0
    0.0485   -4.9783    1.8782 C   0  0  0  0  0  0  0  0  0  0  0  0
   -0.4744   -4.1559    2.2381 C   0  0  0  0  0  0  0  0  0  0  0  0
   -0.3956   -2.6830    1.7790 C   0  0  0  0  0  0  0  0  0  0  0  0
    0.1602  -10.2743    3.6766 C   0  0  2  0  0  0  0  0  0  0  0  0
   -1.0292  -10.8832    3.9926 C   0  0  0  0  0  0  0  0  0  0  0  0
    1.3522  -10.8518    4.0903 C   0  0  0  0  0  0  0  0  0  0  0  0
    2.3916  -10.4597    4.3716 N   0  0  0  0  0  0  0  0  0  0  0  0
    0.7584   -2.5647    0.8943 C   0  0  0  0  0  0  0  0  0  0  0  0
    1.3812   -3.5288    0.3653 C   0  0  0  0  0  0  0  0  0  0  0  0
    1.2095   -4.8241    0.9180 C   0  0  0  0  0  0  0  0  0  0  0  0
    1.2873  -12.2948    3.9386 F   0  0  0  0  0  0  0  0  0  0  0  0
    0.8997   -1.2312    0.2021 Cl  0  0  0  0  0  0  0  0  0  0  0  0
   -1.9273  -10.3415    4.9488 P   0  0  0  0  0  0  0  0  0  0  0  0
   -3.1844  -11.3468    5.0121 O   0  0  0  0  0  0  0  0  0  0  0  0
    2.5552   -9.4653    4.4384 H   0  0  0  0  0  0  0  0  0  0  0  0
  6  7  1  0
  3 10  1  0
 10 11  1  1
 10 12  1  0
 12 13  2  0
 12 17  1  0
 14 18  1  0
 11 19  1  0
 19 20  1  0
  1  2  2  0
  2  6  1  0
  5  6  2  0
  4  5  1  0
  3  4  2  0
  1  3  1  0
  7  8  2  0
  8  9  1  0
  9 14  2  0
 14 15  1  0
 15 16  2  0
  7 16  1  0
 13 21  1  0
M  END

$$$$
No_4424-/export/home/yangzhenyu/potential_scad_32_flow//YTHDC2/2024-12-06-03-22-00/
     RDKit          3D

 19 21  0  0  0  0  0  0  0  0999 V2000
    1.1787   -8.0297    3.5154 C   0  0  0  0  0  0  0  0  0  0  0  0
    1.1048   -9.2215    3.2892 N   0  0  0  0  0  0  0  0  0  0  0  0
    1.0346   -9.7785    2.1176 C   0  0  0  0  0  0  0  0  0  0  0  0
    1.1587   -8.9741    1.1233 C   0  0  0  0  0  0  0  0  0  0  0  0
    1.3730   -7.6441    1.1350 C   0  0  0  0  0  0  0  0  0  0  0  0
    1.4481   -7.1190    2.3998 C   0  0  0  0  0  0  0  0  0  0  0  0
    1.4510   -5.7030    2.6589 C   0  0  0  0  0  0  0  0  0  0  0  0
    0.9192  -11.2319    2.0925 C   0  0  0  0  0  0  0  0  0  0  0  0
    1.8616  -12.0421    2.2818 C   0  0  0  0  0  0  0  0  0  0  0  0
    1.7040  -13.4212    1.9620 C   0  0  0  0  0  0  0  0  0  0  0  0
    0.5569  -13.8210    1.4983 C   0  0  0  0  0  0  0  0  0  0  0  0
   -0.4619  -13.0184    1.1814 C   0  0  0  0  0  0  0  0  0  0  0  0
   -0.3157  -11.6725    1.5039 C   0  0  0  0  0  0  0  0  0  0  0  0
   -1.3875  -10.8283    1.3118 C   0  0  0  0  0  0  0  0  0  0  0  0
   -2.2365  -10.4566    2.3021 C   0  0  0  0  0  0  0  0  0  0  0  0
   -3.3514   -9.6627    2.2655 C   0  0  0  0  0  0  0  0  0  0  0  0
   -3.8827   -9.3674    1.0984 C   0  0  0  0  0  0  0  0  0  0  0  0
   -3.1135   -9.6077   -0.0554 C   0  0  0  0  0  0  0  0  0  0  0  0
   -1.9274  -10.3080    0.0085 C   0  0  0  0  0  0  0  0  0  0  0  0
  6  7  1  0
  3  8  1  0
 13 14  1  0
  1  2  2  0
  2  3  1  0
  3  4  2  0
  4  5  1  0
  5  6  2  0
  1  6  1  0
  8  9  2  0
  9 10  1  0
 10 11  2  0
 11 12  1  0
 12 13  2  0
  8 13  1  0
 14 15  2  0
 15 16  1  0
 16 17  2  0
 17 18  1  0
 18 19  2  0
 14 19  1  0
M  END

$$$$
No_4425-/export/home/yangzhenyu/potential_scad_32_flow//YTHDC2/2024-12-06-03-22-00/
     RDKit          3D

 18 19  0  0  0  0  0  0  0  0999 V2000
    1.1787   -8.0297    3.5154 C   0  0  0  0  0  0  0  0  0  0  0  0
    1.1048   -9.2215    3.2892 C   0  0  0  0  0  0  0  0  0  0  0  0
    1.2339   -9.7611    2.0189 C   0  0  0  0  0  0  0  0  0  0  0  0
    1.3583   -9.0036    0.9764 C   0  0  0  0  0  0  0  0  0  0  0  0
    1.5996   -7.6362    1.1311 C   0  0  0  0  0  0  0  0  0  0  0  0
    1.4830   -7.0928    2.3626 C   0  0  0  0  0  0  0  0  0  0  0  0
    1.5395   -5.7300    2.6182 C   0  0  0  0  0  0  0  0  0  0  0  0
    1.1775  -11.2233    1.8407 C   0  0  0  0  0  0  0  0  0  0  0  0
    0.5085  -11.9762    2.1989 C   0  0  0  0  0  0  0  0  0  0  0  0
    0.4247  -13.3704    2.0465 C   0  0  0  0  0  0  0  0  0  0  0  0
   -0.6059  -14.0773    1.8608 C   0  0  0  0  0  0  0  0  0  0  0  0
   -0.5437  -15.5485    1.8404 C   0  0  0  0  0  0  0  0  0  0  0  0
    0.7428  -16.1379    2.1583 C   0  0  0  0  0  0  0  0  0  0  0  0
    1.8608  -15.4332    2.4453 C   0  0  0  0  0  0  0  0  0  0  0  0
    1.7696  -14.0190    2.4364 C   0  0  0  0  0  0  0  0  0  0  0  0
    1.2979   -4.7991    1.6868 C   0  0  0  0  0  0  0  0  0  0  0  0
    1.2426   -3.3654    1.9049 C   0  0  0  0  0  0  0  0  0  0  0  0
    0.8532  -17.5241    2.2342 F   0  0  0  0  0  0  0  0  0  0  0  0
  6  7  1  0
  3  8  1  0
  8  9  2  3
  9 10  1  0
  7 16  2  3
 16 17  1  0
 13 18  1  0
  1  2  2  0
  2  3  1  0
  3  4  2  0
  4  5  1  0
  5  6  2  0
  1  6  1  0
 10 11  2  0
 11 12  1  0
 12 13  2  0
 13 14  1  0
 14 15  2  0
 10 15  1  0
M  END

$$$$
No_4426-/export/home/yangzhenyu/potential_scad_32_flow//YTHDC2/2024-12-06-03-22-00/
     RDKit          3D

 19 20  0  0  0  0  0  0  0  0999 V2000
    1.1787   -8.0297    3.5154 C   0  0  0  0  0  0  0  0  0  0  0  0
    1.0491   -6.8434    2.9820 C   0  0  0  0  0  0  0  0  0  0  0  0
    0.0950   -8.8404    3.2292 C   0  0  0  0  0  0  0  0  0  0  0  0
   -0.9173   -8.4596    2.5152 C   0  0  0  0  0  0  0  0  0  0  0  0
   -1.0331   -7.2162    2.0653 C   0  0  0  0  0  0  0  0  0  0  0  0
   -0.0105   -6.3168    2.3081 C   0  0  0  0  0  0  0  0  0  0  0  0
    0.0485   -4.9783    1.8782 C   0  0  0  0  0  0  0  0  0  0  0  0
   -0.4744   -4.1559    2.2381 O   0  0  0  0  0  0  0  0  0  0  0  0
    0.9176   -4.7080    0.8087 O   0  0  0  0  0  0  0  0  0  0  0  0
    0.2222  -10.4891    3.7537 I   0  0  0  0  0  0  0  0  0  0  0  0
   -2.2559   -6.7430    1.4770 C   0  0  0  0  0  0  0  0  0  0  0  0
   -2.2453   -6.8348    0.0019 C   0  0  0  0  0  0  0  0  0  0  0  0
   -1.7232   -7.7712   -0.6830 C   0  0  0  0  0  0  0  0  0  0  0  0
   -1.1272   -7.5364   -1.8828 C   0  0  0  0  0  0  0  0  0  0  0  0
   -1.6149   -6.6195   -2.6237 C   0  0  0  0  0  0  0  0  0  0  0  0
   -2.3441   -5.5768   -1.9941 C   0  0  0  0  0  0  0  0  0  0  0  0
   -2.6108   -5.6856   -0.6225 C   0  0  0  0  0  0  0  0  0  0  0  0
   -0.6084   -8.6883   -2.5362 C   0  0  0  0  0  0  0  0  0  0  0  0
   -0.8133   -9.6382   -2.7786 O   0  0  0  0  0  0  0  0  0  0  0  0
  6  7  1  0
  7  8  2  0
  7  9  1  0
  3 10  1  0
  5 11  1  0
 11 12  1  0
 14 18  1  0
 18 19  2  0
 12 13  2  0
 13 14  1  0
 14 15  2  0
 15 16  1  0
 16 17  2  0
 12 17  1  0
  1  2  2  0
  2  6  1  0
  5  6  2  0
  4  5  1  0
  3  4  2  0
  1  3  1  0
M  END

$$$$
No_4427-/export/home/yangzhenyu/potential_scad_32_flow//YTHDC2/2024-12-06-03-22-00/
     RDKit          3D

 18 18  0  0  0  0  0  0  0  0999 V2000
    1.1787   -8.0297    3.5154 C   0  0  0  0  0  0  0  0  0  0  0  0
    1.1048   -9.2215    3.2892 C   0  0  0  0  0  0  0  0  0  0  0  0
    1.2339   -9.7611    2.0189 C   0  0  0  0  0  0  0  0  0  0  0  0
    1.3583   -9.0036    0.9764 C   0  0  0  0  0  0  0  0  0  0  0  0
    1.5996   -7.6362    1.1311 C   0  0  0  0  0  0  0  0  0  0  0  0
    1.4830   -7.0928    2.3626 C   0  0  0  0  0  0  0  0  0  0  0  0
    1.4898   -5.7274    2.6199 C   0  0  0  0  0  0  0  0  0  0  0  0
    1.1681  -11.2222    1.8390 C   0  0  0  0  0  0  0  0  0  0  0  0
    0.7145  -11.5870    0.5424 O   0  0  0  0  0  0  0  0  0  0  0  0
    1.6537  -12.0580    2.6183 N   0  0  0  0  0  0  0  0  0  0  0  0
    1.6651  -13.4392    2.3517 C   0  0  0  0  0  0  0  0  0  0  0  0
    0.4982  -14.0351    2.8975 C   0  0  0  0  0  0  0  0  0  0  0  0
   -0.5431  -13.6292    2.9701 O   0  0  0  0  0  0  0  0  0  0  0  0
    0.7388  -15.4812    3.0093 O   0  0  0  0  0  0  0  0  0  0  0  0
    1.6875   -5.1707    3.8671 O   0  0  0  0  0  0  0  0  0  0  0  0
    1.3629   -4.8317    1.6634 O   0  0  0  0  0  0  0  0  0  0  0  0
    1.7941  -16.1742    2.4105 C   0  0  0  0  0  0  0  0  0  0  0  0
    1.7058  -17.6141    2.5332 C   0  0  0  0  0  0  0  0  0  0  0  0
  6  7  1  0
  3  8  1  0
  8  9  2  0
  8 10  1  0
 10 11  1  0
 11 12  1  0
 12 13  2  0
 12 14  1  0
  7 15  1  0
  7 16  2  0
 14 17  1  0
 17 18  1  0
  1  2  2  0
  2  3  1  0
  3  4  2  0
  4  5  1  0
  5  6  2  0
  1  6  1  0
M  END

$$$$
No_4428-/export/home/yangzhenyu/potential_scad_32_flow//YTHDC2/2024-12-06-03-22-00/
     RDKit          3D

 19 20  0  0  0  0  0  0  0  0999 V2000
    1.1787   -8.0297    3.5154 N   0  0  0  0  0  0  0  0  0  0  0  0
    0.8669   -7.0905    2.8589 C   0  0  0  0  0  0  0  0  0  0  0  0
    1.0447   -7.3244    1.4123 C   0  0  0  0  0  0  0  0  0  0  0  0
    1.3746   -8.4389    1.0864 C   0  0  0  0  0  0  0  0  0  0  0  0
    1.8493   -9.4093    1.8124 C   0  0  0  0  0  0  0  0  0  0  0  0
    1.7421   -9.2119    3.1541 C   0  0  0  0  0  0  0  0  0  0  0  0
    2.0608  -10.3132    4.0586 N   0  0  0  0  0  0  0  0  0  0  0  0
    1.7502   -8.6763   -0.3755 C   0  0  0  0  0  0  0  0  0  0  0  0
    2.6585   -9.4105   -0.8650 O   0  0  0  0  0  0  0  0  0  0  0  0
    0.8743   -8.3283   -1.2922 O   0  0  0  0  0  0  0  0  0  0  0  0
    1.8423  -11.5070    3.7370 C   0  0  0  0  0  0  0  0  0  0  0  0
    1.3765  -11.9895    2.7826 C   0  0  0  0  0  0  0  0  0  0  0  0
    1.1415  -13.3032    2.5646 C   0  0  0  0  0  0  0  0  0  0  0  0
    0.4476  -13.9291    1.6294 C   0  0  0  0  0  0  0  0  0  0  0  0
    0.1188  -13.3068    0.7621 C   0  0  0  0  0  0  0  0  0  0  0  0
   -0.0287  -12.1268    0.5819 C   0  0  0  0  0  0  0  0  0  0  0  0
    0.6691  -11.2800    1.6355 C   0  0  0  0  0  0  0  0  0  0  0  0
    1.6277  -14.1345    3.7102 O   0  0  0  0  0  0  0  0  0  0  0  0
    0.4549  -15.3702    1.6433 O   0  0  0  0  0  0  0  0  0  0  0  0
  4  8  1  0
  8  9  2  0
  8 10  1  0
  7 11  1  0
 13 18  1  0
 14 19  1  0
  6  7  1  0
 11 12  1  0
 12 13  2  0
 13 14  1  0
 14 15  2  0
 15 16  1  0
 16 17  2  0
 12 17  1  0
  1  2  2  0
  2  3  1  0
  3  4  2  0
  4  5  1  0
  5  6  2  0
  1  6  1  0
M  END

$$$$
No_4429-/export/home/yangzhenyu/potential_scad_32_flow//YTHDC2/2024-12-06-03-22-00/
     RDKit          3D

 18 19  0  0  0  0  0  0  0  0999 V2000
    1.1787   -8.0297    3.5154 C   0  0  0  0  0  0  0  0  0  0  0  0
    1.0491   -6.8434    2.9820 C   0  0  0  0  0  0  0  0  0  0  0  0
    0.0950   -8.8404    3.2292 C   0  0  0  0  0  0  0  0  0  0  0  0
   -0.9173   -8.4596    2.5152 C   0  0  0  0  0  0  0  0  0  0  0  0
   -0.8043   -7.0775    2.1508 C   0  0  0  0  0  0  0  0  0  0  0  0
    0.0928   -6.2803    2.3573 C   0  0  0  0  0  0  0  0  0  0  0  0
    0.1519   -4.9185    2.0180 C   0  0  0  0  0  0  0  0  0  0  0  0
   -0.4930   -4.5222    0.9121 O   0  0  0  0  0  0  0  0  0  0  0  0
    1.4014   -4.1643    2.0691 O   0  0  0  0  0  0  0  0  0  0  0  0
    0.1724  -10.4845    3.6619 C   0  0  0  0  0  0  0  0  0  0  0  0
   -0.9780  -11.1300    3.4685 C   0  0  0  0  0  0  0  0  0  0  0  0
    1.3713  -10.9766    4.2345 C   0  0  0  0  0  0  0  0  0  0  0  0
    2.5486  -10.4068    4.5060 C   0  0  0  0  0  0  0  0  0  0  0  0
   -2.2301  -10.7323    3.6501 N   0  0  0  0  0  0  0  0  0  0  0  0
   -0.7437  -12.5133    3.0771 C   0  0  0  0  0  0  0  0  0  0  0  0
    0.4382  -12.9451    2.7557 C   0  0  0  0  0  0  0  0  0  0  0  0
    1.5625  -12.1655    3.3866 C   0  0  0  0  0  0  0  0  0  0  0  0
    3.3522  -11.2288    5.3414 O   0  0  0  0  0  0  0  0  0  0  0  0
  6  7  1  0
  7  8  2  0
  7  9  1  0
  3 10  1  0
 12 13  1  0
 11 14  1  0
 13 18  1  0
 10 11  2  0
 11 15  1  0
 15 16  2  0
 16 17  1  0
 12 17  2  0
 10 12  1  0
  1  2  2  0
  2  6  1  0
  5  6  2  0
  4  5  1  0
  3  4  2  0
  1  3  1  0
M  END

$$$$
No_4430-/export/home/yangzhenyu/potential_scad_32_flow//YTHDC2/2024-12-06-03-22-00/
     RDKit          3D

 17 17  0  0  1  0  0  0  0  0999 V2000
    1.1787   -8.0297    3.5154 C   0  0  0  0  0  0  0  0  0  0  0  0
    1.1048   -9.2215    3.2892 C   0  0  0  0  0  0  0  0  0  0  0  0
    1.2339   -9.7611    2.0189 C   0  0  0  0  0  0  0  0  0  0  0  0
    1.3583   -9.0036    0.9764 C   0  0  0  0  0  0  0  0  0  0  0  0
    1.5996   -7.6362    1.1311 C   0  0  0  0  0  0  0  0  0  0  0  0
    1.4830   -7.0928    2.3626 C   0  0  0  0  0  0  0  0  0  0  0  0
    1.5395   -5.7300    2.6182 C   0  0  0  0  0  0  0  0  0  0  0  0
    1.1775  -11.2233    1.8407 C   0  0  1  0  0  0  0  0  0  0  0  0
    0.7252  -11.5870    0.5413 C   0  0  0  0  0  0  0  0  0  0  0  0
   -0.1807  -10.9849   -0.0827 O   0  0  0  0  0  0  0  0  0  0  0  0
    0.8961  -12.9651    0.2924 O   0  0  0  0  0  0  0  0  0  0  0  0
    1.2923   -4.8117    1.6917 C   0  0  0  0  0  0  0  0  0  0  0  0
    1.2346   -3.3772    1.9429 C   0  0  0  0  0  0  0  0  0  0  0  0
    1.7859  -12.0149    2.6150 C   0  0  0  0  0  0  0  0  0  0  0  0
    1.0651  -12.5611    3.6746 C   0  0  0  0  0  0  0  0  0  0  0  0
   -0.0972  -13.1526    3.1351 N   0  0  0  0  0  0  0  0  0  0  0  0
    0.0148  -14.6007    2.9312 C   0  0  0  0  0  0  0  0  0  0  0  0
  6  7  1  0
  3  8  1  0
  8  9  1  0
  9 10  2  0
  9 11  1  0
  7 12  2  3
 12 13  1  0
  8 14  1  6
 14 15  1  0
 15 16  1  0
 16 17  1  0
  1  2  2  0
  2  3  1  0
  3  4  2  0
  4  5  1  0
  5  6  2  0
  1  6  1  0
M  END

$$$$
No_4431-/export/home/yangzhenyu/potential_scad_32_flow//YTHDC2/2024-12-06-03-22-00/
     RDKit          3D

 18 19  0  0  0  0  0  0  0  0999 V2000
    1.1787   -8.0297    3.5154 C   0  0  0  0  0  0  0  0  0  0  0  0
    1.1048   -9.2215    3.2892 C   0  0  0  0  0  0  0  0  0  0  0  0
    1.2339   -9.7611    2.0189 C   0  0  0  0  0  0  0  0  0  0  0  0
    1.3583   -9.0036    0.9764 C   0  0  0  0  0  0  0  0  0  0  0  0
    1.5996   -7.6362    1.1311 C   0  0  0  0  0  0  0  0  0  0  0  0
    1.4830   -7.0928    2.3626 C   0  0  0  0  0  0  0  0  0  0  0  0
    1.1008  -11.2372    1.8542 C   0  0  0  0  0  0  0  0  0  0  0  0
    0.5178  -11.9759    2.3445 C   0  0  0  0  0  0  0  0  0  0  0  0
    0.4575  -13.3705    2.1281 C   0  0  0  0  0  0  0  0  0  0  0  0
    1.3992  -14.2795    2.9784 C   0  0  0  0  0  0  0  0  0  0  0  0
    1.3981  -15.5837    2.7718 C   0  0  0  0  0  0  0  0  0  0  0  0
    0.6478  -16.1498    1.8129 C   0  0  0  0  0  0  0  0  0  0  0  0
   -0.1507  -15.4364    1.0074 C   0  0  0  0  0  0  0  0  0  0  0  0
   -0.2761  -14.0581    1.2370 C   0  0  0  0  0  0  0  0  0  0  0  0
    1.5638   -5.6558    2.6514 C   0  0  0  0  0  0  0  0  0  0  0  0
    1.7478   -5.1503    3.7779 C   0  0  0  0  0  0  0  0  0  0  0  0
    1.4400   -4.8342    1.4906 C   0  0  0  0  0  0  0  0  0  0  0  0
    1.5312   -3.7291    3.7867 O   0  0  0  0  0  0  0  0  0  0  0  0
  3  7  1  0
  7  8  2  3
  8  9  1  0
  6 15  1  0
 15 16  1  0
 15 17  1  0
 16 18  1  0
  1  2  2  0
  2  3  1  0
  3  4  2  0
  4  5  1  0
  5  6  2  0
  1  6  1  0
  9 10  2  0
 10 11  1  0
 11 12  2  0
 12 13  1  0
 13 14  2  0
  9 14  1  0
M  END

$$$$
No_4432-/export/home/yangzhenyu/potential_scad_32_flow//YTHDC2/2024-12-06-03-22-00/
     RDKit          3D

 17 17  0  0  1  0  0  0  0  0999 V2000
    1.1787   -8.0297    3.5154 C   0  0  0  0  0  0  0  0  0  0  0  0
    1.0491   -6.8434    2.9820 C   0  0  1  0  0  0  0  0  0  0  0  0
    0.9905   -9.0774    2.6527 C   0  0  0  0  0  0  0  0  0  0  0  0
    1.1655  -10.4663    3.1286 C   0  0  2  0  0  0  0  0  0  0  0  0
    1.2197  -11.4898    2.5831 Cl  0  0  0  0  0  0  0  0  0  0  0  0
    1.4691   -5.6198    3.6208 C   0  0  0  0  0  0  0  0  0  0  0  0
    0.6028   -6.6605    1.7031 C   0  0  0  0  0  0  0  0  0  0  0  0
    0.5452   -7.5865    0.8934 O   0  0  0  0  0  0  0  0  0  0  0  0
    0.5802   -5.2931    1.1758 C   0  0  0  0  0  0  0  0  0  0  0  0
    0.7918  -10.5696    4.6076 C   0  0  0  0  0  0  0  0  0  0  0  0
    1.2200   -4.4714    3.3435 C   0  0  0  0  0  0  0  0  0  0  0  0
    0.8537   -4.1876    2.0589 C   0  0  0  0  0  0  0  0  0  0  0  0
    0.6727   -2.9121    1.3892 Cl  0  0  0  0  0  0  0  0  0  0  0  0
   -0.5893  -10.4567    4.6753 C   0  0  0  0  0  0  0  0  0  0  0  0
   -1.5939  -11.3268    4.1926 N   0  0  0  0  0  0  0  0  0  0  0  0
   -1.1961   -9.2813    5.1498 O   0  0  0  0  0  0  0  0  0  0  0  0
   -2.9173  -11.1965    4.1858 C   0  0  0  0  0  0  0  0  0  0  0  0
  1  2  1  0
  1  3  2  3
  3  4  1  0
  4  5  1  6
  2  6  1  6
  2  7  1  0
  7  8  2  0
  7  9  1  0
  4 10  1  0
 11 12  1  0
 12 13  1  0
 10 14  1  0
 14 15  1  0
 14 16  2  0
 15 17  1  0
  6 11  1  0
  9 12  1  0
M  END

$$$$
No_4433-/export/home/yangzhenyu/potential_scad_32_flow//YTHDC2/2024-12-06-03-22-00/
     RDKit          3D

 18 20  0  0  0  0  0  0  0  0999 V2000
    1.1787   -8.0297    3.5154 C   0  0  0  0  0  0  0  0  0  0  0  0
    1.0491   -6.8434    2.9820 C   0  0  0  0  0  0  0  0  0  0  0  0
    0.2462   -8.9560    3.0873 C   0  0  0  0  0  0  0  0  0  0  0  0
    0.3295   -6.5187    1.9069 C   0  0  0  0  0  0  0  0  0  0  0  0
   -0.5260   -8.7862    2.1368 C   0  0  0  0  0  0  0  0  0  0  0  0
   -0.5458   -7.5614    1.5054 C   0  0  0  0  0  0  0  0  0  0  0  0
    0.3663  -10.3301    3.7373 C   0  0  0  0  0  0  0  0  0  0  0  0
   -0.8414  -11.0073    3.8266 C   0  0  0  0  0  0  0  0  0  0  0  0
   -1.8073  -10.7830    2.9067 C   0  0  0  0  0  0  0  0  0  0  0  0
   -1.6751   -9.6316    2.0473 C   0  0  0  0  0  0  0  0  0  0  0  0
    0.3723   -5.1463    1.0710 C   0  0  0  0  0  0  0  0  0  0  0  0
   -0.7248   -4.7247    0.6186 C   0  0  0  0  0  0  0  0  0  0  0  0
   -0.8947   -4.3232   -0.5207 C   0  0  0  0  0  0  0  0  0  0  0  0
   -2.0797   -3.7381   -0.9374 C   0  0  0  0  0  0  0  0  0  0  0  0
   -3.0996   -3.5488   -0.0751 C   0  0  0  0  0  0  0  0  0  0  0  0
   -2.9940   -3.8298    1.1774 C   0  0  0  0  0  0  0  0  0  0  0  0
   -1.8236   -4.4642    1.6310 C   0  0  0  0  0  0  0  0  0  0  0  0
   -2.8387  -11.6782    2.6278 O   0  0  0  0  0  0  0  0  0  0  0  0
  4 11  1  0
 11 12  1  0
  9 18  1  0
 12 13  2  0
 13 14  1  0
 14 15  2  0
 15 16  1  0
 16 17  2  0
 12 17  1  0
  5 10  2  0
  9 10  1  0
  8  9  2  0
  7  8  1  0
  3  7  2  0
  1  2  2  0
  2  4  1  0
  4  6  2  0
  5  6  1  0
  3  5  1  0
  1  3  1  0
M  END

$$$$
No_4434-/export/home/yangzhenyu/potential_scad_32_flow//YTHDC2/2024-12-06-03-22-00/
     RDKit          3D

 17 18  0  0  0  0  0  0  0  0999 V2000
    1.1787   -8.0297    3.5154 C   0  0  0  0  0  0  0  0  0  0  0  0
    1.1048   -9.2215    3.2892 C   0  0  0  0  0  0  0  0  0  0  0  0
    1.3627  -10.1721    4.3044 C   0  0  0  0  0  0  0  0  0  0  0  0
    1.0682  -11.5187    4.0618 C   0  0  0  0  0  0  0  0  0  0  0  0
    0.6332  -11.9655    2.9682 C   0  0  0  0  0  0  0  0  0  0  0  0
    0.4776  -11.1308    1.9203 C   0  0  0  0  0  0  0  0  0  0  0  0
    0.1540  -11.7530    0.6168 C   0  0  0  0  0  0  0  0  0  0  0  0
    0.7979   -9.8320    2.0306 C   0  0  0  0  0  0  0  0  0  0  0  0
   -1.3071  -11.9040    0.4813 C   0  0  0  0  0  0  0  0  0  0  0  0
    1.0628   -7.0585    2.5200 Cl  0  0  0  0  0  0  0  0  0  0  0  0
   -1.7089  -13.0256    0.5165 C   0  0  0  0  0  0  0  0  0  0  0  0
   -3.1768  -13.1733    0.5696 C   0  0  0  0  0  0  0  0  0  0  0  0
   -3.9039  -12.1117    0.2862 C   0  0  0  0  0  0  0  0  0  0  0  0
   -3.3693  -10.8836    0.0659 C   0  0  0  0  0  0  0  0  0  0  0  0
   -1.9638  -10.7042    0.1676 C   0  0  0  0  0  0  0  0  0  0  0  0
   -1.4161   -9.4263   -0.1231 C   0  0  0  0  0  0  0  0  0  0  0  0
   -0.7462   -9.2040   -1.3021 O   0  0  0  0  0  0  0  0  0  0  0  0
  1  2  1  0
  6  7  1  0
  7  9  1  0
  1 10  1  0
 15 16  1  0
 16 17  2  0
  2  3  2  0
  3  4  1  0
  4  5  2  0
  5  6  1  0
  6  8  2  0
  2  8  1  0
  9 11  2  0
 11 12  1  0
 12 13  2  0
 13 14  1  0
 14 15  2  0
  9 15  1  0
M  END

$$$$
No_4435-/export/home/yangzhenyu/potential_scad_32_flow//YTHDC2/2024-12-06-03-22-00/
     RDKit          3D

 17 18  0  0  0  0  0  0  0  0999 V2000
    1.1787   -8.0297    3.5154 C   0  0  0  0  0  0  0  0  0  0  0  0
    1.0491   -6.8434    2.9820 C   0  0  0  0  0  0  0  0  0  0  0  0
    0.0950   -8.8404    3.2292 C   0  0  0  0  0  0  0  0  0  0  0  0
   -0.9173   -8.4596    2.5152 C   0  0  0  0  0  0  0  0  0  0  0  0
   -1.0331   -7.2162    2.0653 C   0  0  0  0  0  0  0  0  0  0  0  0
   -0.0105   -6.3168    2.3081 C   0  0  0  0  0  0  0  0  0  0  0  0
    0.1465  -10.2446    3.6981 C   0  0  0  0  0  0  0  0  0  0  0  0
    1.2433  -10.8239    4.0166 C   0  0  0  0  0  0  0  0  0  0  0  0
    1.6493  -11.8557    3.2298 C   0  0  0  0  0  0  0  0  0  0  0  0
    1.3673  -13.2260    3.7501 O   0  0  0  0  0  0  0  0  0  0  0  0
    0.8347  -11.8114    1.9598 O   0  0  0  0  0  0  0  0  0  0  0  0
   -0.0647   -5.0115    1.8452 C   0  0  0  0  0  0  0  0  0  0  0  0
   -0.5554   -4.7191    0.7022 C   0  0  0  0  0  0  0  0  0  0  0  0
   -0.6373   -3.3209    0.3886 C   0  0  0  0  0  0  0  0  0  0  0  0
    0.0490   -2.3964    1.1001 C   0  0  0  0  0  0  0  0  0  0  0  0
    0.7956   -2.6735    2.1310 C   0  0  0  0  0  0  0  0  0  0  0  0
    0.7609   -4.0197    2.5953 C   0  0  0  0  0  0  0  0  0  0  0  0
  3  7  1  0
  7  8  1  0
  8  9  1  0
  9 10  1  0
  9 11  1  0
  6 12  1  0
 12 13  2  0
 13 14  1  0
 14 15  2  0
 15 16  1  0
 16 17  2  0
 12 17  1  0
  1  2  2  0
  2  6  1  0
  5  6  2  0
  4  5  1  0
  3  4  2  0
  1  3  1  0
M  END

$$$$
No_4436-/export/home/yangzhenyu/potential_scad_32_flow//YTHDC2/2024-12-06-03-22-00/
     RDKit          3D

 17 17  0  0  1  0  0  0  0  0999 V2000
    1.1787   -8.0297    3.5154 C   0  0  0  0  0  0  0  0  0  0  0  0
    1.0491   -6.8434    2.9820 C   0  0  0  0  0  0  0  0  0  0  0  0
    1.0690   -9.1150    2.7206 C   0  0  0  0  0  0  0  0  0  0  0  0
    0.9689   -6.6391    1.6260 C   0  0  0  0  0  0  0  0  0  0  0  0
    0.9670   -9.0334    1.3824 C   0  0  0  0  0  0  0  0  0  0  0  0
    0.7641  -10.1483    0.4695 C   0  0  0  0  0  0  0  0  0  0  0  0
    0.8413   -7.7010    0.7982 C   0  0  0  0  0  0  0  0  0  0  0  0
    1.4120  -11.1836    0.5066 O   0  0  0  0  0  0  0  0  0  0  0  0
   -0.3693  -10.1227   -0.3537 N   0  0  0  0  0  0  0  0  0  0  0  0
    1.2928  -10.6550    3.3703 C   0  0  1  0  0  0  0  0  0  0  0  0
    2.6125  -10.9169    3.7145 C   0  0  0  0  0  0  0  0  0  0  0  0
    0.2219  -11.3449    3.6142 C   0  0  0  0  0  0  0  0  0  0  0  0
    3.1747  -10.2222    4.6956 O   0  0  0  0  0  0  0  0  0  0  0  0
   -0.4701  -11.8528    2.7476 C   0  0  0  0  0  0  0  0  0  0  0  0
   -1.6937  -11.5251    2.4716 C   0  0  0  0  0  0  0  0  0  0  0  0
   -2.5389  -12.0055    1.4776 C   0  0  0  0  0  0  0  0  0  0  0  0
   -3.4898  -11.1942    0.8307 C   0  0  0  0  0  0  0  0  0  0  0  0
  5  6  1  0
  6  8  2  0
  6  9  1  0
  3 10  1  0
 10 11  1  0
 10 12  1  1
 11 13  2  0
 12 14  1  0
 14 15  2  3
 15 16  1  0
 16 17  2  0
  1  2  2  0
  2  4  1  0
  4  7  2  0
  5  7  1  0
  3  5  2  0
  1  3  1  0
M  END

$$$$
No_4437-/export/home/yangzhenyu/potential_scad_32_flow//YTHDC2/2024-12-06-03-22-00/
     RDKit          3D

 17 19  0  0  0  0  0  0  0  0999 V2000
    1.1787   -8.0297    3.5154 C   0  0  0  0  0  0  0  0  0  0  0  0
    1.0491   -6.8434    2.9820 C   0  0  0  0  0  0  0  0  0  0  0  0
    0.9905   -9.0774    2.6527 C   0  0  0  0  0  0  0  0  0  0  0  0
    0.9687   -8.6883    1.3634 C   0  0  0  0  0  0  0  0  0  0  0  0
    1.0948   -6.3768    1.7686 C   0  0  0  0  0  0  0  0  0  0  0  0
    0.9504   -7.3975    0.8471 C   0  0  0  0  0  0  0  0  0  0  0  0
    1.0175  -10.5389    3.0735 C   0  0  0  0  0  0  0  0  0  0  0  0
   -0.1673  -11.1029    3.1187 C   0  0  0  0  0  0  0  0  0  0  0  0
   -1.2854  -10.3856    3.5043 C   0  0  0  0  0  0  0  0  0  0  0  0
   -2.5135  -10.9490    3.6017 C   0  0  0  0  0  0  0  0  0  0  0  0
   -2.6199  -12.3395    3.3924 C   0  0  0  0  0  0  0  0  0  0  0  0
   -1.6034  -13.1101    3.0581 C   0  0  0  0  0  0  0  0  0  0  0  0
   -0.3049  -12.5272    2.9591 C   0  0  0  0  0  0  0  0  0  0  0  0
   -1.6273  -14.4438    2.8635 C   0  0  0  0  0  0  0  0  0  0  0  0
   -0.4438  -15.1959    2.7344 C   0  0  0  0  0  0  0  0  0  0  0  0
    0.7968  -14.5503    2.6530 C   0  0  0  0  0  0  0  0  0  0  0  0
    0.9282  -13.2027    2.7985 C   0  0  0  0  0  0  0  0  0  0  0  0
  3  7  1  0
  7  8  1  0
 13 17  2  0
 16 17  1  0
 15 16  2  0
 14 15  1  0
 12 14  2  0
  8  9  2  0
  9 10  1  0
 10 11  2  0
 11 12  1  0
 12 13  1  0
  8 13  1  0
  1  2  2  0
  2  5  1  0
  5  6  2  0
  4  6  1  0
  3  4  2  0
  1  3  1  0
M  END

$$$$
No_4438-/export/home/yangzhenyu/potential_scad_32_flow//YTHDC2/2024-12-06-03-22-00/
     RDKit          3D

 18 20  0  0  1  0  0  0  0  0999 V2000
    1.1787   -8.0297    3.5154 O   0  0  0  0  0  0  0  0  0  0  0  0
    0.6747   -7.4019    2.7838 C   0  0  1  0  0  0  0  0  0  0  0  0
    0.5570   -6.0797    2.8560 C   0  0  0  0  0  0  0  0  0  0  0  0
    1.1189   -5.2588    2.0517 C   0  0  0  0  0  0  0  0  0  0  0  0
    1.5632   -5.9381    0.9725 C   0  0  0  0  0  0  0  0  0  0  0  0
    1.4713   -7.5143    1.2075 C   0  0  1  0  0  0  0  0  0  0  0  0
    1.9567   -8.4757    0.6761 C   0  0  0  0  0  0  0  0  0  0  0  0
    1.9778   -9.6630    1.4622 C   0  0  0  0  0  0  0  0  0  0  0  0
    2.3582  -10.8323    0.6396 C   0  0  0  0  0  0  0  0  0  0  0  0
    1.4007  -11.9376    0.9719 C   0  0  0  0  0  0  0  0  0  0  0  0
    0.9619  -12.1049    2.1356 C   0  0  2  0  0  0  0  0  0  0  0  0
    1.6452  -11.6595    3.1291 C   0  0  0  0  0  0  0  0  0  0  0  0
    1.8712  -10.1968    3.4249 C   0  0  0  0  0  0  0  0  0  0  0  0
    1.6278   -9.5982    2.4402 C   0  0  1  0  0  0  0  0  0  0  0  0
    1.2332   -8.3130    3.0249 C   0  0  0  0  0  0  0  0  0  0  0  0
    0.6311  -13.7112    2.3414 C   0  0  0  0  0  0  0  0  0  0  0  0
    1.4497  -14.5582    2.8854 C   0  0  0  0  0  0  0  0  0  0  0  0
    0.8691  -15.8473    3.1523 C   0  0  0  0  0  0  0  0  0  0  0  0
  1  2  1  0
  2  3  1  1
  3  4  1  0
  4  5  2  0
  2  6  1  0
  6  5  1  1
  6  7  1  0
  7  8  2  0
  8  9  1  0
  9 10  1  0
 10 11  1  0
 11 12  1  0
 12 13  1  0
  8 14  1  0
 14 13  1  1
  1 15  1  0
 14 15  1  0
 11 16  1  1
 16 17  1  0
 17 18  2  0
M  END

$$$$
No_4439-/export/home/yangzhenyu/potential_scad_32_flow//YTHDC2/2024-12-06-03-22-00/
     RDKit          3D

 21 22  0  0  0  0  0  0  0  0999 V2000
    1.1787   -8.0297    3.5154 C   0  0  0  0  0  0  0  0  0  0  0  0
    1.1048   -9.2215    3.2892 C   0  0  0  0  0  0  0  0  0  0  0  0
    1.2339   -9.7611    2.0189 C   0  0  0  0  0  0  0  0  0  0  0  0
    1.3583   -9.0036    0.9764 C   0  0  0  0  0  0  0  0  0  0  0  0
    1.5996   -7.6362    1.1311 C   0  0  0  0  0  0  0  0  0  0  0  0
    1.4830   -7.0928    2.3626 C   0  0  0  0  0  0  0  0  0  0  0  0
    1.4898   -5.7274    2.6199 C   0  0  0  0  0  0  0  0  0  0  0  0
    1.1681  -11.2222    1.8390 N   0  0  0  0  0  0  0  0  0  0  0  0
    0.3431  -11.6519    0.7712 C   0  0  0  0  0  0  0  0  0  0  0  0
   -0.6418  -12.2425    1.2048 C   0  0  0  0  0  0  0  0  0  0  0  0
   -1.8017  -11.7511    1.0975 C   0  0  0  0  0  0  0  0  0  0  0  0
   -2.9077  -12.1152    1.9024 C   0  0  0  0  0  0  0  0  0  0  0  0
   -2.7698  -13.2592    2.7012 C   0  0  0  0  0  0  0  0  0  0  0  0
   -1.5452  -13.8495    2.8394 C   0  0  0  0  0  0  0  0  0  0  0  0
   -0.4366  -13.4070    2.1406 C   0  0  0  0  0  0  0  0  0  0  0  0
    0.8083  -14.0119    2.2155 C   0  0  0  0  0  0  0  0  0  0  0  0
    1.6482  -13.8029    3.1788 C   0  0  0  0  0  0  0  0  0  0  0  0
    0.6671   -4.9919    2.7115 N   0  0  0  0  0  0  0  0  0  0  0  0
    0.3770   -4.0329    2.2293 C   0  0  0  0  0  0  0  0  0  0  0  0
   -0.8686   -3.3274    2.5110 C   0  0  0  0  0  0  0  0  0  0  0  0
    1.3527   -3.1485    1.4593 C   0  0  0  0  0  0  0  0  0  0  0  0
  6  7  1  0
  3  8  1  0
  8  9  1  0
  9 10  1  0
 15 16  1  0
 16 17  1  0
  7 18  1  0
 18 19  2  3
 19 20  1  0
 19 21  1  0
  1  2  2  0
  2  3  1  0
  3  4  2  0
  4  5  1  0
  5  6  2  0
  1  6  1  0
 10 11  2  0
 11 12  1  0
 12 13  2  0
 13 14  1  0
 14 15  2  0
 10 15  1  0
M  END

$$$$
No_4440-/export/home/yangzhenyu/potential_scad_32_flow//YTHDC2/2024-12-06-03-22-00/
     RDKit          3D

 18 19  0  0  1  0  0  0  0  0999 V2000
    1.1787   -8.0297    3.5154 C   0  0  0  0  0  0  0  0  0  0  0  0
    1.1048   -9.2215    3.2892 C   0  0  0  0  0  0  0  0  0  0  0  0
    1.3627  -10.1721    4.3044 C   0  0  0  0  0  0  0  0  0  0  0  0
    1.0682  -11.5187    4.0618 C   0  0  0  0  0  0  0  0  0  0  0  0
    0.6332  -11.9655    2.9682 C   0  0  0  0  0  0  0  0  0  0  0  0
    0.4776  -11.1308    1.9203 C   0  0  0  0  0  0  0  0  0  0  0  0
    0.7470   -9.8274    2.0368 C   0  0  0  0  0  0  0  0  0  0  0  0
    1.0387   -7.0301    2.5175 C   0  0  0  0  0  0  0  0  0  0  0  0
    0.9130   -7.5288    1.2013 C   0  0  0  0  0  0  0  0  0  0  0  0
    0.7893   -8.7979    0.9542 C   0  0  0  0  0  0  0  0  0  0  0  0
    0.3998  -13.3695    2.7114 C   0  0  1  0  0  0  0  0  0  0  0  0
   -0.8069  -13.8090    2.3159 Cl  0  0  0  0  0  0  0  0  0  0  0  0
    1.6145  -14.0238    1.9290 C   0  0  0  0  0  0  0  0  0  0  0  0
    0.4561   -9.3423   -0.4899 C   0  0  0  0  0  0  0  0  0  0  0  0
    1.2367   -9.1769   -1.3421 O   0  0  0  0  0  0  0  0  0  0  0  0
   -0.8066   -9.6425   -0.7591 N   0  0  0  0  0  0  0  0  0  0  0  0
    1.7130  -15.1372    1.8554 C   0  0  0  0  0  0  0  0  0  0  0  0
    0.8841  -16.0488    2.8630 C   0  0  0  0  0  0  0  0  0  0  0  0
  5 11  1  0
 11 12  1  6
 11 13  1  0
 10 14  1  0
 14 15  2  0
 14 16  1  0
 13 17  2  3
 17 18  1  0
  2  3  1  0
  3  4  2  0
  4  5  1  0
  5  6  2  0
  6  7  1  0
  1  2  2  0
  2  7  1  0
  7 10  2  0
  9 10  1  0
  8  9  2  0
  1  8  1  0
M  END

$$$$
No_4441-/export/home/yangzhenyu/potential_scad_32_flow//YTHDC2/2024-12-06-03-22-00/
     RDKit          3D

 19 20  0  0  0  0  0  0  0  0999 V2000
    1.1787   -8.0297    3.5154 C   0  0  0  0  0  0  0  0  0  0  0  0
    1.0491   -6.8434    2.9820 C   0  0  0  0  0  0  0  0  0  0  0  0
    0.0950   -8.8404    3.2292 C   0  0  0  0  0  0  0  0  0  0  0  0
   -0.9173   -8.4596    2.5152 C   0  0  0  0  0  0  0  0  0  0  0  0
   -1.0331   -7.2162    2.0653 C   0  0  0  0  0  0  0  0  0  0  0  0
   -0.0105   -6.3168    2.3081 C   0  0  0  0  0  0  0  0  0  0  0  0
    0.1465  -10.2446    3.6981 C   0  0  0  0  0  0  0  0  0  0  0  0
   -1.0337  -10.8619    3.9439 C   0  0  0  0  0  0  0  0  0  0  0  0
   -2.1702  -10.4673    3.2991 C   0  0  0  0  0  0  0  0  0  0  0  0
   -2.1358   -9.2084    2.5791 C   0  0  0  0  0  0  0  0  0  0  0  0
   -0.0407   -4.9560    1.8452 C   0  0  0  0  0  0  0  0  0  0  0  0
   -0.7987   -4.0992    2.2489 C   0  0  0  0  0  0  0  0  0  0  0  0
   -1.9675   -4.2276    2.4969 C   0  0  0  0  0  0  0  0  0  0  0  0
   -0.2141   -2.7563    2.6212 C   0  0  0  0  0  0  0  0  0  0  0  0
   -2.8741   -3.3745    3.2010 C   0  0  0  0  0  0  0  0  0  0  0  0
    1.1068   -2.3878    2.5054 C   0  0  0  0  0  0  0  0  0  0  0  0
    1.2935  -10.7267    4.5535 C   0  0  0  0  0  0  0  0  0  0  0  0
    2.1919  -11.4616    3.7149 C   0  0  0  0  0  0  0  0  0  0  0  0
    1.7967  -11.9224    2.7300 C   0  0  0  0  0  0  0  0  0  0  0  0
  6 11  1  0
 11 12  1  0
 12 13  2  3
 12 14  1  0
 13 15  1  0
 14 16  1  0
  7 17  1  0
 17 18  1  0
 18 19  1  0
  4 10  2  0
  9 10  1  0
  8  9  2  0
  7  8  1  0
  3  7  2  0
  1  2  2  0
  2  6  1  0
  5  6  2  0
  4  5  1  0
  3  4  1  0
  1  3  1  0
M  END

$$$$
No_4442-/export/home/yangzhenyu/potential_scad_32_flow//YTHDC2/2024-12-06-03-22-00/
     RDKit          3D

 19 21  0  0  0  0  0  0  0  0999 V2000
    1.1787   -8.0297    3.5154 C   0  0  0  0  0  0  0  0  0  0  0  0
    1.0491   -6.8434    2.9820 C   0  0  0  0  0  0  0  0  0  0  0  0
    0.9905   -9.0774    2.6527 C   0  0  0  0  0  0  0  0  0  0  0  0
    1.1655  -10.4663    3.1286 C   0  0  0  0  0  0  0  0  0  0  0  0
    1.2197  -11.4898    2.5831 C   0  0  0  0  0  0  0  0  0  0  0  0
    1.3300  -11.5105    1.2989 C   0  0  0  0  0  0  0  0  0  0  0  0
    1.2392  -10.3705    0.4746 C   0  0  0  0  0  0  0  0  0  0  0  0
    1.0949   -9.1271    1.1996 C   0  0  0  0  0  0  0  0  0  0  0  0
    1.1753   -7.8819    0.6739 C   0  0  0  0  0  0  0  0  0  0  0  0
    1.1933   -6.7265    1.4900 C   0  0  0  0  0  0  0  0  0  0  0  0
    1.3340  -12.8323    3.1113 C   0  0  0  0  0  0  0  0  0  0  0  0
    1.3607  -13.9268    2.1896 C   0  0  0  0  0  0  0  0  0  0  0  0
    2.3155  -14.9086    2.3656 C   0  0  0  0  0  0  0  0  0  0  0  0
    1.3783   -5.5998    3.6149 C   0  0  0  0  0  0  0  0  0  0  0  0
    2.1845  -16.1415    2.0366 C   0  0  0  0  0  0  0  0  0  0  0  0
    1.2616  -16.5415    1.3148 C   0  0  0  0  0  0  0  0  0  0  0  0
    0.1761  -15.7354    1.1178 C   0  0  0  0  0  0  0  0  0  0  0  0
    0.2007  -14.4364    1.6490 C   0  0  0  0  0  0  0  0  0  0  0  0
   -0.8692  -13.6385    1.3930 C   0  0  0  0  0  0  0  0  0  0  0  0
  5 11  1  0
 11 12  1  0
  2 14  1  0
 18 19  1  0
 12 13  2  0
 13 15  1  0
 15 16  2  0
 16 17  1  0
 17 18  2  0
 12 18  1  0
  1  2  2  0
  2 10  1  0
  9 10  2  0
  8  9  1  0
  1  3  1  0
  3  4  2  0
  4  5  1  0
  5  6  2  0
  6  7  1  0
  7  8  2  0
  3  8  1  0
M  END

$$$$
No_4443-/export/home/yangzhenyu/potential_scad_32_flow//YTHDC2/2024-12-06-03-22-00/
     RDKit          3D

 19 21  0  0  0  0  0  0  0  0999 V2000
    1.1787   -8.0297    3.5154 C   0  0  0  0  0  0  0  0  0  0  0  0
    1.1048   -9.2215    3.2892 C   0  0  0  0  0  0  0  0  0  0  0  0
    1.3627  -10.1721    4.3044 C   0  0  0  0  0  0  0  0  0  0  0  0
    1.0682  -11.5187    4.0618 C   0  0  0  0  0  0  0  0  0  0  0  0
    0.6332  -11.9655    2.9682 C   0  0  0  0  0  0  0  0  0  0  0  0
    0.4776  -11.1308    1.9203 C   0  0  0  0  0  0  0  0  0  0  0  0
    0.7470   -9.8274    2.0368 C   0  0  0  0  0  0  0  0  0  0  0  0
    0.5535   -7.1314    2.6861 C   0  0  0  0  0  0  0  0  0  0  0  0
    0.2950   -7.6000    1.3275 C   0  0  0  0  0  0  0  0  0  0  0  0
    0.2693   -8.8631    1.0973 C   0  0  0  0  0  0  0  0  0  0  0  0
    0.4648  -13.6251    2.7005 C   0  0  0  0  0  0  0  0  0  0  0  0
   -0.5340  -13.9751    2.4058 N   0  0  0  0  0  0  0  0  0  0  0  0
    1.5824  -14.3447    2.9003 C   0  0  0  0  0  0  0  0  0  0  0  0
    1.3879  -15.6950    2.8049 C   0  0  0  0  0  0  0  0  0  0  0  0
    0.2224  -16.1847    2.4749 C   0  0  0  0  0  0  0  0  0  0  0  0
   -0.7764  -15.3065    2.1790 C   0  0  0  0  0  0  0  0  0  0  0  0
   -0.1243   -9.2710   -0.2023 C   0  0  0  0  0  0  0  0  0  0  0  0
    0.6224   -9.2657   -1.2188 O   0  0  0  0  0  0  0  0  0  0  0  0
   -1.4303   -9.3345   -0.4012 O   0  0  0  0  0  0  0  0  0  0  0  0
  5 11  1  0
 10 17  1  0
 17 18  1  0
 17 19  2  0
  2  3  1  0
  3  4  2  0
  4  5  1  0
  5  6  2  0
  6  7  1  0
  1  2  2  0
  2  7  1  0
  7 10  2  0
  9 10  1  0
  8  9  2  0
  1  8  1  0
 11 12  2  0
 12 16  1  0
 15 16  2  0
 14 15  1  0
 13 14  2  0
 11 13  1  0
M  END

$$$$
No_4444-/export/home/yangzhenyu/potential_scad_32_flow//YTHDC2/2024-12-06-03-22-00/
     RDKit          3D

 19 20  0  0  0  0  0  0  0  0999 V2000
    1.1787   -8.0297    3.5154 C   0  0  0  0  0  0  0  0  0  0  0  0
    1.0491   -6.8434    2.9820 C   0  0  0  0  0  0  0  0  0  0  0  0
    0.0950   -8.8404    3.2292 C   0  0  0  0  0  0  0  0  0  0  0  0
   -0.9173   -8.4596    2.5152 C   0  0  0  0  0  0  0  0  0  0  0  0
   -1.0331   -7.2162    2.0653 C   0  0  0  0  0  0  0  0  0  0  0  0
   -0.0105   -6.3168    2.3081 C   0  0  0  0  0  0  0  0  0  0  0  0
    0.0485   -4.9783    1.8782 C   0  0  0  0  0  0  0  0  0  0  0  0
   -0.6974   -4.6139    0.8644 F   0  0  0  0  0  0  0  0  0  0  0  0
    1.0548   -4.2479    2.0362 F   0  0  0  0  0  0  0  0  0  0  0  0
    0.1965  -10.2777    3.6545 C   0  0  0  0  0  0  0  0  0  0  0  0
    1.2859  -10.8418    4.0616 C   0  0  0  0  0  0  0  0  0  0  0  0
    1.2229  -12.2501    4.3978 C   0  0  0  0  0  0  0  0  0  0  0  0
    1.0044  -13.0084    3.1574 C   0  0  0  0  0  0  0  0  0  0  0  0
    0.0291  -12.5218    2.3419 C   0  0  0  0  0  0  0  0  0  0  0  0
   -0.2779  -11.1098    2.4635 C   0  0  0  0  0  0  0  0  0  0  0  0
    1.2463  -14.4068    3.1357 C   0  0  0  0  0  0  0  0  0  0  0  0
    2.1073  -14.8645    2.2817 C   0  0  0  0  0  0  0  0  0  0  0  0
    2.5131  -16.2211    2.2766 N   0  0  0  0  0  0  0  0  0  0  0  0
    1.8909  -16.9138    3.2040 C   0  0  0  0  0  0  0  0  0  0  0  0
  6  7  1  0
  7  8  1  0
  7  9  1  0
  3 10  1  0
 13 16  1  0
 16 17  1  0
 17 18  2  3
 18 19  1  0
  1  2  2  0
  2  6  1  0
  5  6  2  0
  4  5  1  0
  3  4  2  0
  1  3  1  0
 10 11  2  0
 11 12  1  0
 12 13  2  0
 13 14  1  0
 14 15  2  0
 10 15  1  0
M  END

$$$$
No_4445-/export/home/yangzhenyu/potential_scad_32_flow//YTHDC2/2024-12-06-03-22-00/
     RDKit          3D

 20 21  0  0  0  0  0  0  0  0999 V2000
    1.1787   -8.0297    3.5154 N   0  0  0  0  0  0  0  0  0  0  0  0
    1.0818   -9.0751    3.2053 C   0  0  0  0  0  0  0  0  0  0  0  0
    1.5216  -10.1164    3.9747 C   0  0  0  0  0  0  0  0  0  0  0  0
    1.4420  -11.4363    3.6461 C   0  0  0  0  0  0  0  0  0  0  0  0
    0.5969  -11.7648    2.6785 C   0  0  0  0  0  0  0  0  0  0  0  0
    0.0096  -10.8332    1.9506 C   0  0  0  0  0  0  0  0  0  0  0  0
    0.3359   -9.5186    2.1388 C   0  0  0  0  0  0  0  0  0  0  0  0
    1.1574   -6.9183    2.6875 C   0  0  0  0  0  0  0  0  0  0  0  0
    0.6585   -7.2272    1.4255 N   0  0  0  0  0  0  0  0  0  0  0  0
    0.2295   -8.4509    1.1163 C   0  0  0  0  0  0  0  0  0  0  0  0
   -0.3809   -8.6252   -0.0013 O   0  0  0  0  0  0  0  0  0  0  0  0
    0.2843  -13.1746    2.4354 C   0  0  0  0  0  0  0  0  0  0  0  0
   -0.9625  -13.5775    2.2287 C   0  0  0  0  0  0  0  0  0  0  0  0
    1.3420  -14.1154    2.3945 C   0  0  0  0  0  0  0  0  0  0  0  0
    2.4827  -14.0990    1.9661 C   0  0  0  0  0  0  0  0  0  0  0  0
   -2.0083  -13.1915    3.0058 O   0  0  0  0  0  0  0  0  0  0  0  0
   -1.1911  -14.4501    1.2330 N   0  0  0  0  0  0  0  0  0  0  0  0
    3.1944  -15.2309    1.8088 O   0  0  0  0  0  0  0  0  0  0  0  0
    2.7664  -13.2117    0.9529 O   0  0  0  0  0  0  0  0  0  0  0  0
   -2.4243  -15.1235    1.0757 C   0  0  0  0  0  0  0  0  0  0  0  0
  1  2  1  0
  8  9  1  0
  7 10  1  0
  9 10  1  0
 10 11  2  0
  5 12  1  0
 12 13  1  0
 12 14  1  0
 14 15  1  0
 13 16  2  0
 13 17  1  0
 15 18  1  0
 15 19  2  0
 17 20  1  0
  1  8  1  0
  2  3  2  0
  3  4  1  0
  4  5  2  0
  5  6  1  0
  6  7  2  0
  2  7  1  0
M  END

$$$$
No_4446-/export/home/yangzhenyu/potential_scad_32_flow//YTHDC2/2024-12-06-03-22-00/
     RDKit          3D

 20 22  0  0  0  0  0  0  0  0999 V2000
    1.1787   -8.0297    3.5154 C   0  0  0  0  0  0  0  0  0  0  0  0
    1.0491   -6.8434    2.9820 C   0  0  0  0  0  0  0  0  0  0  0  0
    0.0950   -8.8404    3.2292 C   0  0  0  0  0  0  0  0  0  0  0  0
   -0.9173   -8.4596    2.5152 C   0  0  0  0  0  0  0  0  0  0  0  0
   -1.0331   -7.2162    2.0653 C   0  0  0  0  0  0  0  0  0  0  0  0
   -0.0105   -6.3168    2.3081 C   0  0  0  0  0  0  0  0  0  0  0  0
    0.0485   -4.9783    1.8782 C   0  0  0  0  0  0  0  0  0  0  0  0
   -0.4744   -4.1559    2.2381 N   0  0  0  0  0  0  0  0  0  0  0  0
    0.2200  -10.4585    3.7735 Cl  0  0  0  0  0  0  0  0  0  0  0  0
    0.9214   -4.6627    0.8179 C   0  0  0  0  0  0  0  0  0  0  0  0
   -0.4084   -2.9697    1.6812 C   0  0  0  0  0  0  0  0  0  0  0  0
    0.6591   -3.2892    0.7256 C   0  0  0  0  0  0  0  0  0  0  0  0
   -2.1871   -6.8544    1.2635 C   0  0  0  0  0  0  0  0  0  0  0  0
   -3.2306   -6.4101    2.0071 C   0  0  0  0  0  0  0  0  0  0  0  0
   -3.4972   -6.5341    3.1775 C   0  0  0  0  0  0  0  0  0  0  0  0
   -4.5521   -5.9350    3.8688 C   0  0  0  0  0  0  0  0  0  0  0  0
   -5.3956   -5.2423    3.0499 C   0  0  0  0  0  0  0  0  0  0  0  0
   -4.4941   -5.5029    1.6246 C   0  0  0  0  0  0  0  0  0  0  0  0
   -2.1997   -6.9084   -0.0500 C   0  0  0  0  0  0  0  0  0  0  0  0
   -1.9275   -8.1170   -0.7347 Cl  0  0  0  0  0  0  0  0  0  0  0  0
  6  7  1  0
  7  8  2  0
  3  9  1  0
  7 10  1  0
  8 11  1  0
 10 12  1  0
 11 12  1  0
  5 13  1  0
 13 14  1  0
 14 15  2  0
 15 16  1  0
 16 17  2  0
 14 18  1  0
 17 18  1  0
 13 19  1  0
 19 20  1  0
  1  2  2  0
  2  6  1  0
  5  6  2  0
  4  5  1  0
  3  4  2  0
  1  3  1  0
M  END

$$$$
No_4447-/export/home/yangzhenyu/potential_scad_32_flow//YTHDC2/2024-12-06-03-22-00/
     RDKit          3D

 18 19  0  0  0  0  0  0  0  0999 V2000
    1.1787   -8.0297    3.5154 C   0  0  0  0  0  0  0  0  0  0  0  0
    1.0491   -6.8434    2.9820 C   0  0  0  0  0  0  0  0  0  0  0  0
    0.0950   -8.8404    3.2292 C   0  0  0  0  0  0  0  0  0  0  0  0
   -0.9173   -8.4596    2.5152 C   0  0  0  0  0  0  0  0  0  0  0  0
   -1.0331   -7.2162    2.0653 C   0  0  0  0  0  0  0  0  0  0  0  0
   -0.0105   -6.3168    2.3081 C   0  0  0  0  0  0  0  0  0  0  0  0
    0.1465  -10.2446    3.6981 C   0  0  0  0  0  0  0  0  0  0  0  0
    0.1907  -11.3369    2.8651 C   0  0  0  0  0  0  0  0  0  0  0  0
    1.0128  -11.8996    2.5974 C   0  0  0  0  0  0  0  0  0  0  0  0
    1.1895  -13.1640    1.9820 C   0  0  0  0  0  0  0  0  0  0  0  0
    0.1218  -13.6939    1.4868 C   0  0  0  0  0  0  0  0  0  0  0  0
   -1.0532  -13.0913    1.6355 C   0  0  0  0  0  0  0  0  0  0  0  0
   -1.0791  -11.9249    2.3376 C   0  0  0  0  0  0  0  0  0  0  0  0
   -0.0010   -4.9709    1.8906 C   0  0  0  0  0  0  0  0  0  0  0  0
   -0.5790   -4.6751    0.7493 C   0  0  0  0  0  0  0  0  0  0  0  0
   -1.1052   -3.5552    0.6215 C   0  0  0  0  0  0  0  0  0  0  0  0
   -0.5917   -2.4071    1.3023 C   0  0  0  0  0  0  0  0  0  0  0  0
    0.2573   -2.5988    2.2632 C   0  0  0  0  0  0  0  0  0  0  0  0
  3  7  1  0
  7  8  1  0
  6 14  1  0
 14 15  1  0
 15 16  2  3
 16 17  1  0
 17 18  2  0
  1  2  2  0
  2  6  1  0
  5  6  2  0
  4  5  1  0
  3  4  2  0
  1  3  1  0
  8  9  2  0
  9 10  1  0
 10 11  2  0
 11 12  1  0
 12 13  2  0
  8 13  1  0
M  END

$$$$
No_4448-/export/home/yangzhenyu/potential_scad_32_flow//YTHDC2/2024-12-06-03-22-00/
     RDKit          3D

 19 20  0  0  0  0  0  0  0  0999 V2000
    1.1787   -8.0297    3.5154 C   0  0  0  0  0  0  0  0  0  0  0  0
    1.0491   -6.8434    2.9820 C   0  0  0  0  0  0  0  0  0  0  0  0
    0.0950   -8.8404    3.2292 C   0  0  0  0  0  0  0  0  0  0  0  0
   -0.9173   -8.4596    2.5152 C   0  0  0  0  0  0  0  0  0  0  0  0
   -1.0331   -7.2162    2.0653 C   0  0  0  0  0  0  0  0  0  0  0  0
   -0.0105   -6.3168    2.3081 C   0  0  0  0  0  0  0  0  0  0  0  0
    0.1465  -10.2446    3.6981 C   0  0  0  0  0  0  0  0  0  0  0  0
    1.2433  -10.8239    4.0166 C   0  0  0  0  0  0  0  0  0  0  0  0
    1.1033  -12.2936    4.0346 C   0  0  0  0  0  0  0  0  0  0  0  0
    0.0220  -12.9035    3.7006 C   0  0  0  0  0  0  0  0  0  0  0  0
   -1.0373  -12.2681    3.2608 C   0  0  0  0  0  0  0  0  0  0  0  0
   -1.0058  -10.9076    3.2655 C   0  0  0  0  0  0  0  0  0  0  0  0
   -0.0949   -4.8269    1.7900 Cl  0  0  0  0  0  0  0  0  0  0  0  0
    0.0879  -14.3113    3.7295 O   0  0  0  0  0  0  0  0  0  0  0  0
    1.1392  -14.9898    3.2134 C   0  0  0  0  0  0  0  0  0  0  0  0
    1.0580  -16.3781    3.2204 C   0  0  0  0  0  0  0  0  0  0  0  0
    2.1864  -17.0979    2.7116 C   0  0  0  0  0  0  0  0  0  0  0  0
    3.3458  -16.4372    2.2725 C   0  0  0  0  0  0  0  0  0  0  0  0
    3.3467  -15.0461    2.2216 C   0  0  0  0  0  0  0  0  0  0  0  0
  3  7  1  0
  6 13  1  0
 10 14  1  0
 14 15  1  0
 15 16  1  0
 16 17  2  3
 17 18  1  0
 18 19  2  0
  1  2  2  0
  2  6  1  0
  5  6  2  0
  4  5  1  0
  3  4  2  0
  1  3  1  0
  7  8  2  0
  8  9  1  0
  9 10  2  0
 10 11  1  0
 11 12  2  0
  7 12  1  0
M  END

$$$$
No_4449-/export/home/yangzhenyu/potential_scad_32_flow//YTHDC2/2024-12-06-03-22-00/
     RDKit          3D

 19 19  0  0  1  0  0  0  0  0999 V2000
    1.1787   -8.0297    3.5154 O   0  0  0  0  0  0  0  0  0  0  0  0
    0.6747   -7.4019    2.7838 C   0  0  0  0  0  0  0  0  0  0  0  0
    0.5570   -6.0797    2.8560 C   0  0  0  0  0  0  0  0  0  0  0  0
   -0.2158   -5.3007    2.0284 C   0  0  0  0  0  0  0  0  0  0  0  0
   -0.8260   -5.9169    1.0290 C   0  0  0  0  0  0  0  0  0  0  0  0
   -0.6925   -7.2407    0.8216 C   0  0  0  0  0  0  0  0  0  0  0  0
    0.1645   -8.0156    1.6621 C   0  0  0  0  0  0  0  0  0  0  0  0
    0.4049   -9.3434    1.4877 C   0  0  2  0  0  0  0  0  0  0  0  0
    1.4848   -9.6364    0.5257 O   0  0  0  0  0  0  0  0  0  0  0  0
   -0.1369  -10.3567    1.8761 C   0  0  0  0  0  0  0  0  0  0  0  0
    0.2997  -11.6242    1.5596 C   0  0  0  0  0  0  0  0  0  0  0  0
   -0.4151  -12.8357    1.9143 C   0  0  0  0  0  0  0  0  0  0  0  0
   -0.1242  -13.8335    1.7597 C   0  0  0  0  0  0  0  0  0  0  0  0
    1.0912  -14.4936    1.8738 C   0  0  0  0  0  0  0  0  0  0  0  0
    2.2407  -13.5996    2.1536 C   0  0  0  0  0  0  0  0  0  0  0  0
    3.3980  -14.4403    2.2536 C   0  0  0  0  0  0  0  0  0  0  0  0
    1.2986  -15.8719    2.1042 C   0  0  0  0  0  0  0  0  0  0  0  0
    2.5358  -16.3196    2.2993 C   0  0  0  0  0  0  0  0  0  0  0  0
    2.5596  -17.8793    2.4426 C   0  0  0  0  0  0  0  0  0  0  0  0
  1  2  1  0
  7  8  1  0
  8  9  1  6
  8 10  1  0
 10 11  2  3
 11 12  1  0
 12 13  2  3
 13 14  1  0
 14 15  2  3
 15 16  1  0
 14 17  1  0
 17 18  2  3
 18 19  1  0
  2  3  2  0
  3  4  1  0
  4  5  2  0
  5  6  1  0
  6  7  2  0
  2  7  1  0
M  END

$$$$
No_4450-/export/home/yangzhenyu/potential_scad_32_flow//YTHDC2/2024-12-06-03-22-00/
     RDKit          3D

 19 20  0  0  0  0  0  0  0  0999 V2000
    1.1787   -8.0297    3.5154 C   0  0  0  0  0  0  0  0  0  0  0  0
    1.0491   -6.8434    2.9820 C   0  0  0  0  0  0  0  0  0  0  0  0
    0.0950   -8.8404    3.2292 C   0  0  0  0  0  0  0  0  0  0  0  0
   -0.9173   -8.4596    2.5152 C   0  0  0  0  0  0  0  0  0  0  0  0
   -1.0331   -7.2162    2.0653 C   0  0  0  0  0  0  0  0  0  0  0  0
   -0.0105   -6.3168    2.3081 C   0  0  0  0  0  0  0  0  0  0  0  0
    0.1465  -10.2446    3.6981 C   0  0  0  0  0  0  0  0  0  0  0  0
    0.1907  -11.3369    2.8651 C   0  0  0  0  0  0  0  0  0  0  0  0
    1.0128  -11.8996    2.5974 C   0  0  0  0  0  0  0  0  0  0  0  0
    1.1895  -13.1640    1.9819 C   0  0  0  0  0  0  0  0  0  0  0  0
    0.1218  -13.6939    1.4868 C   0  0  0  0  0  0  0  0  0  0  0  0
   -1.0532  -13.0913    1.6355 C   0  0  0  0  0  0  0  0  0  0  0  0
   -1.0791  -11.9249    2.3376 C   0  0  0  0  0  0  0  0  0  0  0  0
   -0.0010   -4.9709    1.8906 O   0  0  0  0  0  0  0  0  0  0  0  0
    0.8464   -4.0570    2.3862 C   0  0  0  0  0  0  0  0  0  0  0  0
    0.0013  -10.3924    5.0805 O   0  0  0  0  0  0  0  0  0  0  0  0
    2.4523  -13.9436    1.8926 Cl  0  0  0  0  0  0  0  0  0  0  0  0
   -0.0158  -14.8840    0.7286 S   0  0  0  0  0  0  0  0  0  0  0  0
   -0.1156  -14.6354   -0.6695 O   0  0  0  0  0  0  0  0  0  0  0  0
  3  7  1  0
  7  8  1  0
  6 14  1  0
 14 15  1  0
  7 16  2  0
 10 17  1  0
 11 18  1  0
 18 19  2  0
  1  2  2  0
  2  6  1  0
  5  6  2  0
  4  5  1  0
  3  4  2  0
  1  3  1  0
  8  9  2  0
  9 10  1  0
 10 11  2  0
 11 12  1  0
 12 13  2  0
  8 13  1  0
M  END

$$$$
No_4451-/export/home/yangzhenyu/potential_scad_32_flow//YTHDC2/2024-12-06-03-22-00/
     RDKit          3D

 18 18  0  0  1  0  0  0  0  0999 V2000
    1.1787   -8.0297    3.5154 C   0  0  0  0  0  0  0  0  0  0  0  0
    1.0491   -6.8434    2.9820 C   0  0  0  0  0  0  0  0  0  0  0  0
    0.0950   -8.8404    3.2292 C   0  0  0  0  0  0  0  0  0  0  0  0
   -0.9173   -8.4596    2.5152 C   0  0  0  0  0  0  0  0  0  0  0  0
   -1.0331   -7.2162    2.0653 C   0  0  0  0  0  0  0  0  0  0  0  0
   -0.0105   -6.3168    2.3081 C   0  0  0  0  0  0  0  0  0  0  0  0
    0.1465  -10.2446    3.6981 O   0  0  0  0  0  0  0  0  0  0  0  0
    0.0362   -4.9528    1.9186 C   0  0  0  0  0  0  0  0  0  0  0  0
   -0.7003   -4.1232    2.3687 O   0  0  0  0  0  0  0  0  0  0  0  0
    0.9523   -4.5548    0.9967 N   0  0  0  0  0  0  0  0  0  0  0  0
    0.6112  -11.3028    3.2207 C   0  0  1  0  0  0  0  0  0  0  0  0
    1.8590  -11.7090    3.6678 C   0  0  0  0  0  0  0  0  0  0  0  0
   -0.3124  -12.4175    2.9722 C   0  0  0  0  0  0  0  0  0  0  0  0
   -1.4870  -12.1841    2.7190 O   0  0  0  0  0  0  0  0  0  0  0  0
    0.3032  -13.5120    2.3361 C   0  0  0  0  0  0  0  0  0  0  0  0
    2.7423  -10.5060    4.4636 C   0  0  0  0  0  0  0  0  0  0  0  0
   -0.3757  -14.3029    1.7763 C   0  0  0  0  0  0  0  0  0  0  0  0
    0.3397  -15.6966    1.4328 C   0  0  0  0  0  0  0  0  0  0  0  0
  3  7  1  0
  6  8  1  0
  8  9  2  0
  8 10  1  0
  7 11  1  0
 11 12  1  1
 11 13  1  0
 13 14  2  0
 13 15  1  0
 12 16  1  0
 15 17  2  3
 17 18  1  0
  1  2  2  0
  2  6  1  0
  5  6  2  0
  4  5  1  0
  3  4  2  0
  1  3  1  0
M  END

$$$$
No_4452-/export/home/yangzhenyu/potential_scad_32_flow//YTHDC2/2024-12-06-03-22-00/
     RDKit          3D

 18 19  0  0  1  0  0  0  0  0999 V2000
    1.1787   -8.0297    3.5154 C   0  0  0  0  0  0  0  0  0  0  0  0
    1.0491   -6.8434    2.9820 C   0  0  0  0  0  0  0  0  0  0  0  0
    0.9905   -9.0774    2.6527 C   0  0  0  0  0  0  0  0  0  0  0  0
    0.7897   -8.9519    1.3691 C   0  0  0  0  0  0  0  0  0  0  0  0
    0.6550  -10.0985    0.4848 C   0  0  0  0  0  0  0  0  0  0  0  0
    0.7849   -6.5836    1.6043 C   0  0  0  0  0  0  0  0  0  0  0  0
    0.6652   -7.6671    0.8008 C   0  0  0  0  0  0  0  0  0  0  0  0
    0.0083   -9.7878   -0.7706 O   0  0  0  0  0  0  0  0  0  0  0  0
    0.6455  -11.3247    0.7191 N   0  0  0  0  0  0  0  0  0  0  0  0
    1.4108  -11.8630    1.9179 C   0  0  0  0  0  0  0  0  0  0  0  0
    1.4678  -13.1874    2.1194 C   0  0  2  0  0  0  0  0  0  0  0  0
    1.6168  -14.1531    1.1691 C   0  0  0  0  0  0  0  0  0  0  0  0
    1.0837  -15.3547    1.4208 C   0  0  0  0  0  0  0  0  0  0  0  0
    0.6949  -15.7022    2.7845 C   0  0  0  0  0  0  0  0  0  0  0  0
    0.9144  -14.1593    3.5137 C   0  0  0  0  0  0  0  0  0  0  0  0
    0.3442  -16.4629    3.6195 C   0  0  0  0  0  0  0  0  0  0  0  0
   -0.0466  -17.5810    3.1713 O   0  0  0  0  0  0  0  0  0  0  0  0
    0.4841  -16.4532    4.9967 O   0  0  0  0  0  0  0  0  0  0  0  0
  4  5  1  0
  5  8  2  0
  5  9  1  0
  9 10  2  3
 10 11  1  0
 11 12  1  0
 12 13  2  0
 13 14  1  0
 11 15  1  6
 14 15  1  0
 14 16  1  0
 16 17  2  0
 16 18  1  0
  1  2  2  0
  2  6  1  0
  6  7  2  0
  4  7  1  0
  3  4  2  0
  1  3  1  0
M  END

$$$$
No_4453-/export/home/yangzhenyu/potential_scad_32_flow//YTHDC2/2024-12-06-03-22-00/
     RDKit          3D

 18 19  0  0  0  0  0  0  0  0999 V2000
    1.1787   -8.0297    3.5154 C   0  0  0  0  0  0  0  0  0  0  0  0
    1.1048   -9.2215    3.2892 C   0  0  0  0  0  0  0  0  0  0  0  0
    1.3627  -10.1721    4.3044 C   0  0  0  0  0  0  0  0  0  0  0  0
    2.3720  -10.8948    4.2468 C   0  0  0  0  0  0  0  0  0  0  0  0
    1.0579   -7.0441    2.4219 C   0  0  0  0  0  0  0  0  0  0  0  0
    0.8578   -7.4970    1.1686 C   0  0  0  0  0  0  0  0  0  0  0  0
    0.7382   -8.7683    0.8754 C   0  0  0  0  0  0  0  0  0  0  0  0
    0.8882   -9.7347    1.9238 C   0  0  0  0  0  0  0  0  0  0  0  0
    1.6696  -10.7168    1.6369 C   0  0  0  0  0  0  0  0  0  0  0  0
    2.2169  -12.1538    3.5020 C   0  0  0  0  0  0  0  0  0  0  0  0
    2.1553  -11.9925    2.1157 N   0  0  0  0  0  0  0  0  0  0  0  0
    1.8915  -11.0896    0.2598 O   0  0  0  0  0  0  0  0  0  0  0  0
    1.0791   -5.3770    2.7833 O   0  0  0  0  0  0  0  0  0  0  0  0
    0.3735   -4.6292    2.1492 C   0  0  0  0  0  0  0  0  0  0  0  0
    2.2593  -13.3023    3.9288 O   0  0  0  0  0  0  0  0  0  0  0  0
   -0.8900   -4.7286    2.1602 C   0  0  0  0  0  0  0  0  0  0  0  0
   -1.5544   -4.6097    1.0190 C   0  0  0  0  0  0  0  0  0  0  0  0
   -0.8545   -3.9579   -0.0843 C   0  0  0  0  0  0  0  0  0  0  0  0
  2  3  1  0
  3  4  1  0
  8  9  1  0
  4 10  1  0
  9 11  1  0
 10 11  1  0
  9 12  2  0
  5 13  1  0
 13 14  1  0
 10 15  2  0
 14 16  1  0
 16 17  2  3
 17 18  1  0
  1  2  2  0
  2  8  1  0
  7  8  2  0
  6  7  1  0
  5  6  2  0
  1  5  1  0
M  END

$$$$
No_4454-/export/home/yangzhenyu/potential_scad_32_flow//YTHDC2/2024-12-06-03-22-00/
     RDKit          3D

 18 18  0  0  1  0  0  0  0  0999 V2000
    1.1787   -8.0297    3.5154 C   0  0  0  0  0  0  0  0  0  0  0  0
    1.1048   -9.2215    3.2892 C   0  0  0  0  0  0  0  0  0  0  0  0
    1.2339   -9.7611    2.0189 C   0  0  0  0  0  0  0  0  0  0  0  0
    1.3583   -9.0036    0.9764 C   0  0  0  0  0  0  0  0  0  0  0  0
    1.5996   -7.6362    1.1311 C   0  0  0  0  0  0  0  0  0  0  0  0
    1.4830   -7.0928    2.3626 C   0  0  0  0  0  0  0  0  0  0  0  0
    1.4898   -5.7274    2.6199 C   0  0  0  0  0  0  0  0  0  0  0  0
    1.1882  -11.3736    1.8424 C   0  0  0  0  0  0  0  0  0  0  0  0
    1.0670  -11.6643    0.5390 O   0  0  0  0  0  0  0  0  0  0  0  0
    1.0275  -12.1173    2.7421 O   0  0  0  0  0  0  0  0  0  0  0  0
    1.6864   -5.1732    3.8609 O   0  0  0  0  0  0  0  0  0  0  0  0
    1.3584   -4.8380    1.6585 O   0  0  0  0  0  0  0  0  0  0  0  0
    1.0033  -13.4637    2.6120 C   0  0  1  0  0  0  0  0  0  0  0  0
    2.1569  -14.2357    2.7773 C   0  0  0  0  0  0  0  0  0  0  0  0
    2.0785  -15.6492    2.4915 O   0  0  0  0  0  0  0  0  0  0  0  0
    0.9503  -16.0799    2.8555 C   0  0  0  0  0  0  0  0  0  0  0  0
   -0.2527  -14.1353    2.5049 C   0  0  0  0  0  0  0  0  0  0  0  0
   -1.3804  -13.5152    2.3907 C   0  0  0  0  0  0  0  0  0  0  0  0
  6  7  1  0
  3  8  1  0
  8  9  2  0
  8 10  1  0
  7 11  1  0
  7 12  2  0
 10 13  1  0
 13 14  1  1
 14 15  1  0
 15 16  1  0
 13 17  1  0
 17 18  1  0
  1  2  2  0
  2  3  1  0
  3  4  2  0
  4  5  1  0
  5  6  2  0
  1  6  1  0
M  END

$$$$
No_4455-/export/home/yangzhenyu/potential_scad_32_flow//YTHDC2/2024-12-06-03-22-00/
     RDKit          3D

 18 19  0  0  0  0  0  0  0  0999 V2000
    1.1787   -8.0297    3.5154 C   0  0  0  0  0  0  0  0  0  0  0  0
    1.0491   -6.8434    2.9820 C   0  0  0  0  0  0  0  0  0  0  0  0
    0.0950   -8.8404    3.2292 C   0  0  0  0  0  0  0  0  0  0  0  0
   -0.9173   -8.4596    2.5152 C   0  0  0  0  0  0  0  0  0  0  0  0
   -1.0331   -7.2162    2.0653 C   0  0  0  0  0  0  0  0  0  0  0  0
   -0.0105   -6.3168    2.3081 C   0  0  0  0  0  0  0  0  0  0  0  0
    0.1150   -4.9910    1.8495 C   0  0  0  0  0  0  0  0  0  0  0  0
   -0.5774   -4.1593    2.0596 N   0  0  0  0  0  0  0  0  0  0  0  0
    0.1680  -10.2877    3.7012 C   0  0  0  0  0  0  0  0  0  0  0  0
    1.2049  -10.9428    4.1094 C   0  0  0  0  0  0  0  0  0  0  0  0
    1.6877  -11.8373    3.2242 C   0  0  0  0  0  0  0  0  0  0  0  0
    1.4719  -11.6302    1.9507 C   0  0  0  0  0  0  0  0  0  0  0  0
    1.2632  -12.8522    1.1854 C   0  0  0  0  0  0  0  0  0  0  0  0
    1.1213  -14.0427    1.5887 C   0  0  0  0  0  0  0  0  0  0  0  0
    1.2799  -14.2175    3.0064 C   0  0  0  0  0  0  0  0  0  0  0  0
    1.5384  -13.1354    3.8681 C   0  0  0  0  0  0  0  0  0  0  0  0
   -0.6047   -2.9190    1.5108 C   0  0  0  0  0  0  0  0  0  0  0  0
    0.3412   -2.8442    0.5888 C   0  0  0  0  0  0  0  0  0  0  0  0
  6  7  1  0
  7  8  1  0
  3  9  1  0
  9 10  1  0
 10 11  1  0
  8 17  2  3
 17 18  1  0
 11 12  2  0
 12 13  1  0
 13 14  2  0
 14 15  1  0
 15 16  2  0
 11 16  1  0
  1  2  2  0
  2  6  1  0
  5  6  2  0
  4  5  1  0
  3  4  2  0
  1  3  1  0
M  END

$$$$
No_4456-/export/home/yangzhenyu/potential_scad_32_flow//YTHDC2/2024-12-06-03-22-00/
     RDKit          3D

 19 20  0  0  0  0  0  0  0  0999 V2000
    1.1787   -8.0297    3.5154 C   0  0  0  0  0  0  0  0  0  0  0  0
    1.1048   -9.2215    3.2892 C   0  0  0  0  0  0  0  0  0  0  0  0
    1.3627  -10.1721    4.3044 C   0  0  0  0  0  0  0  0  0  0  0  0
    1.7354  -11.4730    3.9023 C   0  0  0  0  0  0  0  0  0  0  0  0
    1.8080  -11.8127    2.7216 C   0  0  0  0  0  0  0  0  0  0  0  0
    1.5854  -11.0021    1.7249 C   0  0  0  0  0  0  0  0  0  0  0  0
    1.3573   -9.7389    1.9287 C   0  0  0  0  0  0  0  0  0  0  0  0
    1.1102   -8.8712    0.9017 C   0  0  0  0  0  0  0  0  0  0  0  0
    0.5299   -7.6926    1.0325 C   0  0  0  0  0  0  0  0  0  0  0  0
    0.7526   -7.0802    2.3301 C   0  0  0  0  0  0  0  0  0  0  0  0
    2.0515  -13.2522    2.4284 O   0  0  0  0  0  0  0  0  0  0  0  0
    0.4866   -5.6528    2.5258 C   0  0  0  0  0  0  0  0  0  0  0  0
    0.9083   -4.8441    1.5811 C   0  0  0  0  0  0  0  0  0  0  0  0
    0.4821   -3.4080    1.6308 C   0  0  0  0  0  0  0  0  0  0  0  0
    0.8415   -2.7664    0.6238 C   0  0  0  0  0  0  0  0  0  0  0  0
    2.0359  -13.8162    1.2738 C   0  0  0  0  0  0  0  0  0  0  0  0
    0.0553   -2.8980   -0.6036 C   0  0  0  0  0  0  0  0  0  0  0  0
   -1.1732   -2.3258   -0.6093 C   0  0  0  0  0  0  0  0  0  0  0  0
   -2.1392   -2.8461   -0.7981 C   0  0  0  0  0  0  0  0  0  0  0  0
  5 11  1  0
 10 12  1  0
 12 13  1  0
 13 14  1  0
 14 15  1  0
 11 16  1  0
 15 17  1  0
 17 18  1  0
 18 19  1  0
  1  2  2  0
  7  8  2  0
  8  9  1  0
  9 10  2  0
  1 10  1  0
  2  3  1  0
  3  4  2  0
  4  5  1  0
  5  6  2  0
  6  7  1  0
  2  7  1  0
M  END

$$$$
No_4457-/export/home/yangzhenyu/potential_scad_32_flow//YTHDC2/2024-12-06-03-22-00/
     RDKit          3D

 19 20  0  0  0  0  0  0  0  0999 V2000
    1.1787   -8.0297    3.5154 C   0  0  0  0  0  0  0  0  0  0  0  0
    1.0491   -6.8434    2.9820 C   0  0  0  0  0  0  0  0  0  0  0  0
    0.9905   -9.0774    2.6527 C   0  0  0  0  0  0  0  0  0  0  0  0
    1.1655  -10.4663    3.1286 C   0  0  0  0  0  0  0  0  0  0  0  0
    1.2197  -11.4898    2.5831 C   0  0  0  0  0  0  0  0  0  0  0  0
    1.0589  -11.4458    1.1293 C   0  0  0  0  0  0  0  0  0  0  0  0
    0.9638  -10.3069    0.4651 C   0  0  0  0  0  0  0  0  0  0  0  0
    0.9191   -9.0789    1.1942 C   0  0  0  0  0  0  0  0  0  0  0  0
    0.9198   -7.8339    0.6158 C   0  0  0  0  0  0  0  0  0  0  0  0
    1.0184   -6.6904    1.4953 C   0  0  0  0  0  0  0  0  0  0  0  0
    1.3445  -12.8198    3.0746 C   0  0  0  0  0  0  0  0  0  0  0  0
    2.4561  -13.4589    3.0887 N   0  0  0  0  0  0  0  0  0  0  0  0
    1.3482   -5.6061    3.6581 C   0  0  0  0  0  0  0  0  0  0  0  0
    0.8840   -4.4153    3.2984 O   0  0  0  0  0  0  0  0  0  0  0  0
    0.2312  -13.4770    3.4419 O   0  0  0  0  0  0  0  0  0  0  0  0
    1.7258   -5.6676    4.7998 O   0  0  0  0  0  0  0  0  0  0  0  0
    1.3402  -10.4869    4.5999 O   0  0  0  0  0  0  0  0  0  0  0  0
    2.5761  -14.7678    2.7308 C   0  0  0  0  0  0  0  0  0  0  0  0
    1.7501  -15.7881    3.3270 C   0  0  0  0  0  0  0  0  0  0  0  0
  5 11  1  0
 11 12  1  0
  2 13  1  0
 13 14  2  0
 11 15  2  0
 13 16  1  0
  4 17  1  0
 12 18  1  0
 18 19  1  0
  1  2  2  0
  2 10  1  0
  9 10  2  0
  8  9  1  0
  1  3  1  0
  3  4  2  0
  4  5  1  0
  5  6  2  0
  6  7  1  0
  7  8  2  0
  3  8  1  0
M  END

$$$$
No_4458-/export/home/yangzhenyu/potential_scad_32_flow//YTHDC2/2024-12-06-03-22-00/
     RDKit          3D

 18 19  0  0  1  0  0  0  0  0999 V2000
    1.1787   -8.0297    3.5154 C   0  0  0  0  0  0  0  0  0  0  0  0
    1.0491   -6.8434    2.9820 C   0  0  0  0  0  0  0  0  0  0  0  0
    1.0690   -9.1150    2.7206 C   0  0  1  0  0  0  0  0  0  0  0  0
    0.9922   -6.9198    1.5405 C   0  0  0  0  0  0  0  0  0  0  0  0
    1.0882   -9.1996    1.4643 C   0  0  0  0  0  0  0  0  0  0  0  0
    1.0023   -8.0062    0.7959 C   0  0  0  0  0  0  0  0  0  0  0  0
    0.9661   -7.9504   -0.5033 C   0  0  0  0  0  0  0  0  0  0  0  0
    1.8750   -8.3497   -1.3469 O   0  0  0  0  0  0  0  0  0  0  0  0
   -0.1687   -7.6433   -1.1481 O   0  0  0  0  0  0  0  0  0  0  0  0
    1.2597  -10.5681    3.3377 C   0  0  0  0  0  0  0  0  0  0  0  0
    2.2879  -10.9958    3.8058 C   0  0  0  0  0  0  0  0  0  0  0  0
    0.1241  -11.3256    3.2941 C   0  0  2  0  0  0  0  0  0  0  0  0
    0.3560  -12.7115    3.1989 C   0  0  0  0  0  0  0  0  0  0  0  0
    2.6002  -12.3205    4.0481 N   0  0  0  0  0  0  0  0  0  0  0  0
    1.6402  -13.2213    3.6625 C   0  0  0  0  0  0  0  0  0  0  0  0
    1.7724  -14.5187    3.7612 O   0  0  0  0  0  0  0  0  0  0  0  0
    1.0026   -5.5937    0.8863 O   0  0  0  0  0  0  0  0  0  0  0  0
   -1.1034  -10.9452    2.8340 C   0  0  0  0  0  0  0  0  0  0  0  0
  1  3  1  0
  2  4  1  0
  4  6  1  0
  5  6  1  0
  6  7  1  0
  7  8  2  0
  7  9  1  0
  3 10  1  1
 10 11  1  0
 10 12  1  0
 13 15  1  0
 14 15  1  0
 15 16  2  0
  4 17  2  0
 12 18  1  6
 12 13  1  0
 11 14  1  0
  1  2  1  0
  3  5  1  0
M  END

$$$$
No_4459-/export/home/yangzhenyu/potential_scad_32_flow//YTHDC2/2024-12-06-03-22-00/
     RDKit          3D

 20 21  0  0  0  0  0  0  0  0999 V2000
    1.1787   -8.0297    3.5154 C   0  0  0  0  0  0  0  0  0  0  0  0
    1.0491   -6.8434    2.9820 C   0  0  0  0  0  0  0  0  0  0  0  0
    0.9905   -9.0774    2.6527 C   0  0  0  0  0  0  0  0  0  0  0  0
    0.7897   -8.9519    1.3691 C   0  0  0  0  0  0  0  0  0  0  0  0
    0.7018   -7.7198    0.7892 C   0  0  0  0  0  0  0  0  0  0  0  0
    0.8918   -6.5957    1.6117 C   0  0  0  0  0  0  0  0  0  0  0  0
    1.0998  -10.4710    3.2437 C   0  0  0  0  0  0  0  0  0  0  0  0
    1.3102  -11.5554    2.5214 N   0  0  0  0  0  0  0  0  0  0  0  0
    1.4271  -12.7713    3.1438 C   0  0  0  0  0  0  0  0  0  0  0  0
    1.0006  -13.9759    2.2830 C   0  0  0  0  0  0  0  0  0  0  0  0
    0.4477  -13.6997    1.1088 C   0  0  0  0  0  0  0  0  0  0  0  0
    0.0764  -14.7904    0.3942 C   0  0  0  0  0  0  0  0  0  0  0  0
    0.1237  -15.9839    0.7272 C   0  0  0  0  0  0  0  0  0  0  0  0
    0.6823  -16.3144    1.9980 C   0  0  0  0  0  0  0  0  0  0  0  0
    1.1153  -15.2675    2.8011 C   0  0  0  0  0  0  0  0  0  0  0  0
    1.0006  -10.5566    4.5889 O   0  0  0  0  0  0  0  0  0  0  0  0
    0.8485   -5.2638    1.2161 C   0  0  0  0  0  0  0  0  0  0  0  0
   -0.2277   -4.7761    0.7341 O   0  0  0  0  0  0  0  0  0  0  0  0
    1.8334   -4.4594    1.4041 O   0  0  0  0  0  0  0  0  0  0  0  0
    0.7673  -17.6292    2.5028 O   0  0  0  0  0  0  0  0  0  0  0  0
  3  7  1  0
  7  8  1  0
  8  9  1  0
  9 10  1  0
  7 16  2  0
  6 17  1  0
 17 18  2  0
 17 19  1  0
 14 20  1  0
  1  2  2  0
  2  6  1  0
  5  6  2  0
  4  5  1  0
  3  4  2  0
  1  3  1  0
 10 11  2  0
 11 12  1  0
 12 13  2  0
 13 14  1  0
 14 15  2  0
 10 15  1  0
M  END

$$$$
No_4460-/export/home/yangzhenyu/potential_scad_32_flow//YTHDC2/2024-12-06-03-22-00/
     RDKit          3D

 20 21  0  0  0  0  0  0  0  0999 V2000
    1.1787   -8.0297    3.5154 C   0  0  0  0  0  0  0  0  0  0  0  0
    1.0491   -6.8434    2.9820 C   0  0  0  0  0  0  0  0  0  0  0  0
    1.9985   -8.9840    2.8958 C   0  0  0  0  0  0  0  0  0  0  0  0
    1.9135  -10.3404    3.6266 C   0  0  0  0  0  0  0  0  0  0  0  0
    0.7479  -10.9191    3.7202 C   0  0  0  0  0  0  0  0  0  0  0  0
    1.3327   -6.5751    1.7543 C   0  0  0  0  0  0  0  0  0  0  0  0
    0.6763  -12.2837    3.6804 C   0  0  0  0  0  0  0  0  0  0  0  0
    0.9067   -5.3292    1.1489 C   0  0  0  0  0  0  0  0  0  0  0  0
   -0.1106  -12.8688    2.8140 C   0  0  0  0  0  0  0  0  0  0  0  0
   -1.2304  -12.1524    2.4432 C   0  0  0  0  0  0  0  0  0  0  0  0
   -1.3639  -10.8529    2.7315 C   0  0  0  0  0  0  0  0  0  0  0  0
   -0.3229  -10.1625    3.3423 C   0  0  0  0  0  0  0  0  0  0  0  0
   -0.5443   -5.0755    1.4336 C   0  0  0  0  0  0  0  0  0  0  0  0
   -1.1028   -5.7874    2.5934 C   0  0  0  0  0  0  0  0  0  0  0  0
   -0.3769   -6.6893    3.2078 N   0  0  0  0  0  0  0  0  0  0  0  0
   -1.1905   -4.0684    0.7706 C   0  0  0  0  0  0  0  0  0  0  0  0
   -0.8819   -2.8323    0.9537 C   0  0  0  0  0  0  0  0  0  0  0  0
   -1.4503   -1.8717    0.0366 C   0  0  0  0  0  0  0  0  0  0  0  0
   -2.3495   -2.3946   -0.9503 C   0  0  0  0  0  0  0  0  0  0  0  0
   -2.6199   -3.6284   -1.0865 C   0  0  0  0  0  0  0  0  0  0  0  0
  1  2  1  0
  1  3  1  0
  3  4  1  0
  4  5  1  0
 13 16  1  0
 16 17  2  3
 17 18  1  0
 18 19  2  3
 19 20  1  0
  2  6  2  0
  6  8  1  0
  8 13  2  0
 13 14  1  0
 14 15  2  0
  2 15  1  0
  5  7  2  0
  7  9  1  0
  9 10  2  0
 10 11  1  0
 11 12  2  0
  5 12  1  0
M  END

$$$$
No_4461-/export/home/yangzhenyu/potential_scad_32_flow//YTHDC2/2024-12-06-03-22-00/
     RDKit          3D

 19 19  0  0  0  0  0  0  0  0999 V2000
    1.1787   -8.0297    3.5154 C   0  0  0  0  0  0  0  0  0  0  0  0
    1.0491   -6.8434    2.9820 C   0  0  0  0  0  0  0  0  0  0  0  0
    0.0950   -8.8404    3.2292 C   0  0  0  0  0  0  0  0  0  0  0  0
   -0.9173   -8.4596    2.5152 C   0  0  0  0  0  0  0  0  0  0  0  0
   -1.0331   -7.2162    2.0653 C   0  0  0  0  0  0  0  0  0  0  0  0
   -0.0105   -6.3168    2.3081 C   0  0  0  0  0  0  0  0  0  0  0  0
    0.1150   -4.9910    1.8495 C   0  0  0  0  0  0  0  0  0  0  0  0
   -0.5774   -4.1593    2.0596 N   0  0  0  0  0  0  0  0  0  0  0  0
    0.1680  -10.2877    3.7012 C   0  0  0  0  0  0  0  0  0  0  0  0
   -1.0762  -10.9526    3.8329 O   0  0  0  0  0  0  0  0  0  0  0  0
    1.2246  -10.8115    4.3385 N   0  0  0  0  0  0  0  0  0  0  0  0
    1.7508  -11.9799    3.9429 C   0  0  0  0  0  0  0  0  0  0  0  0
    1.3102  -12.3800    2.5686 C   0  0  0  0  0  0  0  0  0  0  0  0
    1.6922  -11.6352    1.5410 C   0  0  0  0  0  0  0  0  0  0  0  0
    2.7436  -10.5836    1.6621 C   0  0  0  0  0  0  0  0  0  0  0  0
    1.1931  -11.7156    0.3252 C   0  0  0  0  0  0  0  0  0  0  0  0
   -0.2632  -11.5687    0.2749 C   0  0  0  0  0  0  0  0  0  0  0  0
   -1.0306  -12.6520    0.6746 O   0  0  0  0  0  0  0  0  0  0  0  0
   -0.8461  -10.3990    0.3453 O   0  0  0  0  0  0  0  0  0  0  0  0
  6  7  1  0
  7  8  1  0
  3  9  1  0
  9 10  2  0
  9 11  1  0
 11 12  1  0
 12 13  1  0
 13 14  1  0
 14 15  1  0
 14 16  1  0
 16 17  1  0
 17 18  2  0
 17 19  1  0
  1  2  2  0
  2  6  1  0
  5  6  2  0
  4  5  1  0
  3  4  2  0
  1  3  1  0
M  END

$$$$
No_4462-/export/home/yangzhenyu/potential_scad_32_flow//YTHDC2/2024-12-06-03-22-00/
     RDKit          3D

 19 21  0  0  0  0  0  0  0  0999 V2000
    1.1787   -8.0297    3.5154 C   0  0  0  0  0  0  0  0  0  0  0  0
    1.1048   -9.2215    3.2892 C   0  0  0  0  0  0  0  0  0  0  0  0
    1.3627  -10.1721    4.3044 C   0  0  0  0  0  0  0  0  0  0  0  0
    1.7354  -11.4730    3.9023 C   0  0  0  0  0  0  0  0  0  0  0  0
    1.8080  -11.8127    2.7216 C   0  0  0  0  0  0  0  0  0  0  0  0
    1.5854  -11.0021    1.7249 C   0  0  0  0  0  0  0  0  0  0  0  0
    1.3573   -9.7389    1.9287 C   0  0  0  0  0  0  0  0  0  0  0  0
    1.1102   -8.8712    0.9017 C   0  0  0  0  0  0  0  0  0  0  0  0
    0.5299   -7.6926    1.0325 C   0  0  0  0  0  0  0  0  0  0  0  0
    0.7526   -7.0802    2.3301 C   0  0  0  0  0  0  0  0  0  0  0  0
    2.0528  -13.2563    2.4302 C   0  0  0  0  0  0  0  0  0  0  0  0
    1.1153  -14.0523    1.8967 C   0  0  0  0  0  0  0  0  0  0  0  0
    0.0850  -13.6136    1.6160 C   0  0  0  0  0  0  0  0  0  0  0  0
   -0.9190  -14.3427    0.8793 C   0  0  0  0  0  0  0  0  0  0  0  0
    0.4712   -5.7205    2.5511 C   0  0  0  0  0  0  0  0  0  0  0  0
   -2.1038  -13.8135    0.5344 C   0  0  0  0  0  0  0  0  0  0  0  0
   -2.4919  -12.5601    0.9550 C   0  0  0  0  0  0  0  0  0  0  0  0
   -1.7225  -11.8418    1.8863 C   0  0  0  0  0  0  0  0  0  0  0  0
   -0.4986  -12.4244    2.3349 C   0  0  0  0  0  0  0  0  0  0  0  0
  5 11  1  0
 11 12  1  0
 10 15  1  0
 12 13  1  0
  1  2  2  0
  7  8  2  0
  8  9  1  0
  9 10  2  0
  1 10  1  0
  2  3  1  0
  3  4  2  0
  4  5  1  0
  5  6  2  0
  6  7  1  0
  2  7  1  0
 13 14  2  0
 14 16  1  0
 16 17  2  0
 17 18  1  0
 18 19  2  0
 13 19  1  0
M  END

$$$$
No_4463-/export/home/yangzhenyu/potential_scad_32_flow//YTHDC2/2024-12-06-03-22-00/
     RDKit          3D

 20 22  0  0  0  0  0  0  0  0999 V2000
    1.1787   -8.0297    3.5154 N   0  0  0  0  0  0  0  0  0  0  0  0
    1.0818   -9.0751    3.2053 C   0  0  0  0  0  0  0  0  0  0  0  0
    1.5216  -10.1164    3.9747 C   0  0  0  0  0  0  0  0  0  0  0  0
    1.4420  -11.4363    3.6461 C   0  0  0  0  0  0  0  0  0  0  0  0
    0.5969  -11.7648    2.6785 C   0  0  0  0  0  0  0  0  0  0  0  0
    0.0096  -10.8332    1.9506 C   0  0  0  0  0  0  0  0  0  0  0  0
    0.3359   -9.5186    2.1388 C   0  0  0  0  0  0  0  0  0  0  0  0
    0.8819   -6.9011    2.6487 C   0  0  0  0  0  0  0  0  0  0  0  0
    0.4076   -7.2265    1.4607 N   0  0  0  0  0  0  0  0  0  0  0  0
    0.0633   -8.4448    1.1740 C   0  0  0  0  0  0  0  0  0  0  0  0
   -0.7726   -8.6869    0.1565 C   0  0  0  0  0  0  0  0  0  0  0  0
   -1.1235   -8.0262   -0.6281 C   0  0  0  0  0  0  0  0  0  0  0  0
   -1.8700   -8.4345   -1.8253 C   0  0  0  0  0  0  0  0  0  0  0  0
   -2.1820   -9.6192   -2.0288 C   0  0  0  0  0  0  0  0  0  0  0  0
   -1.8169  -10.5506   -1.1671 C   0  0  0  0  0  0  0  0  0  0  0  0
   -1.0578  -10.2626   -0.0733 C   0  0  0  0  0  0  0  0  0  0  0  0
    0.4777  -13.2135    2.4838 Cl  0  0  0  0  0  0  0  0  0  0  0  0
    1.3094   -5.5593    3.0111 C   0  0  0  0  0  0  0  0  0  0  0  0
   -2.9934  -10.0220   -3.3159 C   0  0  0  0  0  0  0  0  0  0  0  0
   -4.1894  -10.1065   -3.1993 C   0  0  0  0  0  0  0  0  0  0  0  0
 10 11  1  0
  5 17  1  0
  8 18  1  0
 14 19  1  0
 19 20  1  0
 11 12  2  0
 12 13  1  0
 13 14  2  0
 14 15  1  0
 15 16  2  0
 11 16  1  0
  2  3  1  0
  3  4  2  0
  4  5  1  0
  5  6  2  0
  6  7  1  0
  1  2  2  0
  2  7  1  0
  7 10  2  0
  9 10  1  0
  8  9  2  0
  1  8  1  0
M  END

$$$$
No_4464-/export/home/yangzhenyu/potential_scad_32_flow//YTHDC2/2024-12-06-03-22-00/
     RDKit          3D

 18 18  0  0  0  0  0  0  0  0999 V2000
    1.1787   -8.0297    3.5154 Cl  0  0  0  0  0  0  0  0  0  0  0  0
    0.6122   -7.9650    2.5747 C   0  0  0  0  0  0  0  0  0  0  0  0
    0.4809   -9.1882    1.8138 C   0  0  0  0  0  0  0  0  0  0  0  0
    0.0192   -9.0891    0.5546 C   0  0  0  0  0  0  0  0  0  0  0  0
   -0.4655   -7.9863   -0.1524 C   0  0  0  0  0  0  0  0  0  0  0  0
   -0.6578   -7.0069    0.6000 C   0  0  0  0  0  0  0  0  0  0  0  0
   -0.0533   -6.8611    1.9763 C   0  0  0  0  0  0  0  0  0  0  0  0
   -0.0247   -5.6262    2.6620 C   0  0  0  0  0  0  0  0  0  0  0  0
   -1.1385   -4.9374    2.8361 C   0  0  0  0  0  0  0  0  0  0  0  0
   -1.1909   -3.5649    3.1331 C   0  0  0  0  0  0  0  0  0  0  0  0
    1.3461  -10.6391    2.2352 C   0  0  0  0  0  0  0  0  0  0  0  0
    1.8018  -11.2273    1.3144 C   0  0  0  0  0  0  0  0  0  0  0  0
    1.3166  -12.2634    0.9728 C   0  0  0  0  0  0  0  0  0  0  0  0
    0.5769  -13.2087    1.4077 C   0  0  0  0  0  0  0  0  0  0  0  0
    0.1453  -14.3801    0.8519 C   0  0  0  0  0  0  0  0  0  0  0  0
   -0.6644  -15.2588    1.6122 C   0  0  0  0  0  0  0  0  0  0  0  0
   -0.5934  -14.9217    3.0843 C   0  0  0  0  0  0  0  0  0  0  0  0
    0.0039  -13.9942    3.6652 C   0  0  0  0  0  0  0  0  0  0  0  0
  1  2  1  0
  7  8  1  0
  8  9  2  3
  9 10  1  0
  3 11  1  0
 11 12  1  0
 12 13  2  3
 13 14  1  0
 14 15  2  3
 15 16  1  0
 16 17  2  3
 17 18  1  0
  2  3  2  0
  3  4  1  0
  4  5  2  0
  5  6  1  0
  6  7  2  0
  2  7  1  0
M  END

$$$$
No_4465-/export/home/yangzhenyu/potential_scad_32_flow//YTHDC2/2024-12-06-03-22-00/
     RDKit          3D

 18 19  0  0  1  0  0  0  0  0999 V2000
    1.1787   -8.0297    3.5154 C   0  0  0  0  0  0  0  0  0  0  0  0
    1.0491   -6.8434    2.9820 C   0  0  1  0  0  0  0  0  0  0  0  0
    0.9905   -9.0774    2.6527 C   0  0  1  0  0  0  0  0  0  0  0  0
    0.9687   -8.6883    1.3634 C   0  0  0  0  0  0  0  0  0  0  0  0
    1.4077   -5.5947    3.8457 C   0  0  0  0  0  0  0  0  0  0  0  0
    0.9809   -7.5115    0.7893 C   0  0  0  0  0  0  0  0  0  0  0  0
    1.2491   -6.4529    1.6838 C   0  0  0  0  0  0  0  0  0  0  0  0
    0.9479  -10.4341    3.0630 C   0  0  1  0  0  0  0  0  0  0  0  0
   -0.1625  -11.0737    3.1452 C   0  0  1  0  0  0  0  0  0  0  0  0
   -1.2948  -10.3980    3.5749 C   0  0  0  0  0  0  0  0  0  0  0  0
   -2.4482  -10.4933    2.9504 C   0  0  0  0  0  0  0  0  0  0  0  0
   -2.6699  -11.6413    2.2256 C   0  0  0  0  0  0  0  0  0  0  0  0
   -1.5976  -12.4817    1.9112 C   0  0  0  0  0  0  0  0  0  0  0  0
   -0.3423  -12.2315    2.3578 C   0  0  0  0  0  0  0  0  0  0  0  0
    2.1444  -11.1180    2.8192 C   0  0  0  0  0  0  0  0  0  0  0  0
    1.1646   -5.1830    1.2181 O   0  0  0  0  0  0  0  0  0  0  0  0
    0.7320  -12.9142    1.9373 O   0  0  0  0  0  0  0  0  0  0  0  0
    2.7175  -11.7318    4.0279 C   0  0  0  0  0  0  0  0  0  0  0  0
  1  2  1  0
  3  4  1  6
  2  5  1  1
  2  7  1  0
  6  7  1  0
  3  8  1  0
  8  9  1  0
  9 10  1  6
 11 12  1  0
  9 14  1  0
 13 14  1  0
  8 15  1  6
  7 16  2  0
 14 17  2  0
 15 18  1  0
  1  3  1  0
  4  6  1  0
 10 11  1  0
 12 13  1  0
M  END

$$$$
No_4466-/export/home/yangzhenyu/potential_scad_32_flow//YTHDC2/2024-12-06-03-22-00/
     RDKit          3D

 18 19  0  0  1  0  0  0  0  0999 V2000
    1.1787   -8.0297    3.5154 C   0  0  0  0  0  0  0  0  0  0  0  0
    1.1048   -9.2215    3.2892 C   0  0  0  0  0  0  0  0  0  0  0  0
    1.0239   -9.7790    2.0239 C   0  0  2  0  0  0  0  0  0  0  0  0
    1.0632  -11.2393    1.8978 C   0  0  0  0  0  0  0  0  0  0  0  0
    1.2664   -7.1133    2.3309 C   0  0  1  0  0  0  0  0  0  0  0  0
    1.2080   -7.6832    1.0760 C   0  0  0  0  0  0  0  0  0  0  0  0
    1.1535   -8.9837    0.8897 C   0  0  0  0  0  0  0  0  0  0  0  0
    1.5434  -12.1192    2.7356 C   0  0  0  0  0  0  0  0  0  0  0  0
    1.4960  -13.4804    2.4774 C   0  0  2  0  0  0  0  0  0  0  0  0
    0.9784  -14.0090    1.4059 C   0  0  0  0  0  0  0  0  0  0  0  0
    0.5177  -13.1808    0.4753 C   0  0  0  0  0  0  0  0  0  0  0  0
    0.5445  -11.8006    0.6518 C   0  0  0  0  0  0  0  0  0  0  0  0
    1.0715   -9.4779   -0.3758 O   0  0  0  0  0  0  0  0  0  0  0  0
    1.3536   -5.6558    2.5098 C   0  0  0  0  0  0  0  0  0  0  0  0
    1.0611   -4.9101    1.4661 O   0  0  0  0  0  0  0  0  0  0  0  0
    1.7473   -5.1335    3.6259 N   0  0  0  0  0  0  0  0  0  0  0  0
    2.0380  -14.5154    3.6124 Cl  0  0  0  0  0  0  0  0  0  0  0  0
    0.0666  -13.5707   -0.7868 O   0  0  0  0  0  0  0  0  0  0  0  0
  2  3  1  0
  3  4  1  1
  1  5  1  0
  3  7  1  0
  6  7  1  0
  8  9  1  0
 10 11  1  0
  4 12  1  0
 11 12  1  0
  7 13  2  0
  5 14  1  1
 14 15  2  0
 14 16  1  0
  9 17  1  1
 11 18  2  0
  9 10  1  0
  4  8  1  0
  1  2  1  0
  5  6  1  0
M  END

$$$$
No_4467-/export/home/yangzhenyu/potential_scad_32_flow//YTHDC2/2024-12-06-03-22-00/
     RDKit          3D

 19 20  0  0  1  0  0  0  0  0999 V2000
    1.1787   -8.0297    3.5154 C   0  0  0  0  0  0  0  0  0  0  0  0
    1.1048   -9.2215    3.2892 C   0  0  2  0  0  0  0  0  0  0  0  0
    1.3627  -10.1721    4.3044 C   0  0  0  0  0  0  0  0  0  0  0  0
    1.7354  -11.4730    3.9023 C   0  0  0  0  0  0  0  0  0  0  0  0
    1.6166  -11.5515    2.5159 C   0  0  0  0  0  0  0  0  0  0  0  0
    1.4080  -10.1475    2.0704 C   0  0  1  0  0  0  0  0  0  0  0  0
    0.6131   -7.0752    2.5759 C   0  0  0  0  0  0  0  0  0  0  0  0
    0.6081   -7.1133    1.5552 C   0  0  0  0  0  0  0  0  0  0  0  0
    0.7603   -8.4694    1.0019 C   0  0  0  0  0  0  0  0  0  0  0  0
    0.5820   -8.3026   -0.5154 C   0  0  0  0  0  0  0  0  0  0  0  0
    1.1671   -9.6739    0.9005 C   0  0  0  0  0  0  0  0  0  0  0  0
    2.1139  -12.4477    1.7352 O   0  0  0  0  0  0  0  0  0  0  0  0
   -0.0026   -8.6940   -1.3393 O   0  0  0  0  0  0  0  0  0  0  0  0
    1.6172  -10.4153   -0.0154 O   0  0  0  0  0  0  0  0  0  0  0  0
    0.5299   -5.5289    3.2918 O   0  0  0  0  0  0  0  0  0  0  0  0
   -0.2312   -4.7613    2.7798 C   0  0  0  0  0  0  0  0  0  0  0  0
    1.4045   -7.4809   -1.2665 O   0  0  0  0  0  0  0  0  0  0  0  0
   -1.5100   -4.8986    2.7674 C   0  0  0  0  0  0  0  0  0  0  0  0
    0.4569   -3.5676    2.3626 C   0  0  0  0  0  0  0  0  0  0  0  0
  2  1  1  1
  2  3  1  0
  3  4  2  0
  4  5  1  0
  2  6  1  0
  6  5  1  1
  1  7  2  0
  7  8  1  0
  8  9  2  0
  9 10  1  0
  6 11  1  0
  9 11  1  0
  5 12  2  0
 10 13  2  0
 11 14  2  0
  7 15  1  0
 15 16  1  0
 10 17  1  0
 16 18  1  0
 16 19  1  0
M  END

$$$$
No_4468-/export/home/yangzhenyu/potential_scad_32_flow//YTHDC2/2024-12-06-03-22-00/
     RDKit          3D

 17 18  0  0  0  0  0  0  0  0999 V2000
    1.1787   -8.0297    3.5154 C   0  0  0  0  0  0  0  0  0  0  0  0
    1.0491   -6.8434    2.9820 C   0  0  0  0  0  0  0  0  0  0  0  0
    0.9905   -9.0774    2.6527 C   0  0  0  0  0  0  0  0  0  0  0  0
    0.7897   -8.9519    1.3691 C   0  0  0  0  0  0  0  0  0  0  0  0
    0.7018   -7.7198    0.7892 C   0  0  0  0  0  0  0  0  0  0  0  0
    0.8918   -6.5957    1.6117 C   0  0  0  0  0  0  0  0  0  0  0  0
    1.0998  -10.4710    3.2437 C   0  0  0  0  0  0  0  0  0  0  0  0
    0.0472  -11.2546    3.3963 C   0  0  0  0  0  0  0  0  0  0  0  0
    0.1622  -12.5732    3.4140 C   0  0  0  0  0  0  0  0  0  0  0  0
    1.4182  -13.1957    3.4048 C   0  0  0  0  0  0  0  0  0  0  0  0
    2.1789  -12.8763    2.7170 C   0  0  0  0  0  0  0  0  0  0  0  0
    2.2524  -11.2965    2.5835 C   0  0  0  0  0  0  0  0  0  0  0  0
    0.8657   -5.2443    1.2186 N   0  0  0  0  0  0  0  0  0  0  0  0
    1.1888  -14.6373    3.2976 O   0  0  0  0  0  0  0  0  0  0  0  0
    0.9696   -4.3199    2.1993 N   0  0  0  0  0  0  0  0  0  0  0  0
    0.6906   -3.1032    1.7713 C   0  0  0  0  0  0  0  0  0  0  0  0
   -0.0282   -2.9455    0.8375 C   0  0  0  0  0  0  0  0  0  0  0  0
  3  7  1  0
 10 14  1  0
 13 15  1  0
 15 16  1  0
 16 17  1  0
  6 13  1  0
  1  2  2  0
  2  6  1  0
  5  6  2  0
  4  5  1  0
  3  4  2  0
  1  3  1  0
  7  8  2  0
  8  9  1  0
  9 10  2  0
 10 11  1  0
 11 12  2  0
  7 12  1  0
M  END

$$$$
No_4469-/export/home/yangzhenyu/potential_scad_32_flow//YTHDC2/2024-12-06-03-22-00/
     RDKit          3D

 18 19  0  0  0  0  0  0  0  0999 V2000
    1.1787   -8.0297    3.5154 C   0  0  0  0  0  0  0  0  0  0  0  0
    1.1048   -9.2215    3.2892 C   0  0  0  0  0  0  0  0  0  0  0  0
    1.3627  -10.1721    4.3044 C   0  0  0  0  0  0  0  0  0  0  0  0
    1.0682  -11.5187    4.0618 C   0  0  0  0  0  0  0  0  0  0  0  0
    0.6332  -11.9655    2.9682 C   0  0  0  0  0  0  0  0  0  0  0  0
    0.4776  -11.1308    1.9203 C   0  0  0  0  0  0  0  0  0  0  0  0
    0.7470   -9.8274    2.0368 C   0  0  0  0  0  0  0  0  0  0  0  0
    1.0387   -7.0301    2.5175 C   0  0  0  0  0  0  0  0  0  0  0  0
    0.9130   -7.5288    1.2013 C   0  0  0  0  0  0  0  0  0  0  0  0
    0.7893   -8.7979    0.9542 C   0  0  0  0  0  0  0  0  0  0  0  0
    0.3998  -13.3695    2.7114 C   0  0  0  0  0  0  0  0  0  0  0  0
    0.8304  -14.0169    1.7689 N   0  0  0  0  0  0  0  0  0  0  0  0
    1.5216  -15.1530    1.8573 C   0  0  0  0  0  0  0  0  0  0  0  0
    2.3662  -15.4688    2.5424 C   0  0  0  0  0  0  0  0  0  0  0  0
    0.4511   -9.2775   -0.3784 O   0  0  0  0  0  0  0  0  0  0  0  0
    3.1184  -16.6821    2.6911 C   0  0  0  0  0  0  0  0  0  0  0  0
    2.5784  -17.7154    1.8830 C   0  0  0  0  0  0  0  0  0  0  0  0
    1.5841  -17.5258    1.1106 C   0  0  0  0  0  0  0  0  0  0  0  0
  5 11  1  0
 11 12  1  0
 12 13  1  0
 13 14  2  3
 10 15  1  0
 14 16  1  0
 16 17  2  3
 17 18  1  0
  2  3  1  0
  3  4  2  0
  4  5  1  0
  5  6  2  0
  6  7  1  0
  1  2  2  0
  2  7  1  0
  7 10  2  0
  9 10  1  0
  8  9  2  0
  1  8  1  0
M  END

$$$$
No_4470-/export/home/yangzhenyu/potential_scad_32_flow//YTHDC2/2024-12-06-03-22-00/
     RDKit          3D

 18 19  0  0  0  0  0  0  0  0999 V2000
    1.1787   -8.0297    3.5154 C   0  0  0  0  0  0  0  0  0  0  0  0
    1.1048   -9.2215    3.2892 C   0  0  0  0  0  0  0  0  0  0  0  0
    1.3627  -10.1721    4.3044 C   0  0  0  0  0  0  0  0  0  0  0  0
    1.0682  -11.5187    4.0618 C   0  0  0  0  0  0  0  0  0  0  0  0
    0.6332  -11.9655    2.9682 C   0  0  0  0  0  0  0  0  0  0  0  0
    0.6698  -11.3145    2.0035 C   0  0  0  0  0  0  0  0  0  0  0  0
    0.9069   -9.8966    2.0084 C   0  0  0  0  0  0  0  0  0  0  0  0
    1.0124   -7.0534    2.4581 N   0  0  0  0  0  0  0  0  0  0  0  0
    0.9451   -7.6471    1.2004 C   0  0  0  0  0  0  0  0  0  0  0  0
    0.8957   -8.8597    0.9527 C   0  0  0  0  0  0  0  0  0  0  0  0
    0.8245   -9.2731   -0.3220 C   0  0  0  0  0  0  0  0  0  0  0  0
    1.7110   -9.4307   -1.0533 O   0  0  0  0  0  0  0  0  0  0  0  0
   -0.4618   -9.4806   -0.8812 O   0  0  0  0  0  0  0  0  0  0  0  0
    0.5889  -13.4232    2.7291 C   0  0  0  0  0  0  0  0  0  0  0  0
    1.4607  -14.3683    3.2171 N   0  0  0  0  0  0  0  0  0  0  0  0
    1.2786  -15.6334    3.0294 C   0  0  0  0  0  0  0  0  0  0  0  0
    0.8085  -15.9382    1.9411 O   0  0  0  0  0  0  0  0  0  0  0  0
    1.2127  -16.6262    4.0922 O   0  0  0  0  0  0  0  0  0  0  0  0
 10 11  1  0
 11 12  2  0
 11 13  1  0
  5 14  1  0
 14 15  1  0
 15 16  1  0
 16 17  2  0
 16 18  1  0
  2  3  1  0
  3  4  2  0
  4  5  1  0
  5  6  2  0
  6  7  1  0
  1  2  2  0
  2  7  1  0
  7 10  2  0
  9 10  1  0
  8  9  2  0
  1  8  1  0
M  END

$$$$
No_4471-/export/home/yangzhenyu/potential_scad_32_flow//YTHDC2/2024-12-06-03-22-00/
     RDKit          3D

 17 18  0  0  0  0  0  0  0  0999 V2000
    1.1787   -8.0297    3.5154 C   0  0  0  0  0  0  0  0  0  0  0  0
    1.1048   -9.2215    3.2892 C   0  0  0  0  0  0  0  0  0  0  0  0
    1.3627  -10.1721    4.3044 C   0  0  0  0  0  0  0  0  0  0  0  0
    1.0682  -11.5187    4.0618 C   0  0  0  0  0  0  0  0  0  0  0  0
    0.6332  -11.9655    2.9682 C   0  0  0  0  0  0  0  0  0  0  0  0
    0.4776  -11.1308    1.9203 C   0  0  0  0  0  0  0  0  0  0  0  0
    0.7470   -9.8274    2.0368 C   0  0  0  0  0  0  0  0  0  0  0  0
    1.0387   -7.0301    2.5175 N   0  0  0  0  0  0  0  0  0  0  0  0
    1.0482   -5.6912    2.8349 C   0  0  0  0  0  0  0  0  0  0  0  0
    0.4226  -13.5695    2.8029 C   0  0  0  0  0  0  0  0  0  0  0  0
   -0.6540  -13.9935    2.3527 C   0  0  0  0  0  0  0  0  0  0  0  0
    1.6242  -14.4033    2.9329 C   0  0  0  0  0  0  0  0  0  0  0  0
    1.5142  -15.6891    2.8027 C   0  0  0  0  0  0  0  0  0  0  0  0
    0.2457  -16.1873    2.4582 C   0  0  0  0  0  0  0  0  0  0  0  0
   -0.7952  -15.3029    2.1613 C   0  0  0  0  0  0  0  0  0  0  0  0
    0.6722   -4.7865    1.7775 C   0  0  0  0  0  0  0  0  0  0  0  0
   -0.0091   -5.2488    0.8352 C   0  0  0  0  0  0  0  0  0  0  0  0
  1  2  1  0
  1  8  1  0
  8  9  1  0
  5 10  1  0
  9 16  1  0
 16 17  2  0
  2  3  2  0
  3  4  1  0
  4  5  2  0
  5  6  1  0
  6  7  2  0
  2  7  1  0
 10 11  2  0
 11 15  1  0
 14 15  2  0
 13 14  1  0
 12 13  2  0
 10 12  1  0
M  END

$$$$
No_4472-/export/home/yangzhenyu/potential_scad_32_flow//YTHDC2/2024-12-06-03-22-00/
     RDKit          3D

 18 19  0  0  0  0  0  0  0  0999 V2000
    1.1787   -8.0297    3.5154 N   0  0  0  0  0  0  0  0  0  0  0  0
    1.0818   -9.0751    3.2053 C   0  0  0  0  0  0  0  0  0  0  0  0
    0.7576   -9.3725    1.9159 C   0  0  0  0  0  0  0  0  0  0  0  0
    0.7445  -10.8746    1.6491 C   0  0  0  0  0  0  0  0  0  0  0  0
    0.9910  -11.7526    2.6067 C   0  0  0  0  0  0  0  0  0  0  0  0
    1.4405  -11.4331    3.8064 C   0  0  0  0  0  0  0  0  0  0  0  0
    1.4304  -10.0463    4.1669 C   0  0  0  0  0  0  0  0  0  0  0  0
    1.1357   -6.7948    2.7839 C   0  0  0  0  0  0  0  0  0  0  0  0
    1.2086   -5.5150    3.2459 N   0  0  0  0  0  0  0  0  0  0  0  0
    1.2535   -6.8493    1.2556 O   0  0  0  0  0  0  0  0  0  0  0  0
    0.9582  -13.4004    2.2630 C   0  0  0  0  0  0  0  0  0  0  0  0
   -0.2675  -13.7939    2.3600 C   0  0  0  0  0  0  0  0  0  0  0  0
   -1.3630  -13.2047    2.2364 C   0  0  0  0  0  0  0  0  0  0  0  0
   -2.5431  -13.9354    2.4463 C   0  0  0  0  0  0  0  0  0  0  0  0
   -3.7378  -13.2328    2.5879 C   0  0  0  0  0  0  0  0  0  0  0  0
   -3.7751  -11.8208    2.4770 C   0  0  0  0  0  0  0  0  0  0  0  0
   -2.6003  -11.0873    2.1839 C   0  0  0  0  0  0  0  0  0  0  0  0
   -1.3647  -11.7091    2.1045 C   0  0  0  0  0  0  0  0  0  0  0  0
  1  2  1  0
  1  8  2  3
  8  9  1  0
  8 10  1  0
  5 11  1  0
 11 12  1  0
 12 13  1  0
  2  3  2  0
  3  4  1  0
  4  5  2  0
  5  6  1  0
  6  7  2  0
  2  7  1  0
 13 14  2  0
 14 15  1  0
 15 16  2  0
 16 17  1  0
 17 18  2  0
 13 18  1  0
M  END

$$$$
No_4473-/export/home/yangzhenyu/potential_scad_32_flow//YTHDC2/2024-12-06-03-22-00/
     RDKit          3D

 20 21  0  0  0  0  0  0  0  0999 V2000
    1.1787   -8.0297    3.5154 C   0  0  0  0  0  0  0  0  0  0  0  0
    1.1048   -9.2215    3.2892 C   0  0  0  0  0  0  0  0  0  0  0  0
    1.2339   -9.7611    2.0189 C   0  0  0  0  0  0  0  0  0  0  0  0
    1.3583   -9.0036    0.9764 C   0  0  0  0  0  0  0  0  0  0  0  0
    1.5996   -7.6362    1.1311 C   0  0  0  0  0  0  0  0  0  0  0  0
    1.4830   -7.0928    2.3626 C   0  0  0  0  0  0  0  0  0  0  0  0
    1.4898   -5.7274    2.6199 C   0  0  0  0  0  0  0  0  0  0  0  0
    1.1681  -11.2222    1.8390 C   0  0  0  0  0  0  0  0  0  0  0  0
    1.9047  -12.1147    2.3357 C   0  0  0  0  0  0  0  0  0  0  0  0
    1.6844  -13.4555    2.0602 C   0  0  0  0  0  0  0  0  0  0  0  0
    0.6977  -13.8514    1.3046 C   0  0  0  0  0  0  0  0  0  0  0  0
   -0.1168  -12.9151    0.6554 C   0  0  0  0  0  0  0  0  0  0  0  0
    0.1481  -11.5441    0.9254 C   0  0  0  0  0  0  0  0  0  0  0  0
    1.2485   -4.8600    1.6197 C   0  0  0  0  0  0  0  0  0  0  0  0
    1.1636   -3.3920    1.8572 C   0  0  0  0  0  0  0  0  0  0  0  0
    2.5134  -14.4296    2.7604 C   0  0  0  0  0  0  0  0  0  0  0  0
    1.7685  -15.7282    2.8891 O   0  0  0  0  0  0  0  0  0  0  0  0
    2.3396  -16.8854    2.5626 C   0  0  0  0  0  0  0  0  0  0  0  0
   -0.6798  -10.6942    0.2760 C   0  0  0  0  0  0  0  0  0  0  0  0
   -1.8851  -10.3162    0.8766 C   0  0  0  0  0  0  0  0  0  0  0  0
  6  7  1  0
  3  8  1  0
  7 14  2  3
 14 15  1  0
 10 16  1  0
 16 17  1  0
 17 18  1  0
 13 19  1  0
 19 20  2  0
  1  2  2  0
  2  3  1  0
  3  4  2  0
  4  5  1  0
  5  6  2  0
  1  6  1  0
  8  9  2  0
  9 10  1  0
 10 11  2  0
 11 12  1  0
 12 13  2  0
  8 13  1  0
M  END

$$$$
No_4474-/export/home/yangzhenyu/potential_scad_32_flow//YTHDC2/2024-12-06-03-22-00/
     RDKit          3D

 19 20  0  0  0  0  0  0  0  0999 V2000
    1.1787   -8.0297    3.5154 N   0  0  0  0  0  0  0  0  0  0  0  0
    1.0818   -9.0751    3.2053 C   0  0  0  0  0  0  0  0  0  0  0  0
    0.7576   -9.3725    1.9159 C   0  0  0  0  0  0  0  0  0  0  0  0
    0.7445  -10.8746    1.6491 C   0  0  0  0  0  0  0  0  0  0  0  0
    0.9910  -11.7526    2.6067 C   0  0  0  0  0  0  0  0  0  0  0  0
    1.4405  -11.4331    3.8064 C   0  0  0  0  0  0  0  0  0  0  0  0
    1.4304  -10.0463    4.1669 C   0  0  0  0  0  0  0  0  0  0  0  0
    1.1048   -6.8241    2.6625 C   0  0  0  0  0  0  0  0  0  0  0  0
    1.1656   -5.5118    3.0248 N   0  0  0  0  0  0  0  0  0  0  0  0
    1.0836   -6.9976    1.2170 C   0  0  0  0  0  0  0  0  0  0  0  0
    0.9695  -13.2055    2.3415 C   0  0  0  0  0  0  0  0  0  0  0  0
    1.8481  -14.0436    2.6031 O   0  0  0  0  0  0  0  0  0  0  0  0
   -0.2230  -13.6843    1.9362 O   0  0  0  0  0  0  0  0  0  0  0  0
    1.0455   -4.5135    2.2046 C   0  0  0  0  0  0  0  0  0  0  0  0
    1.1527   -5.9224    0.3783 C   0  0  0  0  0  0  0  0  0  0  0  0
    1.0518   -4.6825    0.9327 C   0  0  0  0  0  0  0  0  0  0  0  0
    1.1236   -3.1354    2.9042 Br  0  0  0  0  0  0  0  0  0  0  0  0
    0.3461  -11.3581    0.3587 C   0  0  0  0  0  0  0  0  0  0  0  0
   -0.8354  -11.1121   -0.1381 O   0  0  0  0  0  0  0  0  0  0  0  0
  1  2  1  0
  5 11  1  0
 11 12  1  0
 11 13  2  0
 14 17  1  0
  4 18  1  0
 18 19  1  0
  1  8  1  0
  2  3  2  0
  3  4  1  0
  4  5  2  0
  5  6  1  0
  6  7  2  0
  2  7  1  0
  8  9  2  0
  9 14  1  0
 14 16  2  0
 15 16  1  0
 10 15  2  0
  8 10  1  0
M  END

$$$$
No_4475-/export/home/yangzhenyu/potential_scad_32_flow//YTHDC2/2024-12-06-03-22-00/
     RDKit          3D

 19 20  0  0  0  0  0  0  0  0999 V2000
    1.1787   -8.0297    3.5154 C   0  0  0  0  0  0  0  0  0  0  0  0
    1.0491   -6.8434    2.9820 C   0  0  0  0  0  0  0  0  0  0  0  0
    0.0950   -8.8404    3.2292 C   0  0  0  0  0  0  0  0  0  0  0  0
   -0.9173   -8.4596    2.5152 C   0  0  0  0  0  0  0  0  0  0  0  0
   -1.0331   -7.2162    2.0653 C   0  0  0  0  0  0  0  0  0  0  0  0
   -0.0105   -6.3168    2.3081 C   0  0  0  0  0  0  0  0  0  0  0  0
    0.1465  -10.2446    3.6981 C   0  0  0  0  0  0  0  0  0  0  0  0
    0.1907  -11.3369    2.8651 C   0  0  0  0  0  0  0  0  0  0  0  0
    0.7661  -12.5788    3.2923 C   0  0  0  0  0  0  0  0  0  0  0  0
    0.7707  -13.6301    2.4861 C   0  0  0  0  0  0  0  0  0  0  0  0
    0.3777  -13.6646    1.3267 C   0  0  0  0  0  0  0  0  0  0  0  0
    0.0152  -12.4888    0.6832 C   0  0  0  0  0  0  0  0  0  0  0  0
   -0.0711  -11.3179    1.4748 C   0  0  0  0  0  0  0  0  0  0  0  0
    1.3463  -15.1322    3.0939 O   0  0  0  0  0  0  0  0  0  0  0  0
    0.0431   -4.9464    1.8568 C   0  0  0  0  0  0  0  0  0  0  0  0
   -0.7675   -4.1264    2.2841 C   0  0  0  0  0  0  0  0  0  0  0  0
    2.2674  -15.7776    2.3789 C   0  0  0  0  0  0  0  0  0  0  0  0
   -0.6663   -2.7748    1.7321 C   0  0  0  0  0  0  0  0  0  0  0  0
    0.1120   -2.4338    0.7581 C   0  0  0  0  0  0  0  0  0  0  0  0
  3  7  1  0
  7  8  1  0
 10 14  1  0
  6 15  1  0
 15 16  1  0
 14 17  1  0
 16 18  2  3
 18 19  1  0
  1  2  2  0
  2  6  1  0
  5  6  2  0
  4  5  1  0
  3  4  2  0
  1  3  1  0
  8  9  2  0
  9 10  1  0
 10 11  2  0
 11 12  1  0
 12 13  2  0
  8 13  1  0
M  END

$$$$
No_4476-/export/home/yangzhenyu/potential_scad_32_flow//YTHDC2/2024-12-06-03-22-00/
     RDKit          3D

 20 21  0  0  0  0  0  0  0  0999 V2000
    1.1787   -8.0297    3.5154 C   0  0  0  0  0  0  0  0  0  0  0  0
    1.1048   -9.2215    3.2892 C   0  0  0  0  0  0  0  0  0  0  0  0
    1.3627  -10.1721    4.3044 C   0  0  0  0  0  0  0  0  0  0  0  0
    1.0682  -11.5187    4.0618 C   0  0  0  0  0  0  0  0  0  0  0  0
    0.6332  -11.9655    2.9682 C   0  0  0  0  0  0  0  0  0  0  0  0
    0.4776  -11.1308    1.9203 C   0  0  0  0  0  0  0  0  0  0  0  0
    0.7470   -9.8274    2.0368 C   0  0  0  0  0  0  0  0  0  0  0  0
    0.5536   -7.1314    2.6860 N   0  0  0  0  0  0  0  0  0  0  0  0
    0.8108   -5.6615    2.8397 C   0  0  0  0  0  0  0  0  0  0  0  0
    1.5892   -5.3057    3.8099 C   0  0  0  0  0  0  0  0  0  0  0  0
    0.3885   -4.8768    1.8708 C   0  0  0  0  0  0  0  0  0  0  0  0
    0.8034   -3.5460    1.9413 C   0  0  0  0  0  0  0  0  0  0  0  0
    1.6237   -3.1303    2.9279 C   0  0  0  0  0  0  0  0  0  0  0  0
    1.9563   -3.9488    3.9435 C   0  0  0  0  0  0  0  0  0  0  0  0
    0.3038  -13.4812    2.6984 C   0  0  0  0  0  0  0  0  0  0  0  0
    0.8529  -14.0958    1.6874 N   0  0  0  0  0  0  0  0  0  0  0  0
    2.1575  -13.7959    1.3408 C   0  0  0  0  0  0  0  0  0  0  0  0
    0.6957  -15.5126    1.5171 C   0  0  0  0  0  0  0  0  0  0  0  0
   -0.1502  -15.9244    0.6628 C   0  0  0  0  0  0  0  0  0  0  0  0
   -0.4730  -17.0898    0.5145 C   0  0  0  0  0  0  0  0  0  0  0  0
  1  2  1  0
  1  8  1  0
  8  9  1  0
  5 15  1  0
 15 16  1  0
 16 17  1  0
 16 18  1  0
 18 19  1  0
 19 20  2  0
  2  3  2  0
  3  4  1  0
  4  5  2  0
  5  6  1  0
  6  7  2  0
  2  7  1  0
  9 10  2  0
 10 14  1  0
 13 14  2  0
 12 13  1  0
 11 12  2  0
  9 11  1  0
M  END

$$$$
No_4477-/export/home/yangzhenyu/potential_scad_32_flow//YTHDC2/2024-12-06-03-22-00/
     RDKit          3D

 21 22  0  0  1  0  0  0  0  0999 V2000
    1.1787   -8.0297    3.5154 C   0  0  0  0  0  0  0  0  0  0  0  0
    1.1048   -9.2215    3.2892 C   0  0  0  0  0  0  0  0  0  0  0  0
    1.2339   -9.7611    2.0189 C   0  0  0  0  0  0  0  0  0  0  0  0
    1.1954  -11.2312    1.8661 C   0  0  0  0  0  0  0  0  0  0  0  0
    1.5546  -12.1691    2.7931 C   0  0  0  0  0  0  0  0  0  0  0  0
    0.9527   -7.0669    2.3918 C   0  0  0  0  0  0  0  0  0  0  0  0
    1.0618   -7.6392    1.0692 C   0  0  0  0  0  0  0  0  0  0  0  0
    1.2060   -8.9530    0.8578 C   0  0  0  0  0  0  0  0  0  0  0  0
    0.8228  -13.3051    2.8966 C   0  0  0  0  0  0  0  0  0  0  0  0
    1.4445  -14.5593    2.7508 C   0  0  0  0  0  0  0  0  0  0  0  0
    0.9746   -5.6154    2.4611 C   0  0  1  0  0  0  0  0  0  0  0  0
    0.6183  -15.7529    3.0552 C   0  0  0  0  0  0  0  0  0  0  0  0
   -0.4814  -15.8225    2.9502 C   0  0  0  0  0  0  0  0  0  0  0  0
    1.2260  -16.5701    4.2313 C   0  0  0  0  0  0  0  0  0  0  0  0
    1.8111   -5.1466    3.4002 C   0  0  0  0  0  0  0  0  0  0  0  0
    1.5174   -3.6824    3.5112 O   0  0  0  0  0  0  0  0  0  0  0  0
    1.2043   -9.5301   -0.5161 O   0  0  0  0  0  0  0  0  0  0  0  0
    0.3262   -4.8401    1.6379 C   0  0  2  0  0  0  0  0  0  0  0  0
    0.2875   -3.4810    1.7345 C   0  0  0  0  0  0  0  0  0  0  0  0
    0.8089   -2.9006    2.9212 C   0  0  0  0  0  0  0  0  0  0  0  0
   -0.5015   -5.3262    0.6929 C   0  0  0  0  0  0  0  0  0  0  0  0
  3  4  1  0
  4  5  1  0
  5  9  1  0
  9 10  1  0
 11  6  1  6
 10 12  1  0
 12 13  1  0
 12 14  1  0
 11 15  1  0
 15 16  1  0
  8 17  1  0
 11 18  1  0
 18 19  1  0
 16 20  1  0
 19 20  1  0
 18 21  1  1
  1  2  2  0
  2  3  1  0
  3  8  2  0
  7  8  1  0
  6  7  2  0
  1  6  1  0
M  END

$$$$
No_4478-/export/home/yangzhenyu/potential_scad_32_flow//YTHDC2/2024-12-06-03-22-00/
     RDKit          3D

 19 20  0  0  0  0  0  0  0  0999 V2000
    1.1787   -8.0297    3.5154 C   0  0  0  0  0  0  0  0  0  0  0  0
    1.0491   -6.8434    2.9820 C   0  0  0  0  0  0  0  0  0  0  0  0
    0.9905   -9.0774    2.6527 C   0  0  0  0  0  0  0  0  0  0  0  0
    0.7897   -8.9519    1.3691 C   0  0  0  0  0  0  0  0  0  0  0  0
    0.7018   -7.7198    0.7892 C   0  0  0  0  0  0  0  0  0  0  0  0
    0.8918   -6.5957    1.6117 C   0  0  0  0  0  0  0  0  0  0  0  0
    1.0998  -10.4710    3.2437 C   0  0  0  0  0  0  0  0  0  0  0  0
    1.3102  -11.5554    2.5214 C   0  0  0  0  0  0  0  0  0  0  0  0
    1.4257  -12.8124    3.1919 C   0  0  0  0  0  0  0  0  0  0  0  0
    0.9222  -13.9339    2.5039 C   0  0  0  0  0  0  0  0  0  0  0  0
    1.2953  -15.2608    3.1588 C   0  0  0  0  0  0  0  0  0  0  0  0
    0.8729   -5.2633    1.2027 C   0  0  0  0  0  0  0  0  0  0  0  0
    1.1766  -16.3996    2.7259 C   0  0  0  0  0  0  0  0  0  0  0  0
    0.4314  -16.5767    1.6594 C   0  0  0  0  0  0  0  0  0  0  0  0
   -0.0100  -15.5273    0.8970 C   0  0  0  0  0  0  0  0  0  0  0  0
    0.1994  -14.2510    1.2784 C   0  0  0  0  0  0  0  0  0  0  0  0
   -0.2017   -4.7740    0.7102 C   0  0  0  0  0  0  0  0  0  0  0  0
   -0.3361   -3.4205    0.3572 C   0  0  0  0  0  0  0  0  0  0  0  0
   -0.1829  -13.2307    0.5426 C   0  0  0  0  0  0  0  0  0  0  0  0
  3  7  1  0
  7  8  2  3
  8  9  1  0
  9 10  1  0
  6 12  1  0
 12 17  2  3
 17 18  1  0
 16 19  1  0
  1  2  2  0
  2  6  1  0
  5  6  2  0
  4  5  1  0
  3  4  2  0
  1  3  1  0
 10 11  2  0
 11 13  1  0
 13 14  2  0
 14 15  1  0
 15 16  2  0
 10 16  1  0
M  END

$$$$
No_4479-/export/home/yangzhenyu/potential_scad_32_flow//YTHDC2/2024-12-06-03-22-00/
     RDKit          3D

 18 20  0  0  1  0  0  0  0  0999 V2000
    1.1787   -8.0297    3.5154 C   0  0  0  0  0  0  0  0  0  0  0  0
    1.1048   -9.2215    3.2892 C   0  0  0  0  0  0  0  0  0  0  0  0
    1.3627  -10.1721    4.3044 C   0  0  0  0  0  0  0  0  0  0  0  0
    1.0682  -11.5187    4.0618 C   0  0  0  0  0  0  0  0  0  0  0  0
    0.6332  -11.9655    2.9682 C   0  0  0  0  0  0  0  0  0  0  0  0
    0.4776  -11.1308    1.9203 C   0  0  0  0  0  0  0  0  0  0  0  0
    0.7470   -9.8274    2.0368 C   0  0  0  0  0  0  0  0  0  0  0  0
    0.5535   -7.1314    2.6862 C   0  0  0  0  0  0  0  0  0  0  0  0
    0.2950   -7.6000    1.3276 C   0  0  0  0  0  0  0  0  0  0  0  0
    0.2692   -8.8631    1.0973 C   0  0  1  0  0  0  0  0  0  0  0  0
   -0.0070   -6.7080    0.3888 O   0  0  0  0  0  0  0  0  0  0  0  0
    0.4919  -13.3974    2.7286 C   0  0  0  0  0  0  0  0  0  0  0  0
    1.3231  -14.3394    3.2227 C   0  0  0  0  0  0  0  0  0  0  0  0
    1.1286  -15.6926    3.0185 C   0  0  0  0  0  0  0  0  0  0  0  0
    0.1669  -16.1463    2.2661 C   0  0  0  0  0  0  0  0  0  0  0  0
   -0.6291  -15.2807    1.6620 C   0  0  0  0  0  0  0  0  0  0  0  0
   -0.4292  -13.9274    1.8406 C   0  0  0  0  0  0  0  0  0  0  0  0
    0.0306   -9.2969   -0.1778 C   0  0  0  0  0  0  0  0  0  0  0  0
  1  2  1  0
  8  9  1  0
  7 10  1  0
  9 10  1  0
  9 11  2  0
  5 12  1  0
 10 18  1  6
  1  8  1  0
 12 13  2  0
 13 14  1  0
 14 15  2  0
 15 16  1  0
 16 17  2  0
 12 17  1  0
  2  3  2  0
  3  4  1  0
  4  5  2  0
  5  6  1  0
  6  7  2  0
  2  7  1  0
M  END

$$$$
No_4480-/export/home/yangzhenyu/potential_scad_32_flow//YTHDC2/2024-12-06-03-22-00/
     RDKit          3D

 19 20  0  0  1  0  0  0  0  0999 V2000
    1.1787   -8.0297    3.5154 C   0  0  0  0  0  0  0  0  0  0  0  0
    1.1048   -9.2215    3.2892 C   0  0  0  0  0  0  0  0  0  0  0  0
    1.2339   -9.7611    2.0189 C   0  0  0  0  0  0  0  0  0  0  0  0
    1.3583   -9.0036    0.9764 C   0  0  0  0  0  0  0  0  0  0  0  0
    1.5996   -7.6362    1.1311 C   0  0  0  0  0  0  0  0  0  0  0  0
    1.4830   -7.0928    2.3626 C   0  0  0  0  0  0  0  0  0  0  0  0
    1.1171  -11.3311    1.8661 C   0  0  1  0  0  0  0  0  0  0  0  0
    0.5022  -11.6388    0.6531 C   0  0  0  0  0  0  0  0  0  0  0  0
   -0.4019  -11.0045    0.0890 C   0  0  0  0  0  0  0  0  0  0  0  0
   -1.0458  -11.4180   -1.0838 C   0  0  0  0  0  0  0  0  0  0  0  0
   -1.7212  -10.4803   -1.9196 C   0  0  0  0  0  0  0  0  0  0  0  0
   -2.2553  -10.7561   -3.0892 C   0  0  0  0  0  0  0  0  0  0  0  0
   -2.6919  -11.9295   -3.3816 C   0  0  0  0  0  0  0  0  0  0  0  0
   -2.1607  -13.0291   -2.6334 C   0  0  0  0  0  0  0  0  0  0  0  0
   -1.3999  -12.7434   -1.4536 C   0  0  0  0  0  0  0  0  0  0  0  0
    2.2917  -11.8672    2.3462 C   0  0  0  0  0  0  0  0  0  0  0  0
    1.5382   -5.6370    2.6750 Cl  0  0  0  0  0  0  0  0  0  0  0  0
    2.0977  -13.3376    2.4195 C   0  0  0  0  0  0  0  0  0  0  0  0
    2.4017  -14.1962    1.4562 C   0  0  0  0  0  0  0  0  0  0  0  0
  3  7  1  0
  7  8  1  0
  8  9  2  3
  9 10  1  0
  7 16  1  6
  6 17  1  0
 16 18  1  0
 18 19  1  0
  1  2  2  0
  2  3  1  0
  3  4  2  0
  4  5  1  0
  5  6  2  0
  1  6  1  0
 10 11  2  0
 11 12  1  0
 12 13  2  0
 13 14  1  0
 14 15  2  0
 10 15  1  0
M  END

$$$$
No_4481-/export/home/yangzhenyu/potential_scad_32_flow//YTHDC2/2024-12-06-03-22-00/
     RDKit          3D

 19 20  0  0  1  0  0  0  0  0999 V2000
    1.1787   -8.0297    3.5154 C   0  0  0  0  0  0  0  0  0  0  0  0
    1.1048   -9.2215    3.2892 C   0  0  0  0  0  0  0  0  0  0  0  0
    1.3627  -10.1721    4.3044 C   0  0  0  0  0  0  0  0  0  0  0  0
    1.0682  -11.5187    4.0618 C   0  0  0  0  0  0  0  0  0  0  0  0
    0.6332  -11.9655    2.9682 C   0  0  0  0  0  0  0  0  0  0  0  0
    0.4776  -11.1308    1.9203 C   0  0  0  0  0  0  0  0  0  0  0  0
    0.7470   -9.8274    2.0368 C   0  0  0  0  0  0  0  0  0  0  0  0
    1.0387   -7.0301    2.5175 C   0  0  2  0  0  0  0  0  0  0  0  0
    0.9130   -7.5288    1.2013 C   0  0  0  0  0  0  0  0  0  0  0  0
    0.7893   -8.7980    0.9542 C   0  0  2  0  0  0  0  0  0  0  0  0
    0.0580   -9.1928   -0.1607 F   0  0  0  0  0  0  0  0  0  0  0  0
    1.8661   -9.1083   -0.0332 I   0  0  0  0  0  0  0  0  0  0  0  0
    0.4887  -13.3527    2.6884 O   0  0  0  0  0  0  0  0  0  0  0  0
    1.2511  -14.0853    1.8896 C   0  0  0  0  0  0  0  0  0  0  0  0
    1.1625  -15.3573    1.9681 C   0  0  0  0  0  0  0  0  0  0  0  0
    1.2515  -15.9257    2.8226 O   0  0  0  0  0  0  0  0  0  0  0  0
    0.8601  -16.0416    0.8540 O   0  0  0  0  0  0  0  0  0  0  0  0
    1.2318   -5.5997    2.8078 O   0  0  0  0  0  0  0  0  0  0  0  0
    0.3075   -6.5660    0.5548 O   0  0  0  0  0  0  0  0  0  0  0  0
  1  2  1  0
  8  9  1  0
  7 10  1  0
  9 10  1  0
 10 11  1  6
 10 12  1  0
  5 13  1  0
 13 14  1  0
 14 15  1  0
 15 16  2  0
 15 17  1  0
  8 18  1  6
  9 19  2  0
  1  8  1  0
  2  3  2  0
  3  4  1  0
  4  5  2  0
  5  6  1  0
  6  7  2  0
  2  7  1  0
M  END

$$$$
No_4482-/export/home/yangzhenyu/potential_scad_32_flow//YTHDC2/2024-12-06-03-22-00/
     RDKit          3D

 19 20  0  0  1  0  0  0  0  0999 V2000
    1.1787   -8.0297    3.5154 C   0  0  0  0  0  0  0  0  0  0  0  0
    1.1048   -9.2215    3.2892 C   0  0  0  0  0  0  0  0  0  0  0  0
    1.2339   -9.7611    2.0189 C   0  0  0  0  0  0  0  0  0  0  0  0
    1.3583   -9.0036    0.9764 C   0  0  0  0  0  0  0  0  0  0  0  0
    1.5996   -7.6362    1.1311 C   0  0  0  0  0  0  0  0  0  0  0  0
    1.4830   -7.0928    2.3626 C   0  0  0  0  0  0  0  0  0  0  0  0
    1.1008  -11.2372    1.8542 C   0  0  0  0  0  0  0  0  0  0  0  0
    0.5178  -11.9759    2.3445 C   0  0  0  0  0  0  0  0  0  0  0  0
    0.4575  -13.3705    2.1281 C   0  0  0  0  0  0  0  0  0  0  0  0
    1.1632  -14.1013    2.0451 C   0  0  0  0  0  0  0  0  0  0  0  0
    1.0401  -15.5542    1.9839 C   0  0  0  0  0  0  0  0  0  0  0  0
   -0.1527  -16.0372    1.9519 C   0  0  0  0  0  0  0  0  0  0  0  0
   -1.1929  -15.2536    2.0893 C   0  0  0  0  0  0  0  0  0  0  0  0
   -1.0069  -13.8556    2.3031 C   0  0  0  0  0  0  0  0  0  0  0  0
    1.5633   -9.4040   -0.3599 Cl  0  0  0  0  0  0  0  0  0  0  0  0
    1.5115   -5.6216    2.5989 Cl  0  0  0  0  0  0  0  0  0  0  0  0
   -0.4443  -17.4330    1.8660 C   0  0  1  0  0  0  0  0  0  0  0  0
   -0.7595  -17.9140    0.8493 N   0  0  0  0  0  0  0  0  0  0  0  0
   -0.1402  -18.1838    3.0283 C   0  0  0  0  0  0  0  0  0  0  0  0
  3  7  1  0
  7  8  2  3
  8  9  1  0
  4 15  1  0
  6 16  1  0
 12 17  1  0
 17 18  1  0
 17 19  1  6
  1  2  2  0
  2  3  1  0
  3  4  2  0
  4  5  1  0
  5  6  2  0
  1  6  1  0
  9 10  2  0
 10 11  1  0
 11 12  2  0
 12 13  1  0
 13 14  2  0
  9 14  1  0
M  END

$$$$
No_4483-/export/home/yangzhenyu/potential_scad_32_flow//YTHDC2/2024-12-06-03-22-00/
     RDKit          3D

 17 17  0  0  1  0  0  0  0  0999 V2000
    1.1787   -8.0297    3.5154 C   0  0  0  0  0  0  0  0  0  0  0  0
    1.0491   -6.8434    2.9820 C   0  0  0  0  0  0  0  0  0  0  0  0
    1.9985   -8.9840    2.8958 C   0  0  2  0  0  0  0  0  0  0  0  0
    1.7297   -9.2108    1.6335 C   0  0  0  0  0  0  0  0  0  0  0  0
    1.7343   -8.0566    0.8408 C   0  0  2  0  0  0  0  0  0  0  0  0
    1.0269   -6.8892    1.4456 C   0  0  0  0  0  0  0  0  0  0  0  0
    2.0740   -7.9416   -0.3682 C   0  0  0  0  0  0  0  0  0  0  0  0
    3.0714   -8.7358   -0.8759 O   0  0  0  0  0  0  0  0  0  0  0  0
    1.3567   -7.7558   -1.3212 O   0  0  0  0  0  0  0  0  0  0  0  0
    1.9485  -10.3568    3.6021 C   0  0  2  0  0  0  0  0  0  0  0  0
    2.9820  -10.6672    4.2155 C   0  0  0  0  0  0  0  0  0  0  0  0
    0.9296  -11.1808    3.5065 C   0  0  0  0  0  0  0  0  0  0  0  0
    1.1391  -12.5338    3.4268 C   0  0  0  0  0  0  0  0  0  0  0  0
   -0.0014  -13.3736    3.0784 C   0  0  0  0  0  0  0  0  0  0  0  0
    0.0522  -13.7809    2.0924 C   0  0  0  0  0  0  0  0  0  0  0  0
   -1.0955  -14.6241    1.6475 C   0  0  0  0  0  0  0  0  0  0  0  0
   -2.3599  -14.2313    1.6758 C   0  0  0  0  0  0  0  0  0  0  0  0
  1  2  1  0
  3  1  1  1
  3  4  1  0
  4  5  1  0
  2  6  1  0
  5  6  1  0
  5  7  1  6
  7  8  1  0
  7  9  2  0
  3 10  1  0
 10 11  1  6
 10 12  1  0
 12 13  2  3
 13 14  1  0
 14 15  2  3
 15 16  1  0
 16 17  2  0
M  END

$$$$
No_4484-/export/home/yangzhenyu/potential_scad_32_flow//YTHDC2/2024-12-06-03-22-00/
     RDKit          3D

 21 23  0  0  0  0  0  0  0  0999 V2000
    1.1787   -8.0297    3.5154 C   0  0  0  0  0  0  0  0  0  0  0  0
    1.1048   -9.2215    3.2892 C   0  0  0  0  0  0  0  0  0  0  0  0
    1.3627  -10.1721    4.3044 C   0  0  0  0  0  0  0  0  0  0  0  0
    1.0682  -11.5187    4.0618 C   0  0  0  0  0  0  0  0  0  0  0  0
    0.6332  -11.9655    2.9682 C   0  0  0  0  0  0  0  0  0  0  0  0
    0.4776  -11.1308    1.9203 C   0  0  0  0  0  0  0  0  0  0  0  0
    0.7470   -9.8274    2.0368 C   0  0  0  0  0  0  0  0  0  0  0  0
    0.5535   -7.1314    2.6861 C   0  0  0  0  0  0  0  0  0  0  0  0
    0.2950   -7.6000    1.3275 C   0  0  0  0  0  0  0  0  0  0  0  0
    0.2692   -8.8631    1.0973 C   0  0  0  0  0  0  0  0  0  0  0  0
   -0.0070   -6.7080    0.3888 C   0  0  0  0  0  0  0  0  0  0  0  0
   -0.2106   -5.3957    0.7330 C   0  0  0  0  0  0  0  0  0  0  0  0
    0.4852  -13.3942    2.7261 C   0  0  0  0  0  0  0  0  0  0  0  0
    1.4392  -14.3053    3.1092 C   0  0  0  0  0  0  0  0  0  0  0  0
    1.5299  -15.5466    2.5226 C   0  0  0  0  0  0  0  0  0  0  0  0
    0.6049  -16.0447    1.8190 C   0  0  0  0  0  0  0  0  0  0  0  0
   -0.3206  -15.1678    1.2573 C   0  0  0  0  0  0  0  0  0  0  0  0
   -0.3409  -13.8251    1.7032 C   0  0  0  0  0  0  0  0  0  0  0  0
   -0.9257   -4.6627    0.8780 C   0  0  0  0  0  0  0  0  0  0  0  0
   -0.7365   -3.3044    1.3178 N   0  0  0  0  0  0  0  0  0  0  0  0
    0.1918   -2.9660    1.5269 H   0  0  0  0  0  0  0  0  0  0  0  0
  9 11  1  0
 11 12  2  3
  5 13  1  0
 12 19  1  0
 19 20  2  0
  2  3  1  0
  3  4  2  0
  4  5  1  0
  5  6  2  0
  6  7  1  0
 13 14  2  0
 14 15  1  0
 15 16  2  0
 16 17  1  0
 17 18  2  0
 13 18  1  0
  1  2  2  0
  2  7  1  0
  7 10  2  0
  9 10  1  0
  8  9  2  0
  1  8  1  0
 20 21  1  0
M  END

$$$$
No_4485-/export/home/yangzhenyu/potential_scad_32_flow//YTHDC2/2024-12-06-03-22-00/
     RDKit          3D

 18 18  0  0  1  0  0  0  0  0999 V2000
    1.1787   -8.0297    3.5154 C   0  0  0  0  0  0  0  0  0  0  0  0
    1.0491   -6.8434    2.9820 C   0  0  0  0  0  0  0  0  0  0  0  0
    0.9905   -9.0774    2.6527 C   0  0  0  0  0  0  0  0  0  0  0  0
    0.9687   -8.6883    1.3634 C   0  0  0  0  0  0  0  0  0  0  0  0
    1.0948   -6.3768    1.7686 C   0  0  0  0  0  0  0  0  0  0  0  0
    0.9504   -7.3975    0.8471 C   0  0  0  0  0  0  0  0  0  0  0  0
    0.7712   -9.7492    0.3219 C   0  0  0  0  0  0  0  0  0  0  0  0
    0.2304   -9.3843   -0.8910 O   0  0  0  0  0  0  0  0  0  0  0  0
    1.4616  -10.9094    0.3350 N   0  0  0  0  0  0  0  0  0  0  0  0
    1.1144  -10.4147    3.0563 N   0  0  0  0  0  0  0  0  0  0  0  0
    0.1332  -11.1737    3.4274 C   0  0  2  0  0  0  0  0  0  0  0  0
   -1.0371  -10.5323    3.8050 C   0  0  0  0  0  0  0  0  0  0  0  0
    0.3165  -12.5005    3.5353 C   0  0  0  0  0  0  0  0  0  0  0  0
    1.6467  -12.9709    4.0487 C   0  0  0  0  0  0  0  0  0  0  0  0
   -2.2084  -10.6991    2.9706 O   0  0  0  0  0  0  0  0  0  0  0  0
   -1.3787   -9.8646    4.9451 O   0  0  0  0  0  0  0  0  0  0  0  0
    1.6964  -14.4102    3.4448 C   0  0  0  0  0  0  0  0  0  0  0  0
    0.8630  -15.0129    2.8125 C   0  0  0  0  0  0  0  0  0  0  0  0
  4  7  1  0
  7  8  2  0
  7  9  1  0
  3 10  1  0
 10 11  1  0
 11 12  1  0
 11 13  1  1
 13 14  1  0
 12 15  2  0
 12 16  1  0
 14 17  2  3
 17 18  1  0
  1  2  2  0
  2  5  1  0
  5  6  2  0
  4  6  1  0
  3  4  2  0
  1  3  1  0
M  END

$$$$
No_4486-/export/home/yangzhenyu/potential_scad_32_flow//YTHDC2/2024-12-06-03-22-00/
     RDKit          3D

 17 18  0  0  0  0  0  0  0  0999 V2000
    1.1787   -8.0297    3.5154 C   0  0  0  0  0  0  0  0  0  0  0  0
    1.1048   -9.2215    3.2892 C   0  0  0  0  0  0  0  0  0  0  0  0
    1.3627  -10.1721    4.3044 C   0  0  0  0  0  0  0  0  0  0  0  0
    1.7354  -11.4730    3.9023 C   0  0  0  0  0  0  0  0  0  0  0  0
    1.8080  -11.8127    2.7216 C   0  0  0  0  0  0  0  0  0  0  0  0
    1.5854  -11.0021    1.7249 C   0  0  0  0  0  0  0  0  0  0  0  0
    1.3573   -9.7389    1.9287 C   0  0  0  0  0  0  0  0  0  0  0  0
    1.2865   -8.8078    0.9161 C   0  0  0  0  0  0  0  0  0  0  0  0
    0.9210   -7.5140    1.1674 C   0  0  0  0  0  0  0  0  0  0  0  0
    1.0097   -7.0192    2.4369 C   0  0  0  0  0  0  0  0  0  0  0  0
    0.9449   -5.6296    2.7100 C   0  0  0  0  0  0  0  0  0  0  0  0
    2.0493  -13.2614    2.4251 C   0  0  0  0  0  0  0  0  0  0  0  0
    1.1139  -14.0541    1.8956 C   0  0  0  0  0  0  0  0  0  0  0  0
    1.5512  -15.1917    1.3880 C   0  0  0  0  0  0  0  0  0  0  0  0
    0.7710  -15.9862    0.6790 C   0  0  0  0  0  0  0  0  0  0  0  0
   -0.4144  -15.6097    0.2980 C   0  0  0  0  0  0  0  0  0  0  0  0
   -0.9214  -14.3949    0.6733 C   0  0  0  0  0  0  0  0  0  0  0  0
 10 11  1  0
  5 12  1  0
 12 13  1  0
 13 14  1  0
 14 15  2  3
 15 16  1  0
 16 17  2  0
  1  2  2  0
  7  8  2  0
  8  9  1  0
  9 10  2  0
  1 10  1  0
  2  3  1  0
  3  4  2  0
  4  5  1  0
  5  6  2  0
  6  7  1  0
  2  7  1  0
M  END

$$$$
No_4487-/export/home/yangzhenyu/potential_scad_32_flow//YTHDC2/2024-12-06-03-22-00/
     RDKit          3D

 15 16  0  0  0  0  0  0  0  0999 V2000
    1.1787   -8.0297    3.5154 C   0  0  0  0  0  0  0  0  0  0  0  0
    1.0491   -6.8434    2.9820 C   0  0  0  0  0  0  0  0  0  0  0  0
    0.9905   -9.0774    2.6527 C   0  0  0  0  0  0  0  0  0  0  0  0
    0.7897   -8.9519    1.3691 C   0  0  0  0  0  0  0  0  0  0  0  0
    0.7018   -7.7198    0.7892 C   0  0  0  0  0  0  0  0  0  0  0  0
    0.8918   -6.5957    1.6117 C   0  0  0  0  0  0  0  0  0  0  0  0
    1.0998  -10.4710    3.2437 C   0  0  0  0  0  0  0  0  0  0  0  0
    0.0471  -11.2546    3.3963 C   0  0  0  0  0  0  0  0  0  0  0  0
    0.1622  -12.5732    3.4140 C   0  0  0  0  0  0  0  0  0  0  0  0
    1.4182  -13.1957    3.4048 C   0  0  0  0  0  0  0  0  0  0  0  0
    2.5550  -12.3947    3.0877 C   0  0  0  0  0  0  0  0  0  0  0  0
    2.4166  -11.0849    2.9699 C   0  0  0  0  0  0  0  0  0  0  0  0
    0.8571   -5.2495    1.2086 C   0  0  0  0  0  0  0  0  0  0  0  0
    1.4168  -14.5629    3.3677 O   0  0  0  0  0  0  0  0  0  0  0  0
    1.5882   -4.3391    1.8646 O   0  0  0  0  0  0  0  0  0  0  0  0
  3  7  1  0
  6 13  1  0
 10 14  1  0
 13 15  1  0
  1  2  2  0
  2  6  1  0
  5  6  2  0
  4  5  1  0
  3  4  2  0
  1  3  1  0
  7  8  2  0
  8  9  1  0
  9 10  2  0
 10 11  1  0
 11 12  2  0
  7 12  1  0
M  END

$$$$
No_4488-/export/home/yangzhenyu/potential_scad_32_flow//YTHDC2/2024-12-06-03-22-00/
     RDKit          3D

 21 22  0  0  0  0  0  0  0  0999 V2000
    1.1787   -8.0297    3.5154 C   0  0  0  0  0  0  0  0  0  0  0  0
    1.0491   -6.8434    2.9820 C   0  0  0  0  0  0  0  0  0  0  0  0
    0.9905   -9.0774    2.6527 C   0  0  0  0  0  0  0  0  0  0  0  0
    0.7897   -8.9519    1.3691 C   0  0  0  0  0  0  0  0  0  0  0  0
    0.7018   -7.7198    0.7892 C   0  0  0  0  0  0  0  0  0  0  0  0
    0.8918   -6.5957    1.6117 C   0  0  0  0  0  0  0  0  0  0  0  0
    1.0998  -10.4710    3.2437 C   0  0  0  0  0  0  0  0  0  0  0  0
    1.3102  -11.5554    2.5214 C   0  0  0  0  0  0  0  0  0  0  0  0
    1.3598  -12.8243    3.2502 C   0  0  0  0  0  0  0  0  0  0  0  0
    1.5215  -14.0531    2.4267 C   0  0  0  0  0  0  0  0  0  0  0  0
    1.9709  -14.0253    1.1823 C   0  0  0  0  0  0  0  0  0  0  0  0
    2.0141  -12.7743    0.5251 C   0  0  0  0  0  0  0  0  0  0  0  0
    1.7243  -11.6165    1.1455 C   0  0  0  0  0  0  0  0  0  0  0  0
    1.4645  -10.4776    4.4814 O   0  0  0  0  0  0  0  0  0  0  0  0
    0.7909   -5.2911    1.1747 O   0  0  0  0  0  0  0  0  0  0  0  0
    1.4645  -15.2465    3.2242 O   0  0  0  0  0  0  0  0  0  0  0  0
    0.3802  -15.9430    3.3276 C   0  0  0  0  0  0  0  0  0  0  0  0
   -0.6046  -15.7337    2.5809 C   0  0  0  0  0  0  0  0  0  0  0  0
    0.5687  -17.0192    4.2863 C   0  0  0  0  0  0  0  0  0  0  0  0
   -0.5405  -17.3532    4.8868 C   0  0  0  0  0  0  0  0  0  0  0  0
   -1.8495  -16.3699    2.9694 C   0  0  0  0  0  0  0  0  0  0  0  0
  1  2  1  0
  3  4  1  0
  2  6  1  0
  5  6  1  0
  3  7  1  0
  7  8  1  0
  7 14  2  0
  6 15  2  0
 10 16  1  0
 16 17  1  0
 17 18  1  0
 17 19  1  0
 19 20  2  0
 18 21  2  0
  1  3  1  0
  4  5  1  0
  8  9  2  0
  9 10  1  0
 10 11  2  0
 11 12  1  0
 12 13  2  0
  8 13  1  0
M  END

$$$$
No_4489-/export/home/yangzhenyu/potential_scad_32_flow//YTHDC2/2024-12-06-03-22-00/
     RDKit          3D

 18 19  0  0  0  0  0  0  0  0999 V2000
    1.1787   -8.0297    3.5154 C   0  0  0  0  0  0  0  0  0  0  0  0
    1.0491   -6.8434    2.9820 C   0  0  0  0  0  0  0  0  0  0  0  0
    0.0950   -8.8404    3.2292 C   0  0  0  0  0  0  0  0  0  0  0  0
   -0.9173   -8.4596    2.5152 C   0  0  0  0  0  0  0  0  0  0  0  0
   -1.0331   -7.2162    2.0653 C   0  0  0  0  0  0  0  0  0  0  0  0
   -0.0105   -6.3168    2.3081 C   0  0  0  0  0  0  0  0  0  0  0  0
    0.1465  -10.2446    3.6981 C   0  0  0  0  0  0  0  0  0  0  0  0
    1.2433  -10.8239    4.0166 C   0  0  0  0  0  0  0  0  0  0  0  0
    1.0790  -12.2885    4.3779 C   0  0  0  0  0  0  0  0  0  0  0  0
    0.0275  -12.8546    3.8829 C   0  0  0  0  0  0  0  0  0  0  0  0
   -0.9912  -12.3424    3.4171 C   0  0  0  0  0  0  0  0  0  0  0  0
   -1.0024  -10.9675    3.2748 C   0  0  0  0  0  0  0  0  0  0  0  0
   -0.0949   -4.8357    1.7711 Cl  0  0  0  0  0  0  0  0  0  0  0  0
   -2.2190   -6.6758    1.4744 O   0  0  0  0  0  0  0  0  0  0  0  0
   -2.4190   -7.1780    0.2087 C   0  0  0  0  0  0  0  0  0  0  0  0
   -3.2137   -6.4299   -0.3714 C   0  0  0  0  0  0  0  0  0  0  0  0
   -3.2399   -6.2569   -1.6600 C   0  0  0  0  0  0  0  0  0  0  0  0
   -2.7194   -7.3373   -2.5103 C   0  0  0  0  0  0  0  0  0  0  0  0
  3  7  1  0
  6 13  1  0
  5 14  1  0
 14 15  1  0
 15 16  1  0
 16 17  2  3
 17 18  1  0
  1  2  2  0
  2  6  1  0
  5  6  2  0
  4  5  1  0
  3  4  2  0
  1  3  1  0
  7  8  2  0
  8  9  1  0
  9 10  2  0
 10 11  1  0
 11 12  2  0
  7 12  1  0
M  END

$$$$
No_4490-/export/home/yangzhenyu/potential_scad_32_flow//YTHDC2/2024-12-06-03-22-00/
     RDKit          3D

 14 14  0  0  0  0  0  0  0  0999 V2000
    1.1787   -8.0297    3.5154 C   0  0  0  0  0  0  0  0  0  0  0  0
    1.1048   -9.2215    3.2892 C   0  0  0  0  0  0  0  0  0  0  0  0
    1.3627  -10.1721    4.3044 C   0  0  0  0  0  0  0  0  0  0  0  0
    2.3720  -10.8948    4.2468 C   0  0  0  0  0  0  0  0  0  0  0  0
    2.9262  -11.1926    3.1170 C   0  0  0  0  0  0  0  0  0  0  0  0
    2.5807  -10.4593    1.9550 C   0  0  0  0  0  0  0  0  0  0  0  0
    1.7065   -9.4353    2.0233 C   0  0  0  0  0  0  0  0  0  0  0  0
    1.3623   -8.6610    1.0017 C   0  0  0  0  0  0  0  0  0  0  0  0
    0.6938   -7.5136    1.2430 O   0  0  0  0  0  0  0  0  0  0  0  0
    1.7431   -8.9047   -0.2531 N   0  0  0  0  0  0  0  0  0  0  0  0
   -0.0108   -7.2444    3.7992 O   0  0  0  0  0  0  0  0  0  0  0  0
    2.1855   -7.0002    3.6855 O   0  0  0  0  0  0  0  0  0  0  0  0
    1.4275   -8.2480   -1.4218 O   0  0  0  0  0  0  0  0  0  0  0  0
    2.5782  -11.8753    5.3105 O   0  0  0  0  0  0  0  0  0  0  0  0
  1  2  1  0
  7  8  1  0
  8  9  2  0
  8 10  1  0
  1 11  1  0
  1 12  2  0
 10 13  2  0
  4 14  1  0
  2  3  2  0
  3  4  1  0
  4  5  2  0
  5  6  1  0
  6  7  2  0
  2  7  1  0
M  END

$$$$
No_4491-/export/home/yangzhenyu/potential_scad_32_flow//YTHDC2/2024-12-06-03-22-00/
     RDKit          3D

 19 20  0  0  0  0  0  0  0  0999 V2000
    1.1787   -8.0297    3.5154 C   0  0  0  0  0  0  0  0  0  0  0  0
    1.0491   -6.8434    2.9820 N   0  0  0  0  0  0  0  0  0  0  0  0
    0.1476   -8.8697    3.1493 C   0  0  0  0  0  0  0  0  0  0  0  0
   -0.7634   -8.3679    2.4311 C   0  0  0  0  0  0  0  0  0  0  0  0
   -0.1708   -6.9105    2.2426 C   0  0  0  0  0  0  0  0  0  0  0  0
    0.1718  -10.3141    3.5926 C   0  0  0  0  0  0  0  0  0  0  0  0
    1.2379  -11.0825    3.8190 C   0  0  0  0  0  0  0  0  0  0  0  0
    1.1138  -12.4337    4.1097 C   0  0  0  0  0  0  0  0  0  0  0  0
    1.9293  -13.2732    3.2409 C   0  0  0  0  0  0  0  0  0  0  0  0
    1.9256  -12.9454    1.9047 C   0  0  0  0  0  0  0  0  0  0  0  0
    1.9121  -14.1267    1.1085 C   0  0  0  0  0  0  0  0  0  0  0  0
    2.4172  -15.2457    1.5372 C   0  0  0  0  0  0  0  0  0  0  0  0
    1.8532  -15.9438    2.5068 C   0  0  0  0  0  0  0  0  0  0  0  0
    0.9053  -16.7153    2.3329 C   0  0  0  0  0  0  0  0  0  0  0  0
   -0.7548   -5.8694    1.5815 C   0  0  0  0  0  0  0  0  0  0  0  0
   -1.6892   -6.1048    0.7158 C   0  0  0  0  0  0  0  0  0  0  0  0
   -2.1789   -7.5022    0.6865 C   0  0  0  0  0  0  0  0  0  0  0  0
   -3.2222   -7.7516   -0.2759 C   0  0  0  0  0  0  0  0  0  0  0  0
   -1.8030   -8.5128    1.4772 C   0  0  0  0  0  0  0  0  0  0  0  0
  1  2  1  0
  1  3  2  0
  3  4  1  0
  3  6  1  0
  6  7  2  3
  7  8  1  0
  8  9  1  0
  9 10  1  0
 10 11  1  0
 11 12  1  0
 12 13  1  0
 13 14  1  0
 17 18  1  0
  2  5  1  0
  4  5  2  0
  5 15  1  0
 15 16  2  0
 16 17  1  0
 17 19  2  0
  4 19  1  0
M  END

$$$$
No_4492-/export/home/yangzhenyu/potential_scad_32_flow//YTHDC2/2024-12-06-03-22-00/
     RDKit          3D

 18 19  0  0  0  0  0  0  0  0999 V2000
    1.1787   -8.0297    3.5154 C   0  0  0  0  0  0  0  0  0  0  0  0
    1.1048   -9.2215    3.2892 C   0  0  0  0  0  0  0  0  0  0  0  0
    1.2339   -9.7611    2.0189 C   0  0  0  0  0  0  0  0  0  0  0  0
    1.3583   -9.0036    0.9764 C   0  0  0  0  0  0  0  0  0  0  0  0
    1.5996   -7.6362    1.1311 C   0  0  0  0  0  0  0  0  0  0  0  0
    1.4830   -7.0928    2.3626 C   0  0  0  0  0  0  0  0  0  0  0  0
    1.1008  -11.2372    1.8542 C   0  0  0  0  0  0  0  0  0  0  0  0
    1.9749  -12.0938    2.2342 C   0  0  0  0  0  0  0  0  0  0  0  0
    1.7533  -13.4231    1.8956 C   0  0  0  0  0  0  0  0  0  0  0  0
    0.8624  -13.8318    1.1071 C   0  0  0  0  0  0  0  0  0  0  0  0
   -0.0624  -12.9093    0.5581 C   0  0  0  0  0  0  0  0  0  0  0  0
    0.1157  -11.5285    0.9404 C   0  0  0  0  0  0  0  0  0  0  0  0
    1.5561   -5.6354    2.6426 Cl  0  0  0  0  0  0  0  0  0  0  0  0
   -0.8311  -10.6449    0.4827 C   0  0  0  0  0  0  0  0  0  0  0  0
   -1.9296  -10.3450    1.3179 C   0  0  0  0  0  0  0  0  0  0  0  0
   -2.7609   -9.2550    1.0378 C   0  0  0  0  0  0  0  0  0  0  0  0
   -2.6661   -8.6238   -0.1287 C   0  0  0  0  0  0  0  0  0  0  0  0
   -1.6606   -8.9108   -1.0562 C   0  0  0  0  0  0  0  0  0  0  0  0
  3  7  1  0
  6 13  1  0
 12 14  1  0
 14 15  1  0
 15 16  2  3
 16 17  1  0
 17 18  2  0
  1  2  2  0
  2  3  1  0
  3  4  2  0
  4  5  1  0
  5  6  2  0
  1  6  1  0
  7  8  2  0
  8  9  1  0
  9 10  2  0
 10 11  1  0
 11 12  2  0
  7 12  1  0
M  END

$$$$
No_4493-/export/home/yangzhenyu/potential_scad_32_flow//YTHDC2/2024-12-06-03-22-00/
     RDKit          3D

 19 20  0  0  0  0  0  0  0  0999 V2000
    1.1787   -8.0297    3.5154 C   0  0  0  0  0  0  0  0  0  0  0  0
    1.1048   -9.2215    3.2892 C   0  0  0  0  0  0  0  0  0  0  0  0
    1.2339   -9.7611    2.0189 C   0  0  0  0  0  0  0  0  0  0  0  0
    1.3583   -9.0036    0.9764 C   0  0  0  0  0  0  0  0  0  0  0  0
    1.5996   -7.6362    1.1311 C   0  0  0  0  0  0  0  0  0  0  0  0
    1.4830   -7.0928    2.3626 C   0  0  0  0  0  0  0  0  0  0  0  0
    1.4898   -5.7274    2.6199 C   0  0  0  0  0  0  0  0  0  0  0  0
    1.1681  -11.2222    1.8390 C   0  0  0  0  0  0  0  0  0  0  0  0
    1.9047  -12.1147    2.3357 C   0  0  0  0  0  0  0  0  0  0  0  0
    1.6844  -13.4555    2.0602 C   0  0  0  0  0  0  0  0  0  0  0  0
    0.6977  -13.8514    1.3046 C   0  0  0  0  0  0  0  0  0  0  0  0
   -0.1168  -12.9151    0.6554 C   0  0  0  0  0  0  0  0  0  0  0  0
    0.1481  -11.5441    0.9254 C   0  0  0  0  0  0  0  0  0  0  0  0
    1.2485   -4.8600    1.6197 C   0  0  0  0  0  0  0  0  0  0  0  0
    1.1636   -3.3920    1.8572 O   0  0  0  0  0  0  0  0  0  0  0  0
    2.5133  -14.4296    2.7602 O   0  0  0  0  0  0  0  0  0  0  0  0
   -0.6979  -10.6736    0.3410 C   0  0  0  0  0  0  0  0  0  0  0  0
   -0.7122  -10.3160   -0.9426 O   0  0  0  0  0  0  0  0  0  0  0  0
   -1.8766  -10.3695    0.9540 N   0  0  0  0  0  0  0  0  0  0  0  0
  6  7  1  0
  3  8  1  0
  7 14  2  3
 14 15  1  0
 10 16  1  0
 13 17  1  0
 17 18  2  0
 17 19  1  0
  1  2  2  0
  2  3  1  0
  3  4  2  0
  4  5  1  0
  5  6  2  0
  1  6  1  0
  8  9  2  0
  9 10  1  0
 10 11  2  0
 11 12  1  0
 12 13  2  0
  8 13  1  0
M  END

$$$$
No_4494-/export/home/yangzhenyu/potential_scad_32_flow//YTHDC2/2024-12-06-03-22-00/
     RDKit          3D

 19 21  0  0  0  0  0  0  0  0999 V2000
    1.1787   -8.0297    3.5154 N   0  0  0  0  0  0  0  0  0  0  0  0
    1.0818   -9.0751    3.2053 C   0  0  0  0  0  0  0  0  0  0  0  0
    1.5216  -10.1164    3.9747 C   0  0  0  0  0  0  0  0  0  0  0  0
    1.4420  -11.4363    3.6461 C   0  0  0  0  0  0  0  0  0  0  0  0
    0.5969  -11.7648    2.6785 C   0  0  0  0  0  0  0  0  0  0  0  0
    0.0096  -10.8332    1.9506 C   0  0  0  0  0  0  0  0  0  0  0  0
    0.3359   -9.5186    2.1388 C   0  0  0  0  0  0  0  0  0  0  0  0
    1.1574   -6.9183    2.6875 C   0  0  0  0  0  0  0  0  0  0  0  0
    0.6585   -7.2272    1.4255 N   0  0  0  0  0  0  0  0  0  0  0  0
    0.2295   -8.4509    1.1163 C   0  0  0  0  0  0  0  0  0  0  0  0
   -0.4358   -8.6524   -0.0643 N   0  0  0  0  0  0  0  0  0  0  0  0
    0.2888  -13.1695    2.4436 C   0  0  0  0  0  0  0  0  0  0  0  0
    1.1772  -14.1192    2.8651 C   0  0  0  0  0  0  0  0  0  0  0  0
    2.0793  -14.7564    2.1472 C   0  0  0  0  0  0  0  0  0  0  0  0
    2.3607  -16.0854    2.2987 C   0  0  0  0  0  0  0  0  0  0  0  0
    1.7086  -16.9150    3.1333 C   0  0  0  0  0  0  0  0  0  0  0  0
    0.7165  -16.3681    3.9767 C   0  0  0  0  0  0  0  0  0  0  0  0
    0.3451  -15.0159    3.7678 C   0  0  0  0  0  0  0  0  0  0  0  0
    0.0112  -17.1468    4.8857 O   0  0  0  0  0  0  0  0  0  0  0  0
 10 11  1  0
  5 12  1  0
 12 13  1  0
 17 19  1  0
  2  3  1  0
  3  4  2  0
  4  5  1  0
  5  6  2  0
  6  7  1  0
 13 14  2  0
 14 15  1  0
 15 16  2  0
 16 17  1  0
 17 18  2  0
 13 18  1  0
  1  2  2  0
  2  7  1  0
  7 10  2  0
  9 10  1  0
  8  9  2  0
  1  8  1  0
M  END

$$$$
No_4495-/export/home/yangzhenyu/potential_scad_32_flow//YTHDC2/2024-12-06-03-22-00/
     RDKit          3D

 19 20  0  0  0  0  0  0  0  0999 V2000
    1.1787   -8.0297    3.5154 C   0  0  0  0  0  0  0  0  0  0  0  0
    1.0491   -6.8434    2.9820 C   0  0  0  0  0  0  0  0  0  0  0  0
    0.0950   -8.8404    3.2292 C   0  0  0  0  0  0  0  0  0  0  0  0
   -0.9173   -8.4596    2.5152 C   0  0  0  0  0  0  0  0  0  0  0  0
   -1.0331   -7.2162    2.0653 C   0  0  0  0  0  0  0  0  0  0  0  0
   -0.0105   -6.3168    2.3081 C   0  0  0  0  0  0  0  0  0  0  0  0
    0.1935  -10.3737    3.7416 C   0  0  0  0  0  0  0  0  0  0  0  0
    0.3534  -11.4163    2.8027 C   0  0  0  0  0  0  0  0  0  0  0  0
    1.0785  -12.5234    3.2592 C   0  0  0  0  0  0  0  0  0  0  0  0
    1.1411  -13.5755    2.4453 C   0  0  0  0  0  0  0  0  0  0  0  0
    0.7284  -13.6321    1.3039 C   0  0  0  0  0  0  0  0  0  0  0  0
    0.1223  -12.5225    0.7050 C   0  0  0  0  0  0  0  0  0  0  0  0
   -0.0333  -11.3806    1.5081 C   0  0  0  0  0  0  0  0  0  0  0  0
    1.7906  -14.8709    2.9213 Cl  0  0  0  0  0  0  0  0  0  0  0  0
    0.0657   -4.7648    1.8132 C   0  0  0  0  0  0  0  0  0  0  0  0
    0.8179   -3.9809    2.4802 C   0  0  0  0  0  0  0  0  0  0  0  0
    0.9687   -2.6004    2.1435 C   0  0  0  0  0  0  0  0  0  0  0  0
   -0.6146   -4.4061    0.7293 C   0  0  0  0  0  0  0  0  0  0  0  0
   -0.6396   -3.1220    0.4113 C   0  0  0  0  0  0  0  0  0  0  0  0
  3  7  1  0
  7  8  1  0
 10 14  1  0
  6 15  1  0
 15 16  2  3
 16 17  1  0
 15 18  1  0
 18 19  2  0
  1  2  2  0
  2  6  1  0
  5  6  2  0
  4  5  1  0
  3  4  2  0
  1  3  1  0
  8  9  2  0
  9 10  1  0
 10 11  2  0
 11 12  1  0
 12 13  2  0
  8 13  1  0
M  END

$$$$
No_4496-/export/home/yangzhenyu/potential_scad_32_flow//YTHDC2/2024-12-06-03-22-00/
     RDKit          3D

 17 18  0  0  0  0  0  0  0  0999 V2000
    1.1787   -8.0297    3.5154 C   0  0  0  0  0  0  0  0  0  0  0  0
    1.0491   -6.8434    2.9820 C   0  0  0  0  0  0  0  0  0  0  0  0
    0.9905   -9.0774    2.6527 C   0  0  0  0  0  0  0  0  0  0  0  0
    0.7897   -8.9519    1.3691 C   0  0  0  0  0  0  0  0  0  0  0  0
    0.7018   -7.7198    0.7892 C   0  0  0  0  0  0  0  0  0  0  0  0
    0.8918   -6.5957    1.6117 C   0  0  0  0  0  0  0  0  0  0  0  0
    1.0998  -10.4710    3.2437 C   0  0  0  0  0  0  0  0  0  0  0  0
    0.0472  -11.2546    3.3963 C   0  0  0  0  0  0  0  0  0  0  0  0
    0.1622  -12.5732    3.4140 C   0  0  0  0  0  0  0  0  0  0  0  0
    1.4182  -13.1957    3.4048 C   0  0  0  0  0  0  0  0  0  0  0  0
    2.5550  -12.3947    3.0877 C   0  0  0  0  0  0  0  0  0  0  0  0
    2.4166  -11.0849    2.9699 C   0  0  0  0  0  0  0  0  0  0  0  0
    0.8665   -5.2662    1.1708 C   0  0  0  0  0  0  0  0  0  0  0  0
    1.4169  -14.5629    3.3676 C   0  0  0  0  0  0  0  0  0  0  0  0
    2.3103  -15.3471    2.7013 C   0  0  0  0  0  0  0  0  0  0  0  0
    2.3199  -16.7547    2.7804 C   0  0  0  0  0  0  0  0  0  0  0  0
    1.5101  -17.4226    3.4391 C   0  0  0  0  0  0  0  0  0  0  0  0
  3  7  1  0
  6 13  1  0
 10 14  1  0
 14 15  1  0
 15 16  2  3
 16 17  1  0
  1  2  2  0
  2  6  1  0
  5  6  2  0
  4  5  1  0
  3  4  2  0
  1  3  1  0
  7  8  2  0
  8  9  1  0
  9 10  2  0
 10 11  1  0
 11 12  2  0
  7 12  1  0
M  END

$$$$
No_4497-/export/home/yangzhenyu/potential_scad_32_flow//YTHDC2/2024-12-06-03-22-00/
     RDKit          3D

 20 21  0  0  0  0  0  0  0  0999 V2000
    1.1787   -8.0297    3.5154 N   0  0  0  0  0  0  0  0  0  0  0  0
    1.0818   -9.0751    3.2053 C   0  0  0  0  0  0  0  0  0  0  0  0
    1.5216  -10.1164    3.9747 C   0  0  0  0  0  0  0  0  0  0  0  0
    1.4420  -11.4363    3.6461 C   0  0  0  0  0  0  0  0  0  0  0  0
    0.5969  -11.7648    2.6785 C   0  0  0  0  0  0  0  0  0  0  0  0
    0.0096  -10.8332    1.9506 C   0  0  0  0  0  0  0  0  0  0  0  0
    0.3359   -9.5186    2.1388 C   0  0  0  0  0  0  0  0  0  0  0  0
    1.1574   -6.9183    2.6875 C   0  0  0  0  0  0  0  0  0  0  0  0
    0.6585   -7.2272    1.4255 C   0  0  0  0  0  0  0  0  0  0  0  0
    0.2266   -8.4755    1.1116 C   0  0  0  0  0  0  0  0  0  0  0  0
   -0.4196   -8.6475   -0.0393 C   0  0  0  0  0  0  0  0  0  0  0  0
    0.2801   -9.0443   -1.2378 N   0  0  0  0  0  0  0  0  0  0  0  0
   -1.6613   -8.3494   -0.2697 O   0  0  0  0  0  0  0  0  0  0  0  0
    0.3244  -13.1829    2.4175 C   0  0  0  0  0  0  0  0  0  0  0  0
   -0.9044  -13.5853    2.1315 O   0  0  0  0  0  0  0  0  0  0  0  0
    1.1950  -14.1787    2.8451 N   0  0  0  0  0  0  0  0  0  0  0  0
    1.0396  -15.5407    2.7631 C   0  0  0  0  0  0  0  0  0  0  0  0
    1.9581  -16.2250    2.0545 C   0  0  0  0  0  0  0  0  0  0  0  0
    2.0846  -17.5436    1.9924 N   0  0  0  0  0  0  0  0  0  0  0  0
    1.4524  -18.1366    2.5109 H   0  0  0  0  0  0  0  0  0  0  0  0
 10 11  1  0
 11 12  1  0
 11 13  2  0
  5 14  1  0
 14 15  2  0
 14 16  1  0
 16 17  1  0
 17 18  1  0
 18 19  2  0
  2  3  1  0
  3  4  2  0
  4  5  1  0
  5  6  2  0
  6  7  1  0
  1  2  2  0
  2  7  1  0
  7 10  2  0
  9 10  1  0
  8  9  2  0
  1  8  1  0
 19 20  1  0
M  END

$$$$
No_4498-/export/home/yangzhenyu/potential_scad_32_flow//YTHDC2/2024-12-06-03-22-00/
     RDKit          3D

 20 22  0  0  0  0  0  0  0  0999 V2000
    1.1787   -8.0297    3.5154 C   0  0  0  0  0  0  0  0  0  0  0  0
    1.1048   -9.2215    3.2892 C   0  0  0  0  0  0  0  0  0  0  0  0
    1.4682  -10.2314    4.1915 C   0  0  0  0  0  0  0  0  0  0  0  0
    0.8445   -6.9865    2.5175 C   0  0  0  0  0  0  0  0  0  0  0  0
    0.3587   -7.3973    1.3953 C   0  0  0  0  0  0  0  0  0  0  0  0
    0.1901   -8.6971    1.0711 C   0  0  0  0  0  0  0  0  0  0  0  0
    0.5759   -9.6647    1.9442 C   0  0  0  0  0  0  0  0  0  0  0  0
    1.8402  -11.5521    3.5557 C   0  0  0  0  0  0  0  0  0  0  0  0
    1.4228  -11.9086    2.4385 C   0  0  0  0  0  0  0  0  0  0  0  0
    0.9898  -10.9113    1.5071 C   0  0  0  0  0  0  0  0  0  0  0  0
    1.6284  -13.2354    1.9369 C   0  0  0  0  0  0  0  0  0  0  0  0
    1.5912  -13.6059    0.7750 C   0  0  0  0  0  0  0  0  0  0  0  0
    1.7187  -14.3379    2.9813 C   0  0  0  0  0  0  0  0  0  0  0  0
    1.7780  -15.6477    2.6064 C   0  0  0  0  0  0  0  0  0  0  0  0
    2.0093  -15.9286    1.2897 C   0  0  0  0  0  0  0  0  0  0  0  0
    1.8679  -14.9707    0.4120 C   0  0  0  0  0  0  0  0  0  0  0  0
    0.9494   -5.5409    2.9131 Cl  0  0  0  0  0  0  0  0  0  0  0  0
   -0.1966   -9.1102   -0.4313 O   0  0  0  0  0  0  0  0  0  0  0  0
   -0.9146   -8.3166   -1.1293 C   0  0  0  0  0  0  0  0  0  0  0  0
   -2.1319   -8.1776   -0.5113 C   0  0  0  0  0  0  0  0  0  0  0  0
  9 11  1  0
  4 17  1  0
  6 18  1  0
 18 19  1  0
 19 20  1  0
 11 12  2  0
 12 16  1  0
 15 16  2  0
 14 15  1  0
 13 14  2  0
 11 13  1  0
  1  2  2  0
  6  7  2  0
  5  6  1  0
  4  5  2  0
  1  4  1  0
  2  3  1  0
  3  8  2  0
  8  9  1  0
  9 10  2  0
  7 10  1  0
  2  7  1  0
M  END

$$$$
No_4499-/export/home/yangzhenyu/potential_scad_32_flow//YTHDC2/2024-12-06-03-22-00/
     RDKit          3D

 18 18  0  0  1  0  0  0  0  0999 V2000
    1.1787   -8.0297    3.5154 C   0  0  0  0  0  0  0  0  0  0  0  0
    1.0491   -6.8434    2.9820 C   0  0  0  0  0  0  0  0  0  0  0  0
    0.9905   -9.0774    2.6527 C   0  0  0  0  0  0  0  0  0  0  0  0
    1.1655  -10.4663    3.1286 C   0  0  1  0  0  0  0  0  0  0  0  0
    1.7409  -10.6480    4.4599 C   0  0  0  0  0  0  0  0  0  0  0  0
    0.4783   -6.4688    1.7590 C   0  0  0  0  0  0  0  0  0  0  0  0
    0.2119   -7.5787    0.9640 C   0  0  0  0  0  0  0  0  0  0  0  0
    0.4248   -8.8744    1.3136 C   0  0  0  0  0  0  0  0  0  0  0  0
    0.0668  -11.4236    3.0746 C   0  0  0  0  0  0  0  0  0  0  0  0
   -1.1612  -11.1173    3.5415 O   0  0  0  0  0  0  0  0  0  0  0  0
    0.2542  -12.5371    2.4194 F   0  0  0  0  0  0  0  0  0  0  0  0
    0.3429   -5.0249    1.1988 O   0  0  0  0  0  0  0  0  0  0  0  0
    0.0838   -4.0922    1.9941 C   0  0  0  0  0  0  0  0  0  0  0  0
    3.1510  -11.3502    4.2741 C   0  0  0  0  0  0  0  0  0  0  0  0
    4.2360  -10.2245    4.5305 C   0  0  0  0  0  0  0  0  0  0  0  0
    4.3977  -10.1926    5.8581 O   0  0  0  0  0  0  0  0  0  0  0  0
    0.1401   -2.8831    1.4733 C   0  0  0  0  0  0  0  0  0  0  0  0
    1.0449   -2.0117    1.7269 C   0  0  0  0  0  0  0  0  0  0  0  0
  3  4  1  0
  4  5  1  1
  4  9  1  0
  9 10  2  0
  9 11  1  0
  6 12  1  0
 12 13  1  0
  5 14  1  0
 14 15  1  0
 15 16  1  0
 13 17  1  0
 17 18  1  0
  1  2  2  0
  2  6  1  0
  6  7  2  0
  7  8  1  0
  3  8  2  0
  1  3  1  0
M  END

$$$$
No_4500-/export/home/yangzhenyu/potential_scad_32_flow//YTHDC2/2024-12-06-03-22-00/
     RDKit          3D

 20 21  0  0  0  0  0  0  0  0999 V2000
    1.1787   -8.0297    3.5154 C   0  0  0  0  0  0  0  0  0  0  0  0
    1.1048   -9.2215    3.2892 C   0  0  0  0  0  0  0  0  0  0  0  0
    1.3627  -10.1721    4.3044 C   0  0  0  0  0  0  0  0  0  0  0  0
    1.0682  -11.5187    4.0618 C   0  0  0  0  0  0  0  0  0  0  0  0
    0.6332  -11.9655    2.9682 C   0  0  0  0  0  0  0  0  0  0  0  0
    0.4776  -11.1308    1.9203 C   0  0  0  0  0  0  0  0  0  0  0  0
    0.7470   -9.8274    2.0368 C   0  0  0  0  0  0  0  0  0  0  0  0
    0.5535   -7.1314    2.6861 S   0  0  0  0  0  0  0  0  0  0  0  0
    1.2893   -5.5489    3.1296 O   0  0  0  0  0  0  0  0  0  0  0  0
   -0.9127   -6.7370    2.7530 C   0  0  0  0  0  0  0  0  0  0  0  0
    1.0656   -7.1552    1.1982 O   0  0  0  0  0  0  0  0  0  0  0  0
    0.3765  -13.3171    2.6871 C   0  0  0  0  0  0  0  0  0  0  0  0
   -0.7423  -13.8139    2.2414 C   0  0  0  0  0  0  0  0  0  0  0  0
   -0.8206  -15.2805    2.1557 C   0  0  0  0  0  0  0  0  0  0  0  0
    0.7149  -15.7299    2.4151 C   0  0  0  0  0  0  0  0  0  0  0  0
    1.3459  -14.5058    2.8600 C   0  0  0  0  0  0  0  0  0  0  0  0
   -1.6454   -7.5386    3.4876 C   0  0  0  0  0  0  0  0  0  0  0  0
   -1.5299   -5.7532    1.9603 C   0  0  0  0  0  0  0  0  0  0  0  0
   -2.8038   -5.5322    1.9215 C   0  0  0  0  0  0  0  0  0  0  0  0
   -3.5693   -6.3633    2.7666 C   0  0  0  0  0  0  0  0  0  0  0  0
  1  2  1  0
  1  8  1  0
  8  9  2  0
  8 10  1  0
  8 11  2  0
  5 12  1  0
 12 13  1  0
 13 14  2  0
 14 15  1  0
 12 16  1  0
 15 16  1  0
 10 17  2  0
 10 18  1  0
 18 19  2  3
 19 20  1  0
  2  3  2  0
  3  4  1  0
  4  5  2  0
  5  6  1  0
  6  7  2  0
  2  7  1  0
M  END

$$$$
No_4501-/export/home/yangzhenyu/potential_scad_32_flow//YTHDC2/2024-12-06-03-22-00/
     RDKit          3D

 18 19  0  0  0  0  0  0  0  0999 V2000
    1.1787   -8.0297    3.5154 C   0  0  0  0  0  0  0  0  0  0  0  0
    1.0491   -6.8434    2.9820 C   0  0  0  0  0  0  0  0  0  0  0  0
    0.9905   -9.0774    2.6527 C   0  0  0  0  0  0  0  0  0  0  0  0
    0.7897   -8.9519    1.3691 C   0  0  0  0  0  0  0  0  0  0  0  0
    0.7018   -7.7198    0.7892 C   0  0  0  0  0  0  0  0  0  0  0  0
    0.8918   -6.5957    1.6117 C   0  0  0  0  0  0  0  0  0  0  0  0
    1.0600  -10.5680    3.3321 C   0  0  0  0  0  0  0  0  0  0  0  0
    1.1634  -11.6086    2.5010 C   0  0  0  0  0  0  0  0  0  0  0  0
    1.1858  -12.9058    3.2031 C   0  0  0  0  0  0  0  0  0  0  0  0
    1.0368  -14.0450    2.5671 C   0  0  0  0  0  0  0  0  0  0  0  0
    0.9657  -14.1525    1.2722 C   0  0  0  0  0  0  0  0  0  0  0  0
    0.9792  -13.0423    0.5539 C   0  0  0  0  0  0  0  0  0  0  0  0
    0.9945  -11.7950    1.1041 C   0  0  0  0  0  0  0  0  0  0  0  0
    1.2167  -10.5628    4.5967 O   0  0  0  0  0  0  0  0  0  0  0  0
    0.7793   -5.2878    1.1332 O   0  0  0  0  0  0  0  0  0  0  0  0
    1.1249  -15.3134    3.3543 O   0  0  0  0  0  0  0  0  0  0  0  0
    0.8899  -16.5219    2.8860 C   0  0  0  0  0  0  0  0  0  0  0  0
    2.0198  -17.2486    2.8063 C   0  0  0  0  0  0  0  0  0  0  0  0
  1  2  1  0
  3  4  1  0
  2  6  1  0
  5  6  1  0
  3  7  1  0
  7  8  1  0
  7 14  2  0
  6 15  2  0
 10 16  1  0
 16 17  1  0
 17 18  1  0
  1  3  1  0
  4  5  1  0
  8  9  2  0
  9 10  1  0
 10 11  2  0
 11 12  1  0
 12 13  2  0
  8 13  1  0
M  END

$$$$
No_4502-/export/home/yangzhenyu/potential_scad_32_flow//YTHDC2/2024-12-06-03-22-00/
     RDKit          3D

 19 20  0  0  0  0  0  0  0  0999 V2000
    1.1787   -8.0297    3.5154 C   0  0  0  0  0  0  0  0  0  0  0  0
    1.0491   -6.8434    2.9820 C   0  0  0  0  0  0  0  0  0  0  0  0
    0.0950   -8.8404    3.2292 C   0  0  0  0  0  0  0  0  0  0  0  0
   -0.9173   -8.4596    2.5152 C   0  0  0  0  0  0  0  0  0  0  0  0
   -1.0331   -7.2162    2.0653 C   0  0  0  0  0  0  0  0  0  0  0  0
   -0.0105   -6.3168    2.3081 C   0  0  0  0  0  0  0  0  0  0  0  0
    0.1465  -10.2446    3.6981 C   0  0  0  0  0  0  0  0  0  0  0  0
    0.1907  -11.3369    2.8651 C   0  0  0  0  0  0  0  0  0  0  0  0
    1.0128  -11.8996    2.5974 C   0  0  0  0  0  0  0  0  0  0  0  0
    2.4988  -11.2673    2.9445 C   0  0  0  0  0  0  0  0  0  0  0  0
    1.2098  -13.2500    2.0338 C   0  0  0  0  0  0  0  0  0  0  0  0
    0.6026  -13.6293    0.9669 C   0  0  0  0  0  0  0  0  0  0  0  0
   -0.0155   -4.9693    1.8588 Cl  0  0  0  0  0  0  0  0  0  0  0  0
    0.7097  -14.8292    0.4288 C   0  0  0  0  0  0  0  0  0  0  0  0
    1.3261  -15.7878    1.0433 C   0  0  0  0  0  0  0  0  0  0  0  0
    1.8785  -15.5735    2.2896 C   0  0  0  0  0  0  0  0  0  0  0  0
    1.8700  -14.2612    2.8138 C   0  0  0  0  0  0  0  0  0  0  0  0
    2.5505  -16.5948    3.0351 C   0  0  0  0  0  0  0  0  0  0  0  0
    1.7376  -17.5016    3.4626 O   0  0  0  0  0  0  0  0  0  0  0  0
  3  7  1  0
  7  8  1  0
  8  9  2  3
  9 10  1  0
  9 11  1  0
  6 13  1  0
 16 18  1  0
 18 19  2  0
 11 12  2  0
 12 14  1  0
 14 15  2  0
 15 16  1  0
 16 17  2  0
 11 17  1  0
  1  2  2  0
  2  6  1  0
  5  6  2  0
  4  5  1  0
  3  4  2  0
  1  3  1  0
M  END

$$$$
No_4503-/export/home/yangzhenyu/potential_scad_32_flow//YTHDC2/2024-12-06-03-22-00/
     RDKit          3D

 17 18  0  0  0  0  0  0  0  0999 V2000
    1.1787   -8.0297    3.5154 C   0  0  0  0  0  0  0  0  0  0  0  0
    1.1048   -9.2215    3.2892 C   0  0  0  0  0  0  0  0  0  0  0  0
    1.2339   -9.7611    2.0189 C   0  0  0  0  0  0  0  0  0  0  0  0
    1.3583   -9.0036    0.9764 C   0  0  0  0  0  0  0  0  0  0  0  0
    1.5996   -7.6362    1.1311 C   0  0  0  0  0  0  0  0  0  0  0  0
    1.4830   -7.0928    2.3626 C   0  0  0  0  0  0  0  0  0  0  0  0
    1.1008  -11.2372    1.8542 C   0  0  0  0  0  0  0  0  0  0  0  0
    1.9749  -12.0938    2.2342 C   0  0  0  0  0  0  0  0  0  0  0  0
    1.7533  -13.4231    1.8956 C   0  0  0  0  0  0  0  0  0  0  0  0
    0.8624  -13.8318    1.1071 C   0  0  0  0  0  0  0  0  0  0  0  0
   -0.0624  -12.9093    0.5581 C   0  0  0  0  0  0  0  0  0  0  0  0
    0.1157  -11.5285    0.9404 C   0  0  0  0  0  0  0  0  0  0  0  0
    1.5746   -5.4311    2.6997 Cl  0  0  0  0  0  0  0  0  0  0  0  0
   -0.8050  -10.6461    0.4284 C   0  0  0  0  0  0  0  0  0  0  0  0
   -0.8646  -10.3079   -0.8808 C   0  0  0  0  0  0  0  0  0  0  0  0
   -1.9016   -9.3532   -1.3365 C   0  0  0  0  0  0  0  0  0  0  0  0
   -2.7230   -8.8587   -0.4740 C   0  0  0  0  0  0  0  0  0  0  0  0
  3  7  1  0
  6 13  1  0
 12 14  1  0
 14 15  1  0
 15 16  2  3
 16 17  1  0
  1  2  2  0
  2  3  1  0
  3  4  2  0
  4  5  1  0
  5  6  2  0
  1  6  1  0
  7  8  2  0
  8  9  1  0
  9 10  2  0
 10 11  1  0
 11 12  2  0
  7 12  1  0
M  END

$$$$
No_4504-/export/home/yangzhenyu/potential_scad_32_flow//YTHDC2/2024-12-06-03-22-00/
     RDKit          3D

 19 19  0  0  0  0  0  0  0  0999 V2000
    1.1787   -8.0297    3.5154 C   0  0  0  0  0  0  0  0  0  0  0  0
    1.0491   -6.8434    2.9820 C   0  0  0  0  0  0  0  0  0  0  0  0
    0.0950   -8.8404    3.2292 C   0  0  0  0  0  0  0  0  0  0  0  0
   -0.9173   -8.4596    2.5152 C   0  0  0  0  0  0  0  0  0  0  0  0
   -1.9974   -9.4009    2.4255 C   0  0  0  0  0  0  0  0  0  0  0  0
   -0.0636   -6.2856    2.3823 C   0  0  0  0  0  0  0  0  0  0  0  0
   -1.0542   -7.1300    2.2275 C   0  0  0  0  0  0  0  0  0  0  0  0
   -3.2038   -9.1712    2.8920 C   0  0  0  0  0  0  0  0  0  0  0  0
   -3.3490   -8.7128    4.1371 Cl  0  0  0  0  0  0  0  0  0  0  0  0
   -0.1089   -4.9239    2.0058 C   0  0  0  0  0  0  0  0  0  0  0  0
   -0.9540   -4.5710    0.9974 O   0  0  0  0  0  0  0  0  0  0  0  0
    0.7954   -3.9944    2.4370 O   0  0  0  0  0  0  0  0  0  0  0  0
    0.3265  -10.2501    3.8390 C   0  0  0  0  0  0  0  0  0  0  0  0
   -0.5221  -10.8332    4.4136 O   0  0  0  0  0  0  0  0  0  0  0  0
    1.5507  -10.8390    3.7762 N   0  0  0  0  0  0  0  0  0  0  0  0
    1.8773  -12.0644    4.2437 C   0  0  0  0  0  0  0  0  0  0  0  0
    1.6333  -13.0109    3.1025 C   0  0  0  0  0  0  0  0  0  0  0  0
    1.4718  -12.8101    1.8539 C   0  0  0  0  0  0  0  0  0  0  0  0
    1.9685  -11.7466    1.3717 C   0  0  0  0  0  0  0  0  0  0  0  0
  4  5  1  0
  5  8  1  0
  8  9  1  0
  6 10  1  0
 10 11  2  0
 10 12  1  0
  3 13  1  0
 13 14  2  0
 13 15  1  0
 15 16  1  0
 16 17  1  0
 17 18  1  0
 18 19  1  0
  1  2  2  0
  2  6  1  0
  6  7  2  0
  4  7  1  0
  3  4  2  0
  1  3  1  0
M  END

$$$$
No_4505-/export/home/yangzhenyu/potential_scad_32_flow//YTHDC2/2024-12-06-03-22-00/
     RDKit          3D

 20 21  0  0  0  0  0  0  0  0999 V2000
    1.1787   -8.0297    3.5154 C   0  0  0  0  0  0  0  0  0  0  0  0
    1.0491   -6.8434    2.9820 C   0  0  0  0  0  0  0  0  0  0  0  0
    0.0950   -8.8404    3.2292 C   0  0  0  0  0  0  0  0  0  0  0  0
   -0.9173   -8.4596    2.5152 C   0  0  0  0  0  0  0  0  0  0  0  0
   -1.0331   -7.2162    2.0653 C   0  0  0  0  0  0  0  0  0  0  0  0
   -0.0105   -6.3168    2.3081 C   0  0  0  0  0  0  0  0  0  0  0  0
    0.1935  -10.3737    3.7416 C   0  0  0  0  0  0  0  0  0  0  0  0
    1.2406  -10.8901    4.0986 C   0  0  0  0  0  0  0  0  0  0  0  0
    1.5651  -12.0769    3.6366 C   0  0  0  0  0  0  0  0  0  0  0  0
    0.7374  -12.6893    2.6338 C   0  0  0  0  0  0  0  0  0  0  0  0
    0.9589  -14.0598    2.2011 C   0  0  0  0  0  0  0  0  0  0  0  0
    0.1815  -14.6534    1.5087 C   0  0  0  0  0  0  0  0  0  0  0  0
   -0.8251  -14.0093    0.8069 C   0  0  0  0  0  0  0  0  0  0  0  0
   -1.0181  -12.6873    0.9862 C   0  0  0  0  0  0  0  0  0  0  0  0
   -0.2062  -11.9796    1.8966 C   0  0  0  0  0  0  0  0  0  0  0  0
    0.0057   -4.9684    1.8467 C   0  0  0  0  0  0  0  0  0  0  0  0
   -0.8053   -4.1400    2.2911 C   0  0  0  0  0  0  0  0  0  0  0  0
   -0.3438   -2.9329    2.8457 C   0  0  0  0  0  0  0  0  0  0  0  0
    0.9210   -2.5101    2.4265 C   0  0  0  0  0  0  0  0  0  0  0  0
    1.7993   -3.3112    1.8872 C   0  0  0  0  0  0  0  0  0  0  0  0
  3  7  1  0
  7  8  2  3
  8  9  1  0
  6 16  1  0
 16 17  1  0
 17 18  2  3
 18 19  1  0
 19 20  2  0
  9 10  1  0
  1  2  2  0
  2  6  1  0
  5  6  2  0
  4  5  1  0
  3  4  2  0
  1  3  1  0
 10 11  2  0
 11 12  1  0
 12 13  2  0
 13 14  1  0
 14 15  2  0
 10 15  1  0
M  END

$$$$
No_4506-/export/home/yangzhenyu/potential_scad_32_flow//YTHDC2/2024-12-06-03-22-00/
     RDKit          3D

 12 13  0  0  0  0  0  0  0  0999 V2000
    1.1787   -8.0297    3.5154 C   0  0  0  0  0  0  0  0  0  0  0  0
    1.1048   -9.2215    3.2892 C   0  0  0  0  0  0  0  0  0  0  0  0
    1.3627  -10.1721    4.3044 C   0  0  0  0  0  0  0  0  0  0  0  0
    1.7354  -11.4730    3.9023 C   0  0  0  0  0  0  0  0  0  0  0  0
    1.6166  -11.5515    2.5159 C   0  0  0  0  0  0  0  0  0  0  0  0
    1.4172  -10.6242    1.6178 C   0  0  0  0  0  0  0  0  0  0  0  0
    1.2598   -9.4423    1.9811 C   0  0  0  0  0  0  0  0  0  0  0  0
    1.0996   -7.0633    2.5049 C   0  0  0  0  0  0  0  0  0  0  0  0
    1.2922   -7.2465    1.2567 C   0  0  0  0  0  0  0  0  0  0  0  0
    1.4274   -8.5086    0.9073 C   0  0  0  0  0  0  0  0  0  0  0  0
    1.6084   -8.7700   -0.3829 C   0  0  0  0  0  0  0  0  0  0  0  0
    2.8353   -9.0038   -0.8470 O   0  0  0  0  0  0  0  0  0  0  0  0
 10 11  1  0
 11 12  1  0
  2  3  1  0
  3  4  2  0
  4  5  1  0
  5  6  2  0
  6  7  1  0
  1  2  2  0
  2  7  1  0
  7 10  2  0
  9 10  1  0
  8  9  2  0
  1  8  1  0
M  END

$$$$
No_4507-/export/home/yangzhenyu/potential_scad_32_flow//YTHDC2/2024-12-06-03-22-00/
     RDKit          3D

 18 18  0  0  0  0  0  0  0  0999 V2000
    1.1787   -8.0297    3.5154 C   0  0  0  0  0  0  0  0  0  0  0  0
    1.0491   -6.8434    2.9820 C   0  0  0  0  0  0  0  0  0  0  0  0
    0.0950   -8.8404    3.2292 C   0  0  0  0  0  0  0  0  0  0  0  0
   -0.9173   -8.4596    2.5152 C   0  0  0  0  0  0  0  0  0  0  0  0
   -1.0331   -7.2162    2.0653 C   0  0  0  0  0  0  0  0  0  0  0  0
   -0.0105   -6.3168    2.3081 C   0  0  0  0  0  0  0  0  0  0  0  0
    0.1465  -10.2446    3.6981 N   0  0  0  0  0  0  0  0  0  0  0  0
    1.1832  -10.8652    3.9851 C   0  0  0  0  0  0  0  0  0  0  0  0
    0.9502  -12.3217    4.0495 C   0  0  0  0  0  0  0  0  0  0  0  0
    1.0347  -12.8660    2.7208 C   0  0  0  0  0  0  0  0  0  0  0  0
    1.1213  -14.3294    2.6095 C   0  0  0  0  0  0  0  0  0  0  0  0
    2.0846  -14.9113    1.9873 C   0  0  0  0  0  0  0  0  0  0  0  0
    3.0057  -14.2845    1.3902 C   0  0  0  0  0  0  0  0  0  0  0  0
    2.3976  -16.3115    2.1523 C   0  0  0  0  0  0  0  0  0  0  0  0
   -0.0529   -5.0356    1.8331 S   0  0  0  0  0  0  0  0  0  0  0  0
   -0.9052   -4.1400    2.6997 O   0  0  0  0  0  0  0  0  0  0  0  0
   -0.4321   -4.7937    0.3708 O   0  0  0  0  0  0  0  0  0  0  0  0
    1.3933   -4.1102    1.7680 C   0  0  0  0  0  0  0  0  0  0  0  0
  3  7  1  0
  7  8  1  0
  8  9  1  0
  9 10  1  0
 10 11  1  0
 11 12  1  0
 12 13  1  0
 12 14  1  0
  6 15  1  0
 15 16  2  0
 15 17  2  0
 15 18  1  0
  1  2  2  0
  2  6  1  0
  5  6  2  0
  4  5  1  0
  3  4  2  0
  1  3  1  0
M  END

$$$$
No_4508-/export/home/yangzhenyu/potential_scad_32_flow//YTHDC2/2024-12-06-03-22-00/
     RDKit          3D

 18 19  0  0  0  0  0  0  0  0999 V2000
    1.1787   -8.0297    3.5154 C   0  0  0  0  0  0  0  0  0  0  0  0
    1.1048   -9.2215    3.2892 C   0  0  0  0  0  0  0  0  0  0  0  0
    1.3627  -10.1721    4.3044 C   0  0  0  0  0  0  0  0  0  0  0  0
    1.7354  -11.4730    3.9023 C   0  0  0  0  0  0  0  0  0  0  0  0
    1.8080  -11.8127    2.7216 C   0  0  0  0  0  0  0  0  0  0  0  0
    1.5854  -11.0021    1.7249 C   0  0  0  0  0  0  0  0  0  0  0  0
    1.3573   -9.7389    1.9287 C   0  0  0  0  0  0  0  0  0  0  0  0
    1.2865   -8.8078    0.9161 C   0  0  0  0  0  0  0  0  0  0  0  0
    0.9210   -7.5140    1.1674 C   0  0  0  0  0  0  0  0  0  0  0  0
    1.0097   -7.0192    2.4369 C   0  0  0  0  0  0  0  0  0  0  0  0
    2.0674  -13.4733    2.3896 O   0  0  0  0  0  0  0  0  0  0  0  0
    0.8453   -5.5889    2.6640 C   0  0  0  0  0  0  0  0  0  0  0  0
    1.1522   -4.7933    1.8011 C   0  0  0  0  0  0  0  0  0  0  0  0
    0.9708   -3.3211    2.0808 C   0  0  0  0  0  0  0  0  0  0  0  0
    0.4236   -2.4275    1.3252 C   0  0  0  0  0  0  0  0  0  0  0  0
    0.3638   -1.1035    1.5294 C   0  0  0  0  0  0  0  0  0  0  0  0
    0.9780   -0.6949    2.7926 C   0  0  0  0  0  0  0  0  0  0  0  0
    1.4563   -1.5641    3.6371 C   0  0  0  0  0  0  0  0  0  0  0  0
  5 11  1  0
 10 12  1  0
 12 13  2  3
 13 14  1  0
 14 15  2  3
 15 16  1  0
 16 17  2  3
 17 18  1  0
  1  2  2  0
  7  8  2  0
  8  9  1  0
  9 10  2  0
  1 10  1  0
  2  3  1  0
  3  4  2  0
  4  5  1  0
  5  6  2  0
  6  7  1  0
  2  7  1  0
M  END

$$$$
No_4509-/export/home/yangzhenyu/potential_scad_32_flow//YTHDC2/2024-12-06-03-22-00/
     RDKit          3D

 19 20  0  0  1  0  0  0  0  0999 V2000
    1.1787   -8.0297    3.5154 C   0  0  0  0  0  0  0  0  0  0  0  0
    1.0491   -6.8434    2.9820 C   0  0  0  0  0  0  0  0  0  0  0  0
    0.0950   -8.8404    3.2292 C   0  0  0  0  0  0  0  0  0  0  0  0
   -0.9173   -8.4596    2.5152 C   0  0  0  0  0  0  0  0  0  0  0  0
   -1.0331   -7.2162    2.0653 C   0  0  0  0  0  0  0  0  0  0  0  0
   -0.0105   -6.3168    2.3081 C   0  0  0  0  0  0  0  0  0  0  0  0
    0.1150   -4.9910    1.8495 C   0  0  2  0  0  0  0  0  0  0  0  0
   -0.1376   -4.7952    0.5550 C   0  0  0  0  0  0  0  0  0  0  0  0
   -0.2146   -3.3857    0.2341 C   0  0  0  0  0  0  0  0  0  0  0  0
    0.5012   -2.6512    1.3246 C   0  0  0  0  0  0  0  0  0  0  0  0
    0.5804   -3.6794    2.3214 C   0  0  0  0  0  0  0  0  0  0  0  0
    0.1839  -10.2497    3.7372 C   0  0  1  0  0  0  0  0  0  0  0  0
   -1.0147  -10.8934    3.9919 C   0  0  0  0  0  0  0  0  0  0  0  0
    1.2594  -11.1120    3.2733 C   0  0  0  0  0  0  0  0  0  0  0  0
    1.5219  -11.1778    2.1372 C   0  0  0  0  0  0  0  0  0  0  0  0
    1.2339  -12.2511    1.4441 C   0  0  0  0  0  0  0  0  0  0  0  0
    0.6795  -13.3893    2.0540 C   0  0  0  0  0  0  0  0  0  0  0  0
    0.9217  -14.5763    1.8129 C   0  0  0  0  0  0  0  0  0  0  0  0
    0.3776  -15.5810    2.7926 N   0  0  0  0  0  0  0  0  0  0  0  0
  7  6  1  6
  7  8  1  0
  8  9  2  0
  9 10  1  0
  7 11  1  0
 10 11  1  0
  3 12  1  0
 12 13  1  6
 12 14  1  0
 14 15  1  0
 15 16  2  3
 16 17  1  0
 17 18  2  3
 18 19  1  0
  1  2  2  0
  2  6  1  0
  5  6  2  0
  4  5  1  0
  3  4  2  0
  1  3  1  0
M  END

$$$$
No_4510-/export/home/yangzhenyu/potential_scad_32_flow//YTHDC2/2024-12-06-03-22-00/
     RDKit          3D

 18 19  0  0  0  0  0  0  0  0999 V2000
    1.1787   -8.0297    3.5154 C   0  0  0  0  0  0  0  0  0  0  0  0
    1.1048   -9.2215    3.2892 C   0  0  0  0  0  0  0  0  0  0  0  0
    1.2339   -9.7611    2.0189 C   0  0  0  0  0  0  0  0  0  0  0  0
    1.3583   -9.0036    0.9764 C   0  0  0  0  0  0  0  0  0  0  0  0
    1.5996   -7.6362    1.1311 C   0  0  0  0  0  0  0  0  0  0  0  0
    1.4830   -7.0928    2.3626 C   0  0  0  0  0  0  0  0  0  0  0  0
    1.4898   -5.7274    2.6199 C   0  0  0  0  0  0  0  0  0  0  0  0
    1.1681  -11.2222    1.8390 C   0  0  0  0  0  0  0  0  0  0  0  0
    0.5014  -11.9760    2.2068 C   0  0  0  0  0  0  0  0  0  0  0  0
    0.4167  -13.3685    2.0527 C   0  0  0  0  0  0  0  0  0  0  0  0
    1.5984  -14.1574    2.4634 C   0  0  0  0  0  0  0  0  0  0  0  0
    1.8283  -15.3606    2.3190 C   0  0  0  0  0  0  0  0  0  0  0  0
    0.9181  -16.1655    1.7275 C   0  0  0  0  0  0  0  0  0  0  0  0
   -0.2543  -15.6194    1.3332 C   0  0  0  0  0  0  0  0  0  0  0  0
   -0.4812  -14.2719    1.4803 C   0  0  0  0  0  0  0  0  0  0  0  0
    0.6703   -4.9751    2.7325 C   0  0  0  0  0  0  0  0  0  0  0  0
    0.7378   -3.5009    3.0391 C   0  0  0  0  0  0  0  0  0  0  0  0
   -1.7455  -13.7779    1.1932 C   0  0  0  0  0  0  0  0  0  0  0  0
  6  7  1  0
  3  8  1  0
  8  9  2  3
  9 10  1  0
  7 16  2  3
 16 17  1  0
 15 18  1  0
  1  2  2  0
  2  3  1  0
  3  4  2  0
  4  5  1  0
  5  6  2  0
  1  6  1  0
 10 11  2  0
 11 12  1  0
 12 13  2  0
 13 14  1  0
 14 15  2  0
 10 15  1  0
M  END

$$$$
No_4511-/export/home/yangzhenyu/potential_scad_32_flow//YTHDC2/2024-12-06-03-22-00/
     RDKit          3D

 19 20  0  0  1  0  0  0  0  0999 V2000
    1.1787   -8.0297    3.5154 C   0  0  0  0  0  0  0  0  0  0  0  0
    1.0491   -6.8434    2.9820 C   0  0  0  0  0  0  0  0  0  0  0  0
    0.9905   -9.0774    2.6527 C   0  0  0  0  0  0  0  0  0  0  0  0
    0.7897   -8.9519    1.3691 C   0  0  0  0  0  0  0  0  0  0  0  0
    0.7018   -7.7198    0.7892 C   0  0  0  0  0  0  0  0  0  0  0  0
    0.8918   -6.5957    1.6117 C   0  0  0  0  0  0  0  0  0  0  0  0
    1.0711  -10.4814    3.2282 C   0  0  2  0  0  0  0  0  0  0  0  0
   -0.1055  -11.1328    3.5223 C   0  0  2  0  0  0  0  0  0  0  0  0
   -1.2061  -10.3495    3.8837 C   0  0  1  0  0  0  0  0  0  0  0  0
   -1.2715   -9.5949    5.0137 C   0  0  0  0  0  0  0  0  0  0  0  0
   -2.3226   -8.7872    5.3499 C   0  0  0  0  0  0  0  0  0  0  0  0
   -3.3409   -8.6873    4.5477 C   0  0  0  0  0  0  0  0  0  0  0  0
   -3.3662   -9.3023    3.3561 C   0  0  0  0  0  0  0  0  0  0  0  0
   -2.3177  -10.1277    2.9760 C   0  0  0  0  0  0  0  0  0  0  0  0
    2.1363  -10.5188    4.2143 C   0  0  0  0  0  0  0  0  0  0  0  0
    0.8525   -5.2979    1.1133 Cl  0  0  0  0  0  0  0  0  0  0  0  0
   -2.3699  -10.7101    1.7900 O   0  0  0  0  0  0  0  0  0  0  0  0
   -0.0143  -12.3575    4.1706 C   0  0  0  0  0  0  0  0  0  0  0  0
    0.9766  -13.2562    3.5002 C   0  0  0  0  0  0  0  0  0  0  0  0
  3  7  1  0
  7  8  1  0
  8  9  1  0
  9 10  1  6
 11 12  1  0
  9 14  1  0
 13 14  1  0
  7 15  1  1
  6 16  1  0
 14 17  2  0
  8 18  1  1
 18 19  1  0
 10 11  1  0
 12 13  1  0
  1  2  2  0
  2  6  1  0
  5  6  2  0
  4  5  1  0
  3  4  2  0
  1  3  1  0
M  END

$$$$
No_4512-/export/home/yangzhenyu/potential_scad_32_flow//YTHDC2/2024-12-06-03-22-00/
     RDKit          3D

 19 20  0  0  0  0  0  0  0  0999 V2000
    1.1787   -8.0297    3.5154 C   0  0  0  0  0  0  0  0  0  0  0  0
    1.1048   -9.2215    3.2892 C   0  0  0  0  0  0  0  0  0  0  0  0
    1.0239   -9.7790    2.0239 C   0  0  0  0  0  0  0  0  0  0  0  0
    1.1393   -9.0211    0.9686 C   0  0  0  0  0  0  0  0  0  0  0  0
    1.4050   -7.6500    1.1251 C   0  0  0  0  0  0  0  0  0  0  0  0
    1.4868   -7.1041    2.3534 C   0  0  0  0  0  0  0  0  0  0  0  0
    1.5885   -5.7190    2.5687 C   0  0  0  0  0  0  0  0  0  0  0  0
    0.8710  -11.2137    1.9144 C   0  0  0  0  0  0  0  0  0  0  0  0
    1.8887  -12.0352    2.0512 C   0  0  0  0  0  0  0  0  0  0  0  0
    1.7070  -13.3672    1.7487 C   0  0  0  0  0  0  0  0  0  0  0  0
    0.5963  -13.8403    1.2955 C   0  0  0  0  0  0  0  0  0  0  0  0
   -0.4368  -13.0391    0.9937 C   0  0  0  0  0  0  0  0  0  0  0  0
   -0.2989  -11.6535    1.3070 C   0  0  0  0  0  0  0  0  0  0  0  0
   -1.4063  -10.8511    1.1662 C   0  0  0  0  0  0  0  0  0  0  0  0
   -2.2424  -10.5889    2.2507 Br  0  0  0  0  0  0  0  0  0  0  0  0
    1.3625   -4.8136    1.5369 O   0  0  0  0  0  0  0  0  0  0  0  0
    1.5888   -5.1157    3.8376 O   0  0  0  0  0  0  0  0  0  0  0  0
   -1.6333  -10.2459   -0.1417 C   0  0  0  0  0  0  0  0  0  0  0  0
   -2.5156   -9.7097   -0.5175 O   0  0  0  0  0  0  0  0  0  0  0  0
  6  7  1  0
  3  8  1  0
 13 14  1  0
 14 15  1  0
  7 16  2  0
  7 17  1  0
 14 18  1  0
 18 19  2  0
  1  2  2  0
  2  3  1  0
  3  4  2  0
  4  5  1  0
  5  6  2  0
  1  6  1  0
  8  9  2  0
  9 10  1  0
 10 11  2  0
 11 12  1  0
 12 13  2  0
  8 13  1  0
M  END

$$$$
No_4513-/export/home/yangzhenyu/potential_scad_32_flow//YTHDC2/2024-12-06-03-22-00/
     RDKit          3D

 12 12  0  0  1  0  0  0  0  0999 V2000
    1.1787   -8.0297    3.5154 C   0  0  0  0  0  0  0  0  0  0  0  0
    1.1048   -9.2215    3.2892 C   0  0  2  0  0  0  0  0  0  0  0  0
    1.3627  -10.1721    4.3044 C   0  0  0  0  0  0  0  0  0  0  0  0
    1.7354  -11.4730    3.9023 C   0  0  0  0  0  0  0  0  0  0  0  0
    1.6166  -11.5515    2.5159 C   0  0  0  0  0  0  0  0  0  0  0  0
    1.4080  -10.1475    2.0704 C   0  0  0  0  0  0  0  0  0  0  0  0
    1.2387   -7.2323    4.1580 N   0  0  0  0  0  0  0  0  0  0  0  0
    1.0199   -7.3259    2.0745 S   0  0  0  0  0  0  0  0  0  0  0  0
    1.7675  -12.5309    1.6627 Cl  0  0  0  0  0  0  0  0  0  0  0  0
    1.4228   -9.8018    0.8058 C   0  0  0  0  0  0  0  0  0  0  0  0
    0.3096   -9.8775    0.0384 O   0  0  0  0  0  0  0  0  0  0  0  0
    2.4873   -9.6704    0.0167 O   0  0  0  0  0  0  0  0  0  0  0  0
  2  1  1  1
  2  3  1  0
  3  4  2  0
  4  5  1  0
  2  6  1  0
  5  6  2  0
  1  7  1  0
  1  8  2  0
  5  9  1  0
  6 10  1  0
 10 11  2  0
 10 12  1  0
M  END

$$$$
No_4514-/export/home/yangzhenyu/potential_scad_32_flow//YTHDC2/2024-12-06-03-22-00/
     RDKit          3D

 19 20  0  0  1  0  0  0  0  0999 V2000
    1.1787   -8.0297    3.5154 C   0  0  0  0  0  0  0  0  0  0  0  0
    1.1048   -9.2215    3.2892 C   0  0  0  0  0  0  0  0  0  0  0  0
    1.2339   -9.7611    2.0189 C   0  0  0  0  0  0  0  0  0  0  0  0
    1.3583   -9.0036    0.9764 C   0  0  0  0  0  0  0  0  0  0  0  0
    1.5996   -7.6362    1.1311 C   0  0  0  0  0  0  0  0  0  0  0  0
    1.4830   -7.0928    2.3626 C   0  0  0  0  0  0  0  0  0  0  0  0
    1.1171  -11.3311    1.8661 C   0  0  0  0  0  0  0  0  0  0  0  0
    0.5042  -11.9974    2.3631 N   0  0  0  0  0  0  0  0  0  0  0  0
    0.7661  -13.1640    2.6757 C   0  0  2  0  0  0  0  0  0  0  0  0
    2.0467  -13.4865    3.1782 C   0  0  0  0  0  0  0  0  0  0  0  0
    1.5961   -5.4549    2.6877 Cl  0  0  0  0  0  0  0  0  0  0  0  0
   -0.0145  -14.3036    2.4026 C   0  0  1  0  0  0  0  0  0  0  0  0
    0.5967  -15.6592    2.8232 C   0  0  0  0  0  0  0  0  0  0  0  0
    1.8518  -15.7577    3.3091 C   0  0  0  0  0  0  0  0  0  0  0  0
    2.5788  -14.7096    3.4616 N   0  0  0  0  0  0  0  0  0  0  0  0
    1.9227  -11.6337    0.7344 O   0  0  0  0  0  0  0  0  0  0  0  0
    2.2500  -17.0489    3.4239 O   0  0  0  0  0  0  0  0  0  0  0  0
   -1.2925  -14.2923    2.0920 O   0  0  0  0  0  0  0  0  0  0  0  0
    1.6735   -9.4313   -0.3255 C   0  0  0  0  0  0  0  0  0  0  0  0
  3  7  1  0
  7  8  1  0
  9  8  1  6
  9 10  1  0
  6 11  1  0
  9 12  1  0
 13 14  1  0
 10 15  1  0
 14 15  1  0
  7 16  2  0
 14 17  2  0
 12 18  1  1
  4 19  1  0
 12 13  1  0
  1  2  2  0
  2  3  1  0
  3  4  2  0
  4  5  1  0
  5  6  2  0
  1  6  1  0
M  END

$$$$
No_4515-/export/home/yangzhenyu/potential_scad_32_flow//YTHDC2/2024-12-06-03-22-00/
     RDKit          3D

 19 21  0  0  0  0  0  0  0  0999 V2000
    1.1787   -8.0297    3.5154 C   0  0  0  0  0  0  0  0  0  0  0  0
    1.1048   -9.2215    3.2892 C   0  0  0  0  0  0  0  0  0  0  0  0
    1.4683  -10.2314    4.1915 C   0  0  0  0  0  0  0  0  0  0  0  0
    1.2721   -6.9655    3.0017 C   0  0  0  0  0  0  0  0  0  0  0  0
    1.3527  -11.5701    4.0959 C   0  0  0  0  0  0  0  0  0  0  0  0
    0.6658  -12.0106    3.0248 C   0  0  0  0  0  0  0  0  0  0  0  0
    0.3761  -11.2494    1.9231 C   0  0  0  0  0  0  0  0  0  0  0  0
    0.6037   -9.8629    2.0771 C   0  0  0  0  0  0  0  0  0  0  0  0
    1.4050   -6.9739    1.5391 C   0  0  0  0  0  0  0  0  0  0  0  0
    1.1336   -8.2468    0.7889 C   0  0  0  0  0  0  0  0  0  0  0  0
    0.8740   -9.2982    0.8751 C   0  0  0  0  0  0  0  0  0  0  0  0
    1.1991   -7.8171   -0.6403 O   0  0  0  0  0  0  0  0  0  0  0  0
    0.5404  -13.4376    2.8358 C   0  0  0  0  0  0  0  0  0  0  0  0
   -0.6449  -13.9881    2.5267 C   0  0  0  0  0  0  0  0  0  0  0  0
   -0.7177  -15.3596    2.4523 C   0  0  0  0  0  0  0  0  0  0  0  0
    0.3943  -16.1490    2.6821 C   0  0  0  0  0  0  0  0  0  0  0  0
    1.6080  -15.6412    3.0061 C   0  0  0  0  0  0  0  0  0  0  0  0
    1.7177  -14.2341    3.1393 C   0  0  0  0  0  0  0  0  0  0  0  0
    0.6738  -10.0812   -0.2012 O   0  0  0  0  0  0  0  0  0  0  0  0
  1  4  1  0
  4  9  2  0
  9 10  1  0
  8 11  1  0
 10 11  1  0
 10 12  2  0
  6 13  1  0
 11 19  2  0
  1  2  1  0
 13 14  2  0
 14 15  1  0
 15 16  2  0
 16 17  1  0
 17 18  2  0
 13 18  1  0
  2  3  2  0
  3  5  1  0
  5  6  2  0
  6  7  1  0
  7  8  2  0
  2  8  1  0
M  END

$$$$
No_4516-/export/home/yangzhenyu/potential_scad_32_flow//YTHDC2/2024-12-06-03-22-00/
     RDKit          3D

 16 17  0  0  0  0  0  0  0  0999 V2000
    1.1787   -8.0297    3.5154 C   0  0  0  0  0  0  0  0  0  0  0  0
    1.1048   -9.2215    3.2892 C   0  0  0  0  0  0  0  0  0  0  0  0
    1.3627  -10.1721    4.3044 C   0  0  0  0  0  0  0  0  0  0  0  0
    1.7354  -11.4730    3.9023 C   0  0  0  0  0  0  0  0  0  0  0  0
    1.8080  -11.8127    2.7216 C   0  0  0  0  0  0  0  0  0  0  0  0
    1.5854  -11.0021    1.7249 C   0  0  0  0  0  0  0  0  0  0  0  0
    1.3573   -9.7389    1.9287 C   0  0  0  0  0  0  0  0  0  0  0  0
    1.1102   -8.8712    0.9017 C   0  0  0  0  0  0  0  0  0  0  0  0
    0.5299   -7.6926    1.0325 C   0  0  0  0  0  0  0  0  0  0  0  0
    0.7526   -7.0802    2.3301 C   0  0  0  0  0  0  0  0  0  0  0  0
    2.0515  -13.2522    2.4284 O   0  0  0  0  0  0  0  0  0  0  0  0
    0.4385   -5.4424    2.5651 C   0  0  0  0  0  0  0  0  0  0  0  0
    1.5906   -4.8784    3.0035 C   0  0  0  0  0  0  0  0  0  0  0  0
    2.0409  -13.8099    1.2735 C   0  0  0  0  0  0  0  0  0  0  0  0
    1.1834   -3.5890    3.3319 C   0  0  0  0  0  0  0  0  0  0  0  0
    1.5683   -2.7214    2.2865 C   0  0  0  0  0  0  0  0  0  0  0  0
  5 11  1  0
 10 12  1  0
 12 13  1  0
 11 14  1  0
 13 15  1  0
 15 16  1  0
  1  2  2  0
  7  8  2  0
  8  9  1  0
  9 10  2  0
  1 10  1  0
  2  3  1  0
  3  4  2  0
  4  5  1  0
  5  6  2  0
  6  7  1  0
  2  7  1  0
M  END

$$$$
No_4517-/export/home/yangzhenyu/potential_scad_32_flow//YTHDC2/2024-12-06-03-22-00/
     RDKit          3D

 18 18  0  0  0  0  0  0  0  0999 V2000
    1.1787   -8.0297    3.5154 C   0  0  0  0  0  0  0  0  0  0  0  0
    1.1048   -9.2215    3.2892 C   0  0  0  0  0  0  0  0  0  0  0  0
    1.3627  -10.1721    4.3044 C   0  0  0  0  0  0  0  0  0  0  0  0
    2.3720  -10.8948    4.2468 C   0  0  0  0  0  0  0  0  0  0  0  0
    1.0579   -7.0441    2.4219 C   0  0  0  0  0  0  0  0  0  0  0  0
    0.8578   -7.4970    1.1686 C   0  0  0  0  0  0  0  0  0  0  0  0
    0.7382   -8.7683    0.8754 C   0  0  0  0  0  0  0  0  0  0  0  0
    0.8882   -9.7347    1.9238 C   0  0  0  0  0  0  0  0  0  0  0  0
    0.9437  -11.0299    1.7005 C   0  0  0  0  0  0  0  0  0  0  0  0
    0.4602  -11.5370    0.8140 O   0  0  0  0  0  0  0  0  0  0  0  0
    1.8018  -11.8887    2.3914 O   0  0  0  0  0  0  0  0  0  0  0  0
    3.5246  -10.0935    4.5918 C   0  0  0  0  0  0  0  0  0  0  0  0
    4.3897  -10.6976    5.5932 O   0  0  0  0  0  0  0  0  0  0  0  0
    1.1615   -5.5880    2.6990 C   0  0  0  0  0  0  0  0  0  0  0  0
    1.5816   -5.2381    3.8111 N   0  0  0  0  0  0  0  0  0  0  0  0
    1.1638   -4.8277    1.6467 O   0  0  0  0  0  0  0  0  0  0  0  0
    0.2054  -10.5220    5.0456 O   0  0  0  0  0  0  0  0  0  0  0  0
    0.5916   -9.2091   -0.6085 C   0  0  0  0  0  0  0  0  0  0  0  0
  2  3  1  0
  3  4  1  0
  8  9  1  0
  9 10  2  0
  9 11  1  0
  4 12  1  0
 12 13  1  0
  5 14  1  0
 14 15  1  0
 14 16  2  0
  3 17  2  0
  7 18  1  0
  1  2  2  0
  2  8  1  0
  7  8  2  0
  6  7  1  0
  5  6  2  0
  1  5  1  0
M  END

$$$$
No_4518-/export/home/yangzhenyu/potential_scad_32_flow//YTHDC2/2024-12-06-03-22-00/
     RDKit          3D

 18 19  0  0  0  0  0  0  0  0999 V2000
    1.1787   -8.0297    3.5154 C   0  0  0  0  0  0  0  0  0  0  0  0
    1.1048   -9.2215    3.2892 C   0  0  0  0  0  0  0  0  0  0  0  0
    1.3627  -10.1721    4.3044 C   0  0  0  0  0  0  0  0  0  0  0  0
    1.0682  -11.5187    4.0618 C   0  0  0  0  0  0  0  0  0  0  0  0
    0.6332  -11.9655    2.9682 C   0  0  0  0  0  0  0  0  0  0  0  0
    0.4776  -11.1308    1.9203 C   0  0  0  0  0  0  0  0  0  0  0  0
    0.7470   -9.8274    2.0368 C   0  0  0  0  0  0  0  0  0  0  0  0
    1.0387   -7.0301    2.5175 C   0  0  0  0  0  0  0  0  0  0  0  0
    0.9130   -7.5288    1.2013 C   0  0  0  0  0  0  0  0  0  0  0  0
    0.7893   -8.7979    0.9542 C   0  0  0  0  0  0  0  0  0  0  0  0
    0.5241   -9.2578   -0.2817 C   0  0  0  0  0  0  0  0  0  0  0  0
    1.2450   -9.2169   -1.2769 O   0  0  0  0  0  0  0  0  0  0  0  0
   -0.8706   -9.3448   -0.6392 N   0  0  0  0  0  0  0  0  0  0  0  0
    0.5226  -13.3817    2.7091 C   0  0  0  0  0  0  0  0  0  0  0  0
    1.5157  -14.3219    3.2215 N   0  0  0  0  0  0  0  0  0  0  0  0
    1.6048  -15.4860    2.7568 C   0  0  0  0  0  0  0  0  0  0  0  0
    0.7276  -16.4669    3.2362 C   0  0  0  0  0  0  0  0  0  0  0  0
    0.9096  -17.7903    2.8414 C   0  0  0  0  0  0  0  0  0  0  0  0
 10 11  1  0
 11 12  2  0
 11 13  1  0
  5 14  1  0
 14 15  1  0
 15 16  1  0
 16 17  1  0
 17 18  2  0
  2  3  1  0
  3  4  2  0
  4  5  1  0
  5  6  2  0
  6  7  1  0
  1  2  2  0
  2  7  1  0
  7 10  2  0
  9 10  1  0
  8  9  2  0
  1  8  1  0
M  END

$$$$
No_4519-/export/home/yangzhenyu/potential_scad_32_flow//YTHDC2/2024-12-06-03-22-00/
     RDKit          3D

 20 21  0  0  0  0  0  0  0  0999 V2000
    1.1787   -8.0297    3.5154 C   0  0  0  0  0  0  0  0  0  0  0  0
    1.1048   -9.2215    3.2892 C   0  0  0  0  0  0  0  0  0  0  0  0
    1.2339   -9.7611    2.0189 C   0  0  0  0  0  0  0  0  0  0  0  0
    1.3583   -9.0036    0.9764 C   0  0  0  0  0  0  0  0  0  0  0  0
    1.5996   -7.6362    1.1311 C   0  0  0  0  0  0  0  0  0  0  0  0
    1.4830   -7.0928    2.3626 C   0  0  0  0  0  0  0  0  0  0  0  0
    1.1171  -11.3311    1.8661 C   0  0  0  0  0  0  0  0  0  0  0  0
    0.5042  -11.9974    2.3631 C   0  0  0  0  0  0  0  0  0  0  0  0
    0.4547  -13.3874    2.1599 C   0  0  0  0  0  0  0  0  0  0  0  0
   -0.5486  -14.0819    1.9700 C   0  0  0  0  0  0  0  0  0  0  0  0
   -0.4313  -15.5696    1.9134 C   0  0  0  0  0  0  0  0  0  0  0  0
    0.5917  -16.0771    2.4770 C   0  0  0  0  0  0  0  0  0  0  0  0
    1.7174  -15.3894    2.9096 C   0  0  0  0  0  0  0  0  0  0  0  0
    1.6912  -13.9824    2.8435 C   0  0  0  0  0  0  0  0  0  0  0  0
    1.5894   -5.4677    2.7006 C   0  0  0  0  0  0  0  0  0  0  0  0
    1.7580   -5.0989    3.7997 N   0  0  0  0  0  0  0  0  0  0  0  0
    1.1100   -4.7656    1.6120 O   0  0  0  0  0  0  0  0  0  0  0  0
    0.7661  -17.5172    2.5611 C   0  0  0  0  0  0  0  0  0  0  0  0
    1.7413  -18.1649    1.8296 C   0  0  0  0  0  0  0  0  0  0  0  0
    2.3938  -17.7559    1.1368 C   0  0  0  0  0  0  0  0  0  0  0  0
  3  7  1  0
  7  8  2  3
  8  9  1  0
  6 15  1  0
 15 16  1  0
 15 17  2  0
 12 18  1  0
 18 19  1  0
 19 20  2  0
  1  2  2  0
  2  3  1  0
  3  4  2  0
  4  5  1  0
  5  6  2  0
  1  6  1  0
  9 10  2  0
 10 11  1  0
 11 12  2  0
 12 13  1  0
 13 14  2  0
  9 14  1  0
M  END

$$$$
No_4520-/export/home/yangzhenyu/potential_scad_32_flow//YTHDC2/2024-12-06-03-22-00/
     RDKit          3D

 19 21  0  0  1  0  0  0  0  0999 V2000
    1.1787   -8.0297    3.5154 C   0  0  0  0  0  0  0  0  0  0  0  0
    1.0491   -6.8434    2.9820 C   0  0  0  0  0  0  0  0  0  0  0  0
    0.0950   -8.8404    3.2292 C   0  0  0  0  0  0  0  0  0  0  0  0
    0.0602  -10.1764    3.8231 C   0  0  0  0  0  0  0  0  0  0  0  0
    0.2248   -6.3830    2.0648 C   0  0  0  0  0  0  0  0  0  0  0  0
   -0.6745   -7.2322    1.6857 C   0  0  0  0  0  0  0  0  0  0  0  0
   -0.7374   -8.4992    2.1291 C   0  0  0  0  0  0  0  0  0  0  0  0
   -1.2197  -10.6611    4.0385 C   0  0  0  0  0  0  0  0  0  0  0  0
   -2.2122  -10.2766    3.1435 C   0  0  0  0  0  0  0  0  0  0  0  0
   -2.0039   -9.1685    2.3315 C   0  0  0  0  0  0  0  0  0  0  0  0
    0.2925   -5.1707    1.3181 C   0  0  2  0  0  0  0  0  0  0  0  0
    1.3406   -4.3760    1.8257 C   0  0  0  0  0  0  0  0  0  0  0  0
   -0.9285   -4.4661    1.0887 C   0  0  0  0  0  0  0  0  0  0  0  0
   -1.6813   -3.9615    2.0798 C   0  0  0  0  0  0  0  0  0  0  0  0
   -1.1424   -2.9177    2.8139 C   0  0  0  0  0  0  0  0  0  0  0  0
   -1.6471   -2.7242    4.0644 C   0  0  0  0  0  0  0  0  0  0  0  0
   -2.8785   -3.3602    4.3753 C   0  0  0  0  0  0  0  0  0  0  0  0
   -3.4258   -4.3391    3.6586 C   0  0  0  0  0  0  0  0  0  0  0  0
   -2.8373   -4.6588    2.3941 C   0  0  0  0  0  0  0  0  0  0  0  0
  5 11  1  0
 11 12  1  1
 11 13  1  0
 13 14  1  0
 14 15  2  0
 15 16  1  0
 16 17  2  0
 17 18  1  0
 18 19  2  0
 14 19  1  0
  1  2  2  0
  2  5  1  0
  5  6  2  0
  6  7  1  0
  1  3  1  0
  3  4  2  0
  4  8  1  0
  8  9  2  0
  9 10  1  0
  7 10  2  0
  3  7  1  0
M  END

$$$$
No_4521-/export/home/yangzhenyu/potential_scad_32_flow//YTHDC2/2024-12-06-03-22-00/
     RDKit          3D

 17 18  0  0  1  0  0  0  0  0999 V2000
    1.1787   -8.0297    3.5154 C   0  0  0  0  0  0  0  0  0  0  0  0
    1.1048   -9.2215    3.2892 C   0  0  0  0  0  0  0  0  0  0  0  0
    1.3627  -10.1721    4.3044 C   0  0  0  0  0  0  0  0  0  0  0  0
    1.0682  -11.5187    4.0618 C   0  0  0  0  0  0  0  0  0  0  0  0
    0.6332  -11.9655    2.9682 C   0  0  0  0  0  0  0  0  0  0  0  0
    0.4776  -11.1308    1.9203 C   0  0  0  0  0  0  0  0  0  0  0  0
    0.7470   -9.8274    2.0368 C   0  0  0  0  0  0  0  0  0  0  0  0
    1.0387   -7.0301    2.5175 C   0  0  0  0  0  0  0  0  0  0  0  0
    0.9130   -7.5288    1.2013 C   0  0  0  0  0  0  0  0  0  0  0  0
    0.7893   -8.7979    0.9542 C   0  0  0  0  0  0  0  0  0  0  0  0
    0.3998  -13.3695    2.7114 C   0  0  2  0  0  0  0  0  0  0  0  0
   -0.8069  -13.8090    2.3159 N   0  0  0  0  0  0  0  0  0  0  0  0
    1.4017  -14.3211    2.9658 C   0  0  0  0  0  0  0  0  0  0  0  0
    2.4419  -14.3363    2.9787 C   0  0  0  0  0  0  0  0  0  0  0  0
    0.6102  -15.7168    3.0777 C   0  0  0  0  0  0  0  0  0  0  0  0
    1.3041  -16.8868    3.0892 N   0  0  0  0  0  0  0  0  0  0  0  0
    2.7434  -16.6383    2.9686 C   0  0  0  0  0  0  0  0  0  0  0  0
  5 11  1  0
 11 12  1  1
 11 13  1  0
 13 14  2  0
 13 15  1  0
 15 16  2  3
 16 17  1  0
  2  3  1  0
  3  4  2  0
  4  5  1  0
  5  6  2  0
  6  7  1  0
  1  2  2  0
  2  7  1  0
  7 10  2  0
  9 10  1  0
  8  9  2  0
  1  8  1  0
M  END

$$$$
No_4522-/export/home/yangzhenyu/potential_scad_32_flow//YTHDC2/2024-12-06-03-22-00/
     RDKit          3D

 18 19  0  0  1  0  0  0  0  0999 V2000
    1.1787   -8.0297    3.5154 C   0  0  0  0  0  0  0  0  0  0  0  0
    1.0491   -6.8434    2.9820 C   0  0  0  0  0  0  0  0  0  0  0  0
    0.0950   -8.8404    3.2292 C   0  0  0  0  0  0  0  0  0  0  0  0
   -0.9173   -8.4596    2.5152 C   0  0  0  0  0  0  0  0  0  0  0  0
   -1.0331   -7.2162    2.0653 C   0  0  0  0  0  0  0  0  0  0  0  0
   -0.0105   -6.3168    2.3081 C   0  0  0  0  0  0  0  0  0  0  0  0
    0.1465  -10.2446    3.6981 C   0  0  2  0  0  0  0  0  0  0  0  0
    1.2433  -10.8239    4.0166 C   0  0  0  0  0  0  0  0  0  0  0  0
    1.0790  -12.2885    4.3779 C   0  0  0  0  0  0  0  0  0  0  0  0
    0.0275  -12.8546    3.8829 C   0  0  0  0  0  0  0  0  0  0  0  0
   -0.9912  -12.3424    3.4171 C   0  0  0  0  0  0  0  0  0  0  0  0
   -1.0024  -10.9675    3.2748 C   0  0  0  0  0  0  0  0  0  0  0  0
   -0.1035   -4.8473    1.7747 C   0  0  0  0  0  0  0  0  0  0  0  0
   -0.8187   -4.1066    2.3530 C   0  0  0  0  0  0  0  0  0  0  0  0
   -2.1472  -13.0443    3.2663 O   0  0  0  0  0  0  0  0  0  0  0  0
   -0.2492   -2.9571    2.9676 C   0  0  0  0  0  0  0  0  0  0  0  0
   -0.1291   -3.0164    4.3382 C   0  0  0  0  0  0  0  0  0  0  0  0
    1.3071   -2.5197    4.7630 C   0  0  0  0  0  0  0  0  0  0  0  0
  7  3  1  6
  8  9  1  0
 10 11  1  0
  7 12  1  0
 11 12  1  0
  6 13  1  0
 13 14  1  0
 11 15  2  0
 14 16  1  0
 16 17  1  0
 17 18  1  0
  9 10  1  0
  7  8  1  0
  1  2  2  0
  2  6  1  0
  5  6  2  0
  4  5  1  0
  3  4  2  0
  1  3  1  0
M  END

$$$$
No_4523-/export/home/yangzhenyu/potential_scad_32_flow//YTHDC2/2024-12-06-03-22-00/
     RDKit          3D

 19 19  0  0  1  0  0  0  0  0999 V2000
    1.1787   -8.0297    3.5154 O   0  0  0  0  0  0  0  0  0  0  0  0
    0.9969   -8.9689    3.0048 C   0  0  0  0  0  0  0  0  0  0  0  0
    1.3055  -10.1056    3.6616 C   0  0  0  0  0  0  0  0  0  0  0  0
    1.1249  -11.3503    3.0941 C   0  0  0  0  0  0  0  0  0  0  0  0
    0.6932  -11.4484    1.8586 C   0  0  0  0  0  0  0  0  0  0  0  0
    0.5498  -10.3736    1.0579 C   0  0  0  0  0  0  0  0  0  0  0  0
    0.7643   -9.1185    1.6383 C   0  0  0  0  0  0  0  0  0  0  0  0
    0.5937   -7.8467    1.0482 C   0  0  0  0  0  0  0  0  0  0  0  0
    1.5294   -7.0230    1.0749 O   0  0  0  0  0  0  0  0  0  0  0  0
   -0.3798   -7.6033    0.1974 O   0  0  0  0  0  0  0  0  0  0  0  0
    1.2205  -12.8307    3.9803 C   0  0  0  0  0  0  0  0  0  0  0  0
    1.0270  -13.9369    3.2571 N   0  0  0  0  0  0  0  0  0  0  0  0
    0.0569  -14.7038    3.2477 C   0  0  2  0  0  0  0  0  0  0  0  0
   -1.0711  -14.2659    2.9454 C   0  0  0  0  0  0  0  0  0  0  0  0
    0.2565  -16.0727    3.6953 C   0  0  0  0  0  0  0  0  0  0  0  0
    0.2079  -17.0638    2.9950 C   0  0  0  0  0  0  0  0  0  0  0  0
    0.3541  -18.3823    3.5212 C   0  0  0  0  0  0  0  0  0  0  0  0
   -0.4745  -18.9175    4.4106 C   0  0  0  0  0  0  0  0  0  0  0  0
   -1.6875  -18.7306    4.3919 C   0  0  0  0  0  0  0  0  0  0  0  0
  1  2  1  0
  7  8  1  0
  8  9  2  0
  8 10  1  0
  4 11  1  0
 11 12  1  0
 12 13  1  0
 13 14  1  1
 13 15  1  0
 15 16  2  3
 16 17  1  0
 17 18  1  0
 18 19  1  0
  2  3  2  0
  3  4  1  0
  4  5  2  0
  5  6  1  0
  6  7  2  0
  2  7  1  0
M  END

$$$$
No_4524-/export/home/yangzhenyu/potential_scad_32_flow//YTHDC2/2024-12-06-03-22-00/
     RDKit          3D

 18 18  0  0  1  0  0  0  0  0999 V2000
    1.1787   -8.0297    3.5154 C   0  0  0  0  0  0  0  0  0  0  0  0
    1.0491   -6.8434    2.9820 C   0  0  0  0  0  0  0  0  0  0  0  0
    0.0950   -8.8404    3.2292 C   0  0  0  0  0  0  0  0  0  0  0  0
   -0.9173   -8.4596    2.5152 C   0  0  0  0  0  0  0  0  0  0  0  0
   -1.9974   -9.4009    2.4255 C   0  0  0  0  0  0  0  0  0  0  0  0
   -0.0636   -6.2856    2.3823 C   0  0  0  0  0  0  0  0  0  0  0  0
   -1.0542   -7.1300    2.2275 C   0  0  0  0  0  0  0  0  0  0  0  0
   -1.6989  -10.5941    2.0288 O   0  0  0  0  0  0  0  0  0  0  0  0
   -3.1045   -9.2260    3.2002 Br  0  0  0  0  0  0  0  0  0  0  0  0
   -0.1432   -4.9390    1.9850 C   0  0  0  0  0  0  0  0  0  0  0  0
    0.7920   -4.0420    2.2315 O   0  0  0  0  0  0  0  0  0  0  0  0
   -1.2854   -4.4614    1.5285 O   0  0  0  0  0  0  0  0  0  0  0  0
    0.3499  -10.2308    3.8864 C   0  0  2  0  0  0  0  0  0  0  0  0
   -0.4596  -10.6328    4.8908 O   0  0  0  0  0  0  0  0  0  0  0  0
    1.3581  -11.0170    3.6170 C   0  0  0  0  0  0  0  0  0  0  0  0
    1.2657  -12.1249    2.9691 C   0  0  0  0  0  0  0  0  0  0  0  0
    0.8992  -13.2593    3.9871 C   0  0  0  0  0  0  0  0  0  0  0  0
    0.7711  -14.5940    3.2020 C   0  0  0  0  0  0  0  0  0  0  0  0
  4  5  1  0
  5  8  2  0
  5  9  1  0
  6 10  1  0
 10 11  2  0
 10 12  1  0
  3 13  1  0
 13 14  1  1
 13 15  1  0
 15 16  1  0
 16 17  1  0
 17 18  2  0
  1  2  2  0
  2  6  1  0
  6  7  2  0
  4  7  1  0
  3  4  2  0
  1  3  1  0
M  END

$$$$
No_4525-/export/home/yangzhenyu/potential_scad_32_flow//YTHDC2/2024-12-06-03-22-00/
     RDKit          3D

 21 22  0  0  1  0  0  0  0  0999 V2000
    1.1787   -8.0297    3.5154 C   0  0  0  0  0  0  0  0  0  0  0  0
    1.0491   -6.8434    2.9820 C   0  0  0  0  0  0  0  0  0  0  0  0
    1.0690   -9.1150    2.7206 C   0  0  0  0  0  0  0  0  0  0  0  0
    0.9689   -6.6391    1.6260 C   0  0  0  0  0  0  0  0  0  0  0  0
    0.9670   -9.0334    1.3824 C   0  0  0  0  0  0  0  0  0  0  0  0
    0.8189   -7.7113    0.8022 C   0  0  0  0  0  0  0  0  0  0  0  0
    1.2114  -10.5217    3.2468 C   0  0  0  0  0  0  0  0  0  0  0  0
    1.4486  -11.5524    2.5920 C   0  0  0  0  0  0  0  0  0  0  0  0
    1.6393  -11.4586    1.0866 N   0  0  0  0  0  0  0  0  0  0  0  0
    1.3066  -10.1954    0.5928 C   0  0  0  0  0  0  0  0  0  0  0  0
    1.7527  -12.8454    3.0455 C   0  0  0  0  0  0  0  0  0  0  0  0
    0.6103  -13.7441    3.0451 O   0  0  0  0  0  0  0  0  0  0  0  0
    0.8023   -5.3717    1.0065 C   0  0  0  0  0  0  0  0  0  0  0  0
    0.1245   -4.3355    1.8050 C   0  0  0  0  0  0  0  0  0  0  0  0
   -1.2334   -4.3315    1.7785 C   0  0  0  0  0  0  0  0  0  0  0  0
   -1.8801   -3.9030    2.9623 C   0  0  0  0  0  0  0  0  0  0  0  0
    0.9327  -15.0972    3.1657 C   0  0  2  0  0  0  0  0  0  0  0  0
    2.1621  -15.5273    2.5489 C   0  0  0  0  0  0  0  0  0  0  0  0
    0.1536  -15.9218    3.6950 C   0  0  0  0  0  0  0  0  0  0  0  0
    2.4424  -16.9065    2.6605 C   0  0  0  0  0  0  0  0  0  0  0  0
    1.7381  -17.7372    3.2704 C   0  0  0  0  0  0  0  0  0  0  0  0
  8 11  1  0
 11 12  1  0
  4 13  1  0
 13 14  1  0
 14 15  1  0
 15 16  1  0
 12 17  1  0
 17 18  1  0
 17 19  1  6
 18 20  2  3
 20 21  1  0
  5 10  2  0
  9 10  1  0
  8  9  2  0
  7  8  1  0
  3  7  2  0
  1  2  2  0
  2  4  1  0
  4  6  2  0
  5  6  1  0
  3  5  1  0
  1  3  1  0
M  END

$$$$
No_4526-/export/home/yangzhenyu/potential_scad_32_flow//YTHDC2/2024-12-06-03-22-00/
     RDKit          3D

 20 21  0  0  1  0  0  0  0  0999 V2000
    1.1787   -8.0297    3.5154 C   0  0  0  0  0  0  0  0  0  0  0  0
    1.0491   -6.8434    2.9820 C   0  0  0  0  0  0  0  0  0  0  0  0
    1.9985   -8.9840    2.8958 C   0  0  1  0  0  0  0  0  0  0  0  0
    1.9135  -10.3404    3.6266 C   0  0  0  0  0  0  0  0  0  0  0  0
    1.3291  -11.3908    3.0222 C   0  0  1  0  0  0  0  0  0  0  0  0
    1.0344  -11.3281    1.7959 C   0  0  0  0  0  0  0  0  0  0  0  0
    0.5050   -6.6553    1.7492 C   0  0  0  0  0  0  0  0  0  0  0  0
    1.6364  -10.2524    0.9337 C   0  0  0  0  0  0  0  0  0  0  0  0
    1.7369   -9.0242    1.6103 C   0  0  0  0  0  0  0  0  0  0  0  0
    0.9461   -5.5965    0.9838 C   0  0  0  0  0  0  0  0  0  0  0  0
    1.2650  -12.5270    3.7014 C   0  0  0  0  0  0  0  0  0  0  0  0
    0.4899   -4.2973    1.4930 C   0  0  0  0  0  0  0  0  0  0  0  0
    1.3255   -3.3459    1.9013 C   0  0  0  0  0  0  0  0  0  0  0  0
    1.1281  -13.6627    2.8393 C   0  0  0  0  0  0  0  0  0  0  0  0
    0.0906  -14.6158    3.0063 C   0  0  0  0  0  0  0  0  0  0  0  0
    0.3595  -15.9097    2.4550 C   0  0  0  0  0  0  0  0  0  0  0  0
    1.5555  -16.2346    1.8556 C   0  0  0  0  0  0  0  0  0  0  0  0
    2.5817  -15.2890    1.7899 C   0  0  0  0  0  0  0  0  0  0  0  0
    2.3832  -13.9970    2.3155 C   0  0  0  0  0  0  0  0  0  0  0  0
    1.5553  -10.4120   -0.3003 O   0  0  0  0  0  0  0  0  0  0  0  0
  1  2  1  0
  3  1  1  1
  3  4  1  0
  4  5  1  0
  5  6  1  0
  2  7  1  0
  6  8  1  0
  3  9  1  0
  8  9  1  0
  7 10  1  0
  5 11  1  6
 10 12  1  0
 12 13  1  0
 11 14  1  0
  8 20  2  0
 14 15  2  0
 15 16  1  0
 16 17  2  0
 17 18  1  0
 18 19  2  0
 14 19  1  0
M  END

$$$$
No_4527-/export/home/yangzhenyu/potential_scad_32_flow//YTHDC2/2024-12-06-03-22-00/
     RDKit          3D

 20 22  0  0  1  0  0  0  0  0999 V2000
    1.1787   -8.0297    3.5154 C   0  0  0  0  0  0  0  0  0  0  0  0
    1.1048   -9.2215    3.2892 C   0  0  0  0  0  0  0  0  0  0  0  0
    1.3627  -10.1721    4.3044 C   0  0  0  0  0  0  0  0  0  0  0  0
    2.3720  -10.8948    4.2468 C   0  0  0  0  0  0  0  0  0  0  0  0
    2.9262  -11.1926    3.1170 C   0  0  0  0  0  0  0  0  0  0  0  0
    2.5807  -10.4593    1.9550 C   0  0  0  0  0  0  0  0  0  0  0  0
    1.7065   -9.4353    2.0233 C   0  0  0  0  0  0  0  0  0  0  0  0
    1.3623   -8.6610    1.0017 C   0  0  0  0  0  0  0  0  0  0  0  0
    1.8834   -8.8592   -0.1868 O   0  0  0  0  0  0  0  0  0  0  0  0
    0.5987   -7.5513    1.0816 C   0  0  0  0  0  0  0  0  0  0  0  0
    0.4283   -7.1049    2.4754 C   0  0  2  0  0  0  0  0  0  0  0  0
   -0.0373   -5.8853    2.6453 C   0  0  0  0  0  0  0  0  0  0  0  0
    0.8531   -4.7646    2.7161 C   0  0  0  0  0  0  0  0  0  0  0  0
   -1.3277   -5.4885    2.5279 C   0  0  0  0  0  0  0  0  0  0  0  0
    2.2052   -5.0945    2.8205 C   0  0  0  0  0  0  0  0  0  0  0  0
    0.3653   -3.4889    2.8012 C   0  0  0  0  0  0  0  0  0  0  0  0
   -1.8342   -4.2151    2.4390 C   0  0  0  0  0  0  0  0  0  0  0  0
   -0.9194   -3.2036    2.5596 C   0  0  0  0  0  0  0  0  0  0  0  0
    0.2369   -6.9918    0.1285 O   0  0  0  0  0  0  0  0  0  0  0  0
    1.3338   -2.4322    2.8573 Cl  0  0  0  0  0  0  0  0  0  0  0  0
  1  2  1  0
  7  8  1  0
  8  9  2  0
  8 10  1  0
  1 11  1  0
 10 11  1  0
 11 12  1  6
 13 15  1  0
 10 19  2  0
 16 20  1  0
  2  3  2  0
  3  4  1  0
  4  5  2  0
  5  6  1  0
  6  7  2  0
  2  7  1  0
 12 13  2  0
 13 16  1  0
 16 18  2  0
 17 18  1  0
 14 17  2  0
 12 14  1  0
M  END

$$$$
No_4528-/export/home/yangzhenyu/potential_scad_32_flow//YTHDC2/2024-12-06-03-22-00/
     RDKit          3D

 18 19  0  0  1  0  0  0  0  0999 V2000
    1.1787   -8.0297    3.5154 N   0  0  0  0  0  0  0  0  0  0  0  0
    1.0818   -9.0751    3.2053 C   0  0  0  0  0  0  0  0  0  0  0  0
    1.5216  -10.1164    3.9747 C   0  0  0  0  0  0  0  0  0  0  0  0
    1.4420  -11.4363    3.6461 C   0  0  0  0  0  0  0  0  0  0  0  0
    0.5969  -11.7648    2.6785 C   0  0  0  0  0  0  0  0  0  0  0  0
    0.3540  -13.1626    2.3846 C   0  0  0  0  0  0  0  0  0  0  0  0
    1.2624  -14.1350    2.9922 C   0  0  0  0  0  0  0  0  0  0  0  0
    0.6292   -9.5017    2.0025 C   0  0  0  0  0  0  0  0  0  0  0  0
    0.2415   -8.4353    1.1629 C   0  0  0  0  0  0  0  0  0  0  0  0
    0.0361   -8.7116   -0.1908 C   0  0  0  0  0  0  0  0  0  0  0  0
    0.0281   -9.9924   -0.5831 C   0  0  0  0  0  0  0  0  0  0  0  0
    0.1582  -11.0071    0.2927 C   0  0  0  0  0  0  0  0  0  0  0  0
    0.5716  -10.8388    1.6421 C   0  0  0  0  0  0  0  0  0  0  0  0
    1.3656  -15.4383    2.3988 C   0  0  1  0  0  0  0  0  0  0  0  0
    2.1156  -15.4324    1.3082 C   0  0  0  0  0  0  0  0  0  0  0  0
    2.3021  -16.5378    0.8638 N   0  0  0  0  0  0  0  0  0  0  0  0
    0.8610  -16.4455    2.9343 C   0  0  0  0  0  0  0  0  0  0  0  0
    1.8995  -17.3417    1.3240 H   0  0  0  0  0  0  0  0  0  0  0  0
  1  2  1  0
  5  6  1  0
  6  7  1  0
  7 14  1  0
 14 15  1  0
 15 16  2  0
 14 17  1  1
  2  3  2  0
  3  4  1  0
  4  5  2  0
  5 13  1  0
  2  8  1  0
  8  9  2  0
  9 10  1  0
 10 11  2  0
 11 12  1  0
 12 13  2  0
  8 13  1  0
 16 18  1  0
M  END

$$$$
No_4529-/export/home/yangzhenyu/potential_scad_32_flow//YTHDC2/2024-12-06-03-22-00/
     RDKit          3D

 17 18  0  0  1  0  0  0  0  0999 V2000
    1.1787   -8.0297    3.5154 C   0  0  0  0  0  0  0  0  0  0  0  0
    1.0491   -6.8434    2.9820 C   0  0  0  0  0  0  0  0  0  0  0  0
    0.9905   -9.0774    2.6527 C   0  0  0  0  0  0  0  0  0  0  0  0
    0.7897   -8.9519    1.3691 C   0  0  0  0  0  0  0  0  0  0  0  0
    0.7018   -7.7198    0.7892 C   0  0  0  0  0  0  0  0  0  0  0  0
    0.8918   -6.5957    1.6117 C   0  0  0  0  0  0  0  0  0  0  0  0
    1.0711  -10.4814    3.2282 C   0  0  2  0  0  0  0  0  0  0  0  0
    2.1432  -11.0138    3.5962 C   0  0  0  0  0  0  0  0  0  0  0  0
   -0.0553  -11.2345    3.2840 C   0  0  0  0  0  0  0  0  0  0  0  0
   -1.2156  -10.5474    3.8659 C   0  0  0  0  0  0  0  0  0  0  0  0
   -1.0149   -9.8213    5.1369 C   0  0  0  0  0  0  0  0  0  0  0  0
   -2.1481   -9.0254    5.4829 C   0  0  0  0  0  0  0  0  0  0  0  0
   -3.2514   -8.9634    4.8313 C   0  0  0  0  0  0  0  0  0  0  0  0
   -3.4583   -9.7261    3.7766 C   0  0  0  0  0  0  0  0  0  0  0  0
   -2.4773  -10.5629    3.3359 C   0  0  0  0  0  0  0  0  0  0  0  0
    2.1905  -11.8347    4.7317 O   0  0  0  0  0  0  0  0  0  0  0  0
    0.9014   -5.2993    1.0943 Br  0  0  0  0  0  0  0  0  0  0  0  0
  3  7  1  0
  7  8  1  0
  7  9  1  6
  9 10  1  0
  8 16  2  0
  6 17  1  0
  1  2  2  0
  2  6  1  0
  5  6  2  0
  4  5  1  0
  3  4  2  0
  1  3  1  0
 10 11  2  0
 11 12  1  0
 12 13  2  0
 13 14  1  0
 14 15  2  0
 10 15  1  0
M  END

$$$$
No_4530-/export/home/yangzhenyu/potential_scad_32_flow//YTHDC2/2024-12-06-03-22-00/
     RDKit          3D

 17 19  0  0  0  0  0  0  0  0999 V2000
    1.1787   -8.0297    3.5154 C   0  0  0  0  0  0  0  0  0  0  0  0
    1.1048   -9.2215    3.2892 C   0  0  0  0  0  0  0  0  0  0  0  0
    1.3627  -10.1721    4.3044 C   0  0  0  0  0  0  0  0  0  0  0  0
    1.7354  -11.4730    3.9023 C   0  0  0  0  0  0  0  0  0  0  0  0
    1.8080  -11.8127    2.7216 C   0  0  0  0  0  0  0  0  0  0  0  0
    1.5854  -11.0021    1.7249 C   0  0  0  0  0  0  0  0  0  0  0  0
    1.3573   -9.7389    1.9287 C   0  0  0  0  0  0  0  0  0  0  0  0
    1.1102   -8.8712    0.9017 C   0  0  0  0  0  0  0  0  0  0  0  0
    0.5299   -7.6926    1.0325 C   0  0  0  0  0  0  0  0  0  0  0  0
    0.7526   -7.0802    2.3301 C   0  0  0  0  0  0  0  0  0  0  0  0
    2.0515  -13.2522    2.4284 N   0  0  0  0  0  0  0  0  0  0  0  0
    1.3682  -14.1441    1.9494 C   0  0  0  0  0  0  0  0  0  0  0  0
    1.8741  -15.3482    1.7076 C   0  0  0  0  0  0  0  0  0  0  0  0
    1.1004  -16.3969    1.3607 N   0  0  0  0  0  0  0  0  0  0  0  0
   -0.0508  -14.0739    1.7461 C   0  0  0  0  0  0  0  0  0  0  0  0
   -0.7048  -15.1783    1.5556 C   0  0  0  0  0  0  0  0  0  0  0  0
   -0.1123  -16.3612    1.3390 C   0  0  0  0  0  0  0  0  0  0  0  0
  5 11  1  0
 11 12  1  0
  1  2  2  0
  7  8  2  0
  8  9  1  0
  9 10  2  0
  1 10  1  0
  2  3  1  0
  3  4  2  0
  4  5  1  0
  5  6  2  0
  6  7  1  0
  2  7  1  0
 12 13  2  0
 13 14  1  0
 14 17  2  0
 16 17  1  0
 15 16  2  0
 12 15  1  0
M  END

$$$$
No_4531-/export/home/yangzhenyu/potential_scad_32_flow//YTHDC2/2024-12-06-03-22-00/
     RDKit          3D

 19 19  0  0  0  0  0  0  0  0999 V2000
    1.1787   -8.0297    3.5154 C   0  0  0  0  0  0  0  0  0  0  0  0
    1.0491   -6.8434    2.9820 C   0  0  0  0  0  0  0  0  0  0  0  0
    0.9905   -9.0774    2.6527 C   0  0  0  0  0  0  0  0  0  0  0  0
    0.7897   -8.9519    1.3691 C   0  0  0  0  0  0  0  0  0  0  0  0
    0.7018   -7.7198    0.7892 C   0  0  0  0  0  0  0  0  0  0  0  0
    0.8918   -6.5957    1.6117 C   0  0  0  0  0  0  0  0  0  0  0  0
    1.0711  -10.4814    3.2282 C   0  0  0  0  0  0  0  0  0  0  0  0
   -0.1055  -11.1328    3.5223 C   0  0  0  0  0  0  0  0  0  0  0  0
   -0.1824  -12.4513    3.3816 C   0  0  0  0  0  0  0  0  0  0  0  0
    0.9472  -13.2655    3.1726 C   0  0  0  0  0  0  0  0  0  0  0  0
    2.1715  -12.6012    2.9116 Cl  0  0  0  0  0  0  0  0  0  0  0  0
    0.7564  -14.6979    3.2503 C   0  0  0  0  0  0  0  0  0  0  0  0
    1.9256  -15.4943    2.9186 N   0  0  0  0  0  0  0  0  0  0  0  0
   -0.1687  -15.3541    3.5573 O   0  0  0  0  0  0  0  0  0  0  0  0
    0.8519   -5.2996    1.1194 Cl  0  0  0  0  0  0  0  0  0  0  0  0
    1.8382  -16.8617    2.9359 C   0  0  0  0  0  0  0  0  0  0  0  0
    3.1337  -17.5325    2.5876 C   0  0  0  0  0  0  0  0  0  0  0  0
    3.1441  -18.8556    2.6281 C   0  0  0  0  0  0  0  0  0  0  0  0
    2.1034  -19.5567    3.0165 C   0  0  0  0  0  0  0  0  0  0  0  0
  3  7  1  0
  7  8  1  0
  8  9  2  3
  9 10  1  0
 10 11  1  0
 10 12  1  0
 12 13  1  0
 12 14  2  0
  6 15  1  0
 13 16  1  0
 16 17  1  0
 17 18  2  3
 18 19  1  0
  1  2  2  0
  2  6  1  0
  5  6  2  0
  4  5  1  0
  3  4  2  0
  1  3  1  0
M  END

$$$$
No_4532-/export/home/yangzhenyu/potential_scad_32_flow//YTHDC2/2024-12-06-03-22-00/
     RDKit          3D

 15 16  0  0  1  0  0  0  0  0999 V2000
    1.1787   -8.0297    3.5154 C   0  0  0  0  0  0  0  0  0  0  0  0
    1.1048   -9.2215    3.2892 C   0  0  0  0  0  0  0  0  0  0  0  0
    1.3627  -10.1721    4.3044 C   0  0  0  0  0  0  0  0  0  0  0  0
    1.0682  -11.5187    4.0618 C   0  0  0  0  0  0  0  0  0  0  0  0
    0.7653  -11.7320    2.7387 C   0  0  0  0  0  0  0  0  0  0  0  0
    0.5661  -10.9730    1.8367 C   0  0  0  0  0  0  0  0  0  0  0  0
    0.7745   -9.6758    2.0361 C   0  0  0  0  0  0  0  0  0  0  0  0
    1.2131   -6.9952    2.4858 C   0  0  1  0  0  0  0  0  0  0  0  0
    1.0372   -7.3618    1.2450 C   0  0  0  0  0  0  0  0  0  0  0  0
    0.8884   -8.7092    0.9459 C   0  0  0  0  0  0  0  0  0  0  0  0
    0.7739   -9.1153   -0.2836 O   0  0  0  0  0  0  0  0  0  0  0  0
    0.4908  -13.4844    2.4034 O   0  0  0  0  0  0  0  0  0  0  0  0
   -0.4578  -13.8156    1.8122 C   0  0  0  0  0  0  0  0  0  0  0  0
    1.3731   -5.5737    2.8119 C   0  0  0  0  0  0  0  0  0  0  0  0
    1.0061   -6.6061    0.2388 O   0  0  0  0  0  0  0  0  0  0  0  0
  1  2  1  0
  8  9  1  0
  7 10  1  0
  9 10  1  0
 10 11  2  0
  5 12  1  0
 12 13  1  0
  8 14  1  1
  9 15  2  0
  1  8  1  0
  2  3  2  0
  3  4  1  0
  4  5  2  0
  5  6  1  0
  6  7  2  0
  2  7  1  0
M  END

$$$$
No_4533-/export/home/yangzhenyu/potential_scad_32_flow//YTHDC2/2024-12-06-03-22-00/
     RDKit          3D

 18 19  0  0  0  0  0  0  0  0999 V2000
    1.1787   -8.0297    3.5154 C   0  0  0  0  0  0  0  0  0  0  0  0
    1.1048   -9.2215    3.2892 C   0  0  0  0  0  0  0  0  0  0  0  0
    1.3627  -10.1721    4.3044 C   0  0  0  0  0  0  0  0  0  0  0  0
    1.0682  -11.5187    4.0618 C   0  0  0  0  0  0  0  0  0  0  0  0
    0.6332  -11.9655    2.9682 Cl  0  0  0  0  0  0  0  0  0  0  0  0
    1.0138   -7.1532    2.3503 C   0  0  0  0  0  0  0  0  0  0  0  0
    1.0977   -5.7987    2.4330 C   0  0  0  0  0  0  0  0  0  0  0  0
    1.0408   -7.8057    1.1428 C   0  0  0  0  0  0  0  0  0  0  0  0
    1.1933   -9.0551    0.8729 C   0  0  0  0  0  0  0  0  0  0  0  0
    1.2595   -9.8778    1.9902 C   0  0  0  0  0  0  0  0  0  0  0  0
    0.5207   -4.9881    1.4835 C   0  0  0  0  0  0  0  0  0  0  0  0
    0.6034   -3.5911    1.5299 C   0  0  0  0  0  0  0  0  0  0  0  0
   -0.0687   -2.8852    0.6147 C   0  0  0  0  0  0  0  0  0  0  0  0
   -1.0463   -3.5108   -0.1976 C   0  0  0  0  0  0  0  0  0  0  0  0
   -1.3180   -4.7992   -0.1349 C   0  0  0  0  0  0  0  0  0  0  0  0
   -0.5685   -5.5951    0.7441 C   0  0  0  0  0  0  0  0  0  0  0  0
    1.1925   -9.6409   -0.3230 C   0  0  0  0  0  0  0  0  0  0  0  0
    1.5831   -9.0665   -1.3233 O   0  0  0  0  0  0  0  0  0  0  0  0
  2  3  1  0
  3  4  2  3
  4  5  1  0
  6  7  1  0
  9 17  1  0
 17 18  2  0
  7 11  1  0
 11 12  2  0
 12 13  1  0
 13 14  2  0
 14 15  1  0
 15 16  2  0
 11 16  1  0
  1  2  2  0
  2 10  1  0
  9 10  2  0
  8  9  1  0
  6  8  2  0
  1  6  1  0
M  END

$$$$
No_4534-/export/home/yangzhenyu/potential_scad_32_flow//YTHDC2/2024-12-06-03-22-00/
     RDKit          3D

 20 22  0  0  0  0  0  0  0  0999 V2000
    1.1787   -8.0297    3.5154 C   0  0  0  0  0  0  0  0  0  0  0  0
    1.1048   -9.2215    3.2892 C   0  0  0  0  0  0  0  0  0  0  0  0
    1.3627  -10.1721    4.3044 C   0  0  0  0  0  0  0  0  0  0  0  0
    1.0682  -11.5187    4.0618 C   0  0  0  0  0  0  0  0  0  0  0  0
    0.6332  -11.9655    2.9682 C   0  0  0  0  0  0  0  0  0  0  0  0
    0.4776  -11.1308    1.9203 C   0  0  0  0  0  0  0  0  0  0  0  0
    0.7470   -9.8274    2.0368 C   0  0  0  0  0  0  0  0  0  0  0  0
    1.0387   -7.0301    2.5175 C   0  0  0  0  0  0  0  0  0  0  0  0
    0.9130   -7.5288    1.2013 C   0  0  0  0  0  0  0  0  0  0  0  0
    0.7893   -8.7979    0.9542 C   0  0  0  0  0  0  0  0  0  0  0  0
    0.3851  -13.5918    2.7030 C   0  0  0  0  0  0  0  0  0  0  0  0
   -0.6308  -13.9568    2.4558 C   0  0  0  0  0  0  0  0  0  0  0  0
    1.4752  -14.4128    3.1920 C   0  0  0  0  0  0  0  0  0  0  0  0
   -0.8236  -15.3019    2.1771 N   0  0  0  0  0  0  0  0  0  0  0  0
    0.9809  -15.6505    2.7947 C   0  0  0  0  0  0  0  0  0  0  0  0
    2.2617  -16.5954    3.2593 C   0  0  0  0  0  0  0  0  0  0  0  0
    0.0488  -16.1640    2.4714 C   0  0  0  0  0  0  0  0  0  0  0  0
    0.4232   -9.3193   -0.5000 C   0  0  0  0  0  0  0  0  0  0  0  0
    1.1811   -9.1571   -1.3605 O   0  0  0  0  0  0  0  0  0  0  0  0
   -0.8737   -9.3197   -0.7646 O   0  0  0  0  0  0  0  0  0  0  0  0
  5 11  1  0
 15 16  1  0
 10 18  1  0
 18 19  2  0
 18 20  1  0
  2  3  1  0
  3  4  2  0
  4  5  1  0
  5  6  2  0
  6  7  1  0
  1  2  2  0
  2  7  1  0
  7 10  2  0
  9 10  1  0
  8  9  2  0
  1  8  1  0
 11 12  2  0
 12 14  1  0
 14 17  2  0
 15 17  1  0
 13 15  2  0
 11 13  1  0
M  END

$$$$
No_4535-/export/home/yangzhenyu/potential_scad_32_flow//YTHDC2/2024-12-06-03-22-00/
     RDKit          3D

 19 19  0  0  1  0  0  0  0  0999 V2000
    1.1787   -8.0297    3.5154 C   0  0  0  0  0  0  0  0  0  0  0  0
    1.0491   -6.8434    2.9820 C   0  0  0  0  0  0  0  0  0  0  0  0
    1.9985   -8.9840    2.8958 C   0  0  0  0  0  0  0  0  0  0  0  0
    1.9135  -10.3404    3.6266 C   0  0  2  0  0  0  0  0  0  0  0  0
    2.2847  -10.5440    4.7936 N   0  0  0  0  0  0  0  0  0  0  0  0
    0.3701   -6.7416    1.7897 C   0  0  0  0  0  0  0  0  0  0  0  0
    0.3762   -7.5567    0.9409 O   0  0  0  0  0  0  0  0  0  0  0  0
    0.2188   -5.3998    1.3683 O   0  0  0  0  0  0  0  0  0  0  0  0
    2.2773  -11.3601    2.5979 C   0  0  0  0  0  0  0  0  0  0  0  0
    1.8819  -12.6280    2.9253 C   0  0  0  0  0  0  0  0  0  0  0  0
    0.7733  -13.1576    2.0851 C   0  0  0  0  0  0  0  0  0  0  0  0
    0.5269  -14.5048    2.4329 C   0  0  0  0  0  0  0  0  0  0  0  0
   -0.6486  -15.0198    2.5164 C   0  0  0  0  0  0  0  0  0  0  0  0
   -1.6924  -14.2516    2.0117 C   0  0  0  0  0  0  0  0  0  0  0  0
   -1.4766  -12.8800    1.6758 C   0  0  0  0  0  0  0  0  0  0  0  0
   -0.2040  -12.3428    1.7817 C   0  0  0  0  0  0  0  0  0  0  0  0
   -0.8968  -16.3355    2.8048 O   0  0  0  0  0  0  0  0  0  0  0  0
    0.1123  -16.9997    3.5086 C   0  0  0  0  0  0  0  0  0  0  0  0
   -2.6017  -12.1263    1.1558 F   0  0  0  0  0  0  0  0  0  0  0  0
  1  2  1  0
  1  3  1  0
  3  4  1  0
  4  5  1  1
  2  6  1  0
  6  7  2  0
  6  8  1  0
  4  9  1  0
  9 10  1  0
 10 11  1  0
 13 17  1  0
 17 18  1  0
 15 19  1  0
 11 12  2  0
 12 13  1  0
 13 14  2  0
 14 15  1  0
 15 16  2  0
 11 16  1  0
M  END

$$$$
No_4536-/export/home/yangzhenyu/potential_scad_32_flow//YTHDC2/2024-12-06-03-22-00/
     RDKit          3D

 18 18  0  0  0  0  0  0  0  0999 V2000
    1.1787   -8.0297    3.5154 C   0  0  0  0  0  0  0  0  0  0  0  0
    1.1048   -9.2215    3.2892 C   0  0  0  0  0  0  0  0  0  0  0  0
    1.2339   -9.7611    2.0189 C   0  0  0  0  0  0  0  0  0  0  0  0
    1.3583   -9.0036    0.9764 C   0  0  0  0  0  0  0  0  0  0  0  0
    1.5996   -7.6362    1.1311 C   0  0  0  0  0  0  0  0  0  0  0  0
    1.4830   -7.0928    2.3626 C   0  0  0  0  0  0  0  0  0  0  0  0
    1.1008  -11.2372    1.8542 C   0  0  0  0  0  0  0  0  0  0  0  0
    0.5178  -11.9759    2.3445 C   0  0  0  0  0  0  0  0  0  0  0  0
    0.4575  -13.3705    2.1281 C   0  0  0  0  0  0  0  0  0  0  0  0
    1.1632  -14.1013    2.0451 C   0  0  0  0  0  0  0  0  0  0  0  0
    2.4646  -13.5566    1.4445 C   0  0  0  0  0  0  0  0  0  0  0  0
    1.2467  -15.5603    2.2927 C   0  0  0  0  0  0  0  0  0  0  0  0
    0.3854  -15.9779    3.1650 O   0  0  0  0  0  0  0  0  0  0  0  0
    2.1231  -16.4014    1.8509 O   0  0  0  0  0  0  0  0  0  0  0  0
    1.5706   -5.4758    2.6777 C   0  0  0  0  0  0  0  0  0  0  0  0
    1.1759   -4.7516    1.6277 N   0  0  0  0  0  0  0  0  0  0  0  0
    0.4856   -3.5882    1.7759 C   0  0  0  0  0  0  0  0  0  0  0  0
    0.9549   -2.7414    2.6269 C   0  0  0  0  0  0  0  0  0  0  0  0
  3  7  1  0
  7  8  2  3
  8  9  1  0
  9 10  2  3
 10 11  1  0
 10 12  1  0
 12 13  1  0
 12 14  2  0
  6 15  1  0
 15 16  1  0
 16 17  1  0
 17 18  1  0
  1  2  2  0
  2  3  1  0
  3  4  2  0
  4  5  1  0
  5  6  2  0
  1  6  1  0
M  END

$$$$
No_4537-/export/home/yangzhenyu/potential_scad_32_flow//YTHDC2/2024-12-06-03-22-00/
     RDKit          3D

 18 18  0  0  1  0  0  0  0  0999 V2000
    1.1787   -8.0297    3.5154 O   0  0  0  0  0  0  0  0  0  0  0  0
    0.6747   -7.4019    2.7838 C   0  0  0  0  0  0  0  0  0  0  0  0
    0.7594   -8.0032    1.4295 C   0  0  0  0  0  0  0  0  0  0  0  0
    0.3459   -9.1500    1.3581 C   0  0  2  0  0  0  0  0  0  0  0  0
    0.9462   -9.9230    0.3351 C   0  0  0  0  0  0  0  0  0  0  0  0
    0.6395  -11.0790    0.1456 O   0  0  0  0  0  0  0  0  0  0  0  0
    2.1368   -9.4357   -0.2374 O   0  0  0  0  0  0  0  0  0  0  0  0
    0.2855   -6.2891    3.0863 O   0  0  0  0  0  0  0  0  0  0  0  0
   -0.7089   -9.5693    1.9157 C   0  0  0  0  0  0  0  0  0  0  0  0
   -2.0026   -9.2146    1.7577 C   0  0  0  0  0  0  0  0  0  0  0  0
   -3.1354   -9.4970    2.4772 C   0  0  0  0  0  0  0  0  0  0  0  0
   -3.7162  -10.6294    2.5065 C   0  0  0  0  0  0  0  0  0  0  0  0
   -3.1796  -11.7097    1.7447 C   0  0  0  0  0  0  0  0  0  0  0  0
   -3.1822  -11.6832    0.4446 C   0  0  0  0  0  0  0  0  0  0  0  0
   -2.3794  -12.5723   -0.2681 C   0  0  0  0  0  0  0  0  0  0  0  0
   -2.1133  -13.8032    0.3250 C   0  0  0  0  0  0  0  0  0  0  0  0
   -2.1721  -13.9152    1.6454 C   0  0  0  0  0  0  0  0  0  0  0  0
   -2.7278  -12.8843    2.3766 C   0  0  0  0  0  0  0  0  0  0  0  0
  1  2  1  0
  2  3  1  0
  4  3  1  6
  4  5  1  0
  5  6  1  0
  5  7  2  0
  2  8  2  0
  4  9  1  0
  9 10  2  3
 10 11  1  0
 11 12  2  3
 12 13  1  0
 13 14  2  0
 14 15  1  0
 15 16  2  0
 16 17  1  0
 17 18  2  0
 13 18  1  0
M  END

$$$$
No_4538-/export/home/yangzhenyu/potential_scad_32_flow//YTHDC2/2024-12-06-03-22-00/
     RDKit          3D

 19 20  0  0  1  0  0  0  0  0999 V2000
    1.1787   -8.0297    3.5154 C   0  0  0  0  0  0  0  0  0  0  0  0
    1.1048   -9.2215    3.2892 C   0  0  0  0  0  0  0  0  0  0  0  0
    1.2339   -9.7611    2.0189 C   0  0  0  0  0  0  0  0  0  0  0  0
    1.3583   -9.0036    0.9764 C   0  0  0  0  0  0  0  0  0  0  0  0
    1.5996   -7.6362    1.1311 C   0  0  0  0  0  0  0  0  0  0  0  0
    1.4830   -7.0928    2.3626 C   0  0  0  0  0  0  0  0  0  0  0  0
    1.1008  -11.2372    1.8542 C   0  0  1  0  0  0  0  0  0  0  0  0
    0.4812  -11.6084    0.6459 C   0  0  0  0  0  0  0  0  0  0  0  0
    0.5134  -13.0269    0.4830 C   0  0  0  0  0  0  0  0  0  0  0  0
    1.2057  -13.8685    1.2734 C   0  0  2  0  0  0  0  0  0  0  0  0
    1.9819  -13.3990    2.3594 C   0  0  1  0  0  0  0  0  0  0  0  0
    1.8610  -12.0988    2.6716 C   0  0  0  0  0  0  0  0  0  0  0  0
    2.4163  -11.5839    3.7861 O   0  0  0  0  0  0  0  0  0  0  0  0
    1.5574   -5.6480    2.6418 Cl  0  0  0  0  0  0  0  0  0  0  0  0
    1.5385   -9.4510   -0.3483 C   0  0  0  0  0  0  0  0  0  0  0  0
    1.7210   -8.7769   -1.2421 O   0  0  0  0  0  0  0  0  0  0  0  0
    1.2852  -10.5633   -0.7192 O   0  0  0  0  0  0  0  0  0  0  0  0
    2.5646  -14.3123    3.1649 O   0  0  0  0  0  0  0  0  0  0  0  0
    1.2880  -15.2047    1.0212 O   0  0  0  0  0  0  0  0  0  0  0  0
  7  3  1  6
  7  8  1  0
  9 10  1  0
  7 12  1  0
 11 12  1  0
 12 13  2  0
  6 14  1  0
  4 15  1  0
 15 16  2  0
 15 17  1  0
 11 18  1  1
 10 19  1  6
  8  9  1  0
 10 11  1  0
  1  2  2  0
  2  3  1  0
  3  4  2  0
  4  5  1  0
  5  6  2  0
  1  6  1  0
M  END

$$$$
No_4539-/export/home/yangzhenyu/potential_scad_32_flow//YTHDC2/2024-12-06-03-22-00/
     RDKit          3D

 19 20  0  0  1  0  0  0  0  0999 V2000
    1.1787   -8.0297    3.5154 C   0  0  0  0  0  0  0  0  0  0  0  0
    1.1048   -9.2215    3.2892 C   0  0  0  0  0  0  0  0  0  0  0  0
    1.2339   -9.7611    2.0189 C   0  0  1  0  0  0  0  0  0  0  0  0
    1.1954  -11.2312    1.8661 C   0  0  0  0  0  0  0  0  0  0  0  0
    1.2996  -11.5815    0.5387 C   0  0  0  0  0  0  0  0  0  0  0  0
    0.9270   -7.0442    2.4967 C   0  0  2  0  0  0  0  0  0  0  0  0
    0.9803   -7.6034    1.0978 C   0  0  0  0  0  0  0  0  0  0  0  0
    1.1096   -8.9244    0.8670 C   0  0  0  0  0  0  0  0  0  0  0  0
    1.2480  -13.0632    0.5980 C   0  0  0  0  0  0  0  0  0  0  0  0
    1.2834  -11.8947    2.9113 C   0  0  0  0  0  0  0  0  0  0  0  0
    1.2676  -13.2994    2.8231 C   0  0  0  0  0  0  0  0  0  0  0  0
    1.2338  -13.9304    1.6249 C   0  0  0  0  0  0  0  0  0  0  0  0
    1.0016   -5.4974    2.6498 C   0  0  0  0  0  0  0  0  0  0  0  0
    1.0294   -6.8349    0.0984 O   0  0  0  0  0  0  0  0  0  0  0  0
    1.4063  -15.2394    1.4505 C   0  0  0  0  0  0  0  0  0  0  0  0
    0.9623  -16.0365    2.1480 Cl  0  0  0  0  0  0  0  0  0  0  0  0
    2.2627  -15.6513    0.5321 O   0  0  0  0  0  0  0  0  0  0  0  0
    1.1367   -9.3653   -0.3719 O   0  0  0  0  0  0  0  0  0  0  0  0
    0.1660   -4.7929    2.0085 C   0  0  0  0  0  0  0  0  0  0  0  0
  1  2  1  0
  3  4  1  6
  6  7  1  0
  3  8  1  0
  7  8  1  0
  6 13  1  6
  7 14  2  0
 12 15  1  0
 15 16  1  0
 15 17  2  0
  8 18  2  0
 13 19  1  0
  2  3  1  0
  1  6  1  0
  4  5  2  0
  5  9  1  0
  9 12  2  0
 11 12  1  0
 10 11  2  0
  4 10  1  0
M  END

$$$$
No_4540-/export/home/yangzhenyu/potential_scad_32_flow//YTHDC2/2024-12-06-03-22-00/
     RDKit          3D

 20 20  0  0  1  0  0  0  0  0999 V2000
    1.1787   -8.0297    3.5154 C   0  0  0  0  0  0  0  0  0  0  0  0
    1.0491   -6.8434    2.9820 C   0  0  0  0  0  0  0  0  0  0  0  0
    0.0950   -8.8404    3.2292 C   0  0  0  0  0  0  0  0  0  0  0  0
   -0.9173   -8.4596    2.5152 C   0  0  0  0  0  0  0  0  0  0  0  0
   -1.0331   -7.2162    2.0653 C   0  0  0  0  0  0  0  0  0  0  0  0
   -0.0105   -6.3168    2.3081 C   0  0  0  0  0  0  0  0  0  0  0  0
    0.1150   -4.9910    1.8495 C   0  0  0  0  0  0  0  0  0  0  0  0
   -0.1376   -4.7952    0.5550 N   0  0  0  0  0  0  0  0  0  0  0  0
    0.8335   -4.0110    2.5280 O   0  0  0  0  0  0  0  0  0  0  0  0
    0.1683  -10.2835    3.6443 C   0  0  0  0  0  0  0  0  0  0  0  0
    1.2219  -10.8791    4.0894 N   0  0  0  0  0  0  0  0  0  0  0  0
   -1.0114  -10.9238    3.8853 O   0  0  0  0  0  0  0  0  0  0  0  0
    1.6619  -12.0503    3.8220 C   0  0  0  0  0  0  0  0  0  0  0  0
    1.8779  -12.2573    2.2578 C   0  0  1  0  0  0  0  0  0  0  0  0
    1.9575  -11.0756    1.5381 C   0  0  0  0  0  0  0  0  0  0  0  0
    2.0628  -13.4489    1.7349 C   0  0  0  0  0  0  0  0  0  0  0  0
    2.9231  -10.1093    1.6282 F   0  0  0  0  0  0  0  0  0  0  0  0
    0.9888  -14.4221    1.9565 C   0  0  0  0  0  0  0  0  0  0  0  0
    1.2785  -15.3661    2.7993 C   0  0  0  0  0  0  0  0  0  0  0  0
    2.3266  -16.0021    2.9490 C   0  0  0  0  0  0  0  0  0  0  0  0
  6  7  1  0
  7  8  1  0
  7  9  2  0
  3 10  1  0
 10 11  1  0
 10 12  2  0
 11 13  1  0
 14 13  1  1
 14 15  1  0
 14 16  1  0
 15 17  1  0
 16 18  1  0
 18 19  1  0
 19 20  1  0
  1  2  2  0
  2  6  1  0
  5  6  2  0
  4  5  1  0
  3  4  2  0
  1  3  1  0
M  END

$$$$
No_4541-/export/home/yangzhenyu/potential_scad_32_flow//YTHDC2/2024-12-06-03-22-00/
     RDKit          3D

 20 22  0  0  1  0  0  0  0  0999 V2000
    1.1787   -8.0297    3.5154 C   0  0  0  0  0  0  0  0  0  0  0  0
    1.1048   -9.2215    3.2892 C   0  0  0  0  0  0  0  0  0  0  0  0
    1.3627  -10.1721    4.3044 C   0  0  0  0  0  0  0  0  0  0  0  0
    1.0682  -11.5187    4.0618 C   0  0  0  0  0  0  0  0  0  0  0  0
    0.6332  -11.9655    2.9682 C   0  0  0  0  0  0  0  0  0  0  0  0
    0.4776  -11.1308    1.9203 C   0  0  0  0  0  0  0  0  0  0  0  0
    0.1540  -11.7530    0.6168 C   0  0  0  0  0  0  0  0  0  0  0  0
    0.7979   -9.8320    2.0306 C   0  0  0  0  0  0  0  0  0  0  0  0
   -1.3071  -11.9040    0.4813 C   0  0  1  0  0  0  0  0  0  0  0  0
    1.0180   -7.0215    2.6199 C   0  0  2  0  0  0  0  0  0  0  0  0
    1.2135   -7.4188    1.2211 C   0  0  0  0  0  0  0  0  0  0  0  0
    0.9947   -8.7380    0.9472 C   0  0  0  0  0  0  0  0  0  0  0  0
    0.9685   -9.1082   -0.3018 O   0  0  0  0  0  0  0  0  0  0  0  0
   -1.9336  -11.0841    0.6983 N   0  0  0  0  0  0  0  0  0  0  0  0
   -1.6464  -13.0301   -0.1862 C   0  0  0  0  0  0  0  0  0  0  0  0
   -0.8939  -14.0315   -0.5070 C   0  0  0  0  0  0  0  0  0  0  0  0
   -2.9821  -12.9849   -0.4815 C   0  0  0  0  0  0  0  0  0  0  0  0
   -3.2165  -11.5103    0.0844 C   0  0  0  0  0  0  0  0  0  0  0  0
    0.3743  -13.3653    2.8083 N   0  0  0  0  0  0  0  0  0  0  0  0
    1.4321   -5.5832    2.8964 Cl  0  0  0  0  0  0  0  0  0  0  0  0
  1  2  1  0
  6  7  1  0
  9  7  1  6
 10 11  1  0
  8 12  1  0
 11 12  1  0
 12 13  2  0
  9 14  1  0
  9 15  1  0
 15 16  1  0
 15 17  1  0
 14 18  1  0
 17 18  1  0
  5 19  1  0
 10 20  1  1
  1 10  1  0
  2  3  2  0
  3  4  1  0
  4  5  2  0
  5  6  1  0
  6  8  2  0
  2  8  1  0
M  END

$$$$
No_4542-/export/home/yangzhenyu/potential_scad_32_flow//YTHDC2/2024-12-06-03-22-00/
     RDKit          3D

 18 19  0  0  0  0  0  0  0  0999 V2000
    1.1787   -8.0297    3.5154 C   0  0  0  0  0  0  0  0  0  0  0  0
    1.0491   -6.8434    2.9820 C   0  0  0  0  0  0  0  0  0  0  0  0
    0.0950   -8.8404    3.2292 C   0  0  0  0  0  0  0  0  0  0  0  0
   -0.9173   -8.4596    2.5152 C   0  0  0  0  0  0  0  0  0  0  0  0
   -1.0331   -7.2162    2.0653 C   0  0  0  0  0  0  0  0  0  0  0  0
   -0.0105   -6.3168    2.3081 C   0  0  0  0  0  0  0  0  0  0  0  0
    0.0485   -4.9783    1.8782 C   0  0  0  0  0  0  0  0  0  0  0  0
   -0.6974   -4.6139    0.8644 C   0  0  0  0  0  0  0  0  0  0  0  0
   -0.9552   -3.3006    0.6322 C   0  0  0  0  0  0  0  0  0  0  0  0
   -0.0842   -2.3242    1.1750 C   0  0  0  0  0  0  0  0  0  0  0  0
    0.7666   -2.6097    2.0716 C   0  0  0  0  0  0  0  0  0  0  0  0
    0.8924   -3.9831    2.4474 C   0  0  0  0  0  0  0  0  0  0  0  0
    0.2102  -10.4428    3.8031 C   0  0  0  0  0  0  0  0  0  0  0  0
    0.4180  -11.4607    2.8837 C   0  0  0  0  0  0  0  0  0  0  0  0
   -0.1608  -11.6463    1.9567 C   0  0  0  0  0  0  0  0  0  0  0  0
    1.5708  -12.2615    3.3372 C   0  0  0  0  0  0  0  0  0  0  0  0
    1.8319  -13.3489    2.6550 C   0  0  0  0  0  0  0  0  0  0  0  0
    1.1321  -13.7955    1.6532 C   0  0  0  0  0  0  0  0  0  0  0  0
  6  7  1  0
  3 13  1  0
 13 14  1  0
 14 15  2  0
 14 16  1  0
 16 17  2  3
 17 18  1  0
  1  2  2  0
  2  6  1  0
  5  6  2  0
  4  5  1  0
  3  4  2  0
  1  3  1  0
  7  8  2  0
  8  9  1  0
  9 10  2  0
 10 11  1  0
 11 12  2  0
  7 12  1  0
M  END

$$$$
No_4543-/export/home/yangzhenyu/potential_scad_32_flow//YTHDC2/2024-12-06-03-22-00/
     RDKit          3D

 18 19  0  0  0  0  0  0  0  0999 V2000
    1.1787   -8.0297    3.5154 C   0  0  0  0  0  0  0  0  0  0  0  0
    1.0491   -6.8434    2.9820 C   0  0  0  0  0  0  0  0  0  0  0  0
    0.9905   -9.0774    2.6527 C   0  0  0  0  0  0  0  0  0  0  0  0
    0.7897   -8.9519    1.3691 C   0  0  0  0  0  0  0  0  0  0  0  0
    0.7018   -7.7198    0.7892 C   0  0  0  0  0  0  0  0  0  0  0  0
    0.8918   -6.5957    1.6117 C   0  0  0  0  0  0  0  0  0  0  0  0
    1.0600  -10.5680    3.3321 C   0  0  0  0  0  0  0  0  0  0  0  0
   -0.1041  -11.1772    3.5150 C   0  0  0  0  0  0  0  0  0  0  0  0
   -1.2204  -10.4119    3.8534 C   0  0  0  0  0  0  0  0  0  0  0  0
   -2.4391  -10.9071    3.9807 C   0  0  0  0  0  0  0  0  0  0  0  0
   -2.5636  -12.2186    3.5080 C   0  0  0  0  0  0  0  0  0  0  0  0
   -1.5546  -12.9113    2.8441 C   0  0  0  0  0  0  0  0  0  0  0  0
   -0.2364  -12.4047    2.9230 C   0  0  0  0  0  0  0  0  0  0  0  0
    0.8600   -5.2598    1.1653 C   0  0  0  0  0  0  0  0  0  0  0  0
    0.8094  -13.0933    2.4494 C   0  0  0  0  0  0  0  0  0  0  0  0
    1.4504  -14.0229    3.2703 C   0  0  0  0  0  0  0  0  0  0  0  0
    1.6665  -15.3840    2.7291 C   0  0  0  0  0  0  0  0  0  0  0  0
    0.7558  -16.3588    3.0717 C   0  0  0  0  0  0  0  0  0  0  0  0
  3  7  1  0
  7  8  1  0
  6 14  1  0
 13 15  1  0
 15 16  1  0
 16 17  1  0
 17 18  1  0
  1  2  2  0
  2  6  1  0
  5  6  2  0
  4  5  1  0
  3  4  2  0
  1  3  1  0
  8  9  2  0
  9 10  1  0
 10 11  2  0
 11 12  1  0
 12 13  2  0
  8 13  1  0
M  END

$$$$
No_4544-/export/home/yangzhenyu/potential_scad_32_flow//YTHDC2/2024-12-06-03-22-00/
     RDKit          3D

 19 22  0  0  0  0  0  0  0  0999 V2000
    1.1787   -8.0297    3.5154 C   0  0  0  0  0  0  0  0  0  0  0  0
    1.0491   -6.8434    2.9820 C   0  0  0  0  0  0  0  0  0  0  0  0
    0.0950   -8.8404    3.2292 C   0  0  0  0  0  0  0  0  0  0  0  0
   -0.7663   -8.2602    2.4375 C   0  0  0  0  0  0  0  0  0  0  0  0
   -0.3589   -6.8665    2.1913 C   0  0  0  0  0  0  0  0  0  0  0  0
    0.1214  -10.2270    3.6107 C   0  0  0  0  0  0  0  0  0  0  0  0
    1.0989  -10.9131    4.0683 C   0  0  0  0  0  0  0  0  0  0  0  0
    0.9299  -12.2875    4.3570 N   0  0  0  0  0  0  0  0  0  0  0  0
   -0.1833  -12.6450    3.7515 C   0  0  0  0  0  0  0  0  0  0  0  0
   -0.8074  -11.3317    3.3944 C   0  0  0  0  0  0  0  0  0  0  0  0
   -0.8185   -5.8175    1.7034 C   0  0  0  0  0  0  0  0  0  0  0  0
   -0.2861   -4.5577    1.8509 C   0  0  0  0  0  0  0  0  0  0  0  0
   -0.8795   -3.3097    1.4508 C   0  0  0  0  0  0  0  0  0  0  0  0
   -0.2588   -2.1550    1.5642 C   0  0  0  0  0  0  0  0  0  0  0  0
    1.1032   -2.1891    1.8959 C   0  0  0  0  0  0  0  0  0  0  0  0
    1.8028   -3.3132    2.1913 C   0  0  0  0  0  0  0  0  0  0  0  0
    1.2028   -4.5663    2.0835 C   0  0  0  0  0  0  0  0  0  0  0  0
    1.6931   -5.7405    2.6164 C   0  0  0  0  0  0  0  0  0  0  0  0
   -1.9151   -8.6611    2.0868 O   0  0  0  0  0  0  0  0  0  0  0  0
  1  2  1  0
  1  3  2  0
  3  4  1  0
  4  5  1  0
  3  6  1  0
  6  7  2  0
  7  8  1  0
  8  9  2  0
  6 10  1  0
  9 10  1  0
  4 19  2  0
 12 13  1  0
 13 14  2  0
 14 15  1  0
 15 16  2  0
 16 17  1  0
  2  5  2  0
  5 11  1  0
 11 12  2  0
 12 17  1  0
 17 18  2  0
  2 18  1  0
M  END

$$$$
No_4545-/export/home/yangzhenyu/potential_scad_32_flow//YTHDC2/2024-12-06-03-22-00/
     RDKit          3D

 20 21  0  0  1  0  0  0  0  0999 V2000
    1.1787   -8.0297    3.5154 C   0  0  0  0  0  0  0  0  0  0  0  0
    1.0491   -6.8434    2.9820 C   0  0  0  0  0  0  0  0  0  0  0  0
    1.9985   -8.9840    2.8958 C   0  0  2  0  0  0  0  0  0  0  0  0
    1.7297   -9.2108    1.6335 C   0  0  0  0  0  0  0  0  0  0  0  0
    1.7343   -8.0566    0.8408 C   0  0  2  0  0  0  0  0  0  0  0  0
    1.0269   -6.8892    1.4456 C   0  0  0  0  0  0  0  0  0  0  0  0
    1.7596   -8.0979   -0.4723 O   0  0  0  0  0  0  0  0  0  0  0  0
    1.9544  -10.3620    3.5567 C   0  0  0  0  0  0  0  0  0  0  0  0
    1.1932  -11.3446    3.2810 C   0  0  0  0  0  0  0  0  0  0  0  0
   -0.0875  -11.0741    2.6789 C   0  0  0  0  0  0  0  0  0  0  0  0
   -1.0051  -10.3580    3.2108 C   0  0  0  0  0  0  0  0  0  0  0  0
   -2.1675  -10.0581    2.6850 C   0  0  0  0  0  0  0  0  0  0  0  0
   -2.5543  -10.7901    1.6922 C   0  0  0  0  0  0  0  0  0  0  0  0
   -1.6773  -11.6159    1.0092 C   0  0  0  0  0  0  0  0  0  0  0  0
   -0.4026  -11.7823    1.5695 C   0  0  0  0  0  0  0  0  0  0  0  0
    0.4542  -12.6398    0.9848 C   0  0  0  0  0  0  0  0  0  0  0  0
    0.0774  -13.8119    0.4938 C   0  0  0  0  0  0  0  0  0  0  0  0
    1.0673  -14.7122   -0.1060 C   0  0  0  0  0  0  0  0  0  0  0  0
    2.2906  -14.3367    0.0099 N   0  0  0  0  0  0  0  0  0  0  0  0
    2.5112  -13.4749    0.4882 H   0  0  0  0  0  0  0  0  0  0  0  0
  1  2  1  0
  3  1  1  1
  3  4  1  0
  4  5  1  0
  2  6  1  0
  5  6  1  0
  5  7  1  6
  3  8  1  0
  8  9  2  3
  9 10  1  0
 15 16  1  0
 16 17  2  3
 17 18  1  0
 18 19  2  0
 10 11  2  0
 11 12  1  0
 12 13  2  0
 13 14  1  0
 14 15  2  0
 10 15  1  0
 19 20  1  0
M  END

$$$$
No_4546-/export/home/yangzhenyu/potential_scad_32_flow//YTHDC2/2024-12-06-03-22-00/
     RDKit          3D

 18 19  0  0  1  0  0  0  0  0999 V2000
    1.1787   -8.0297    3.5154 C   0  0  0  0  0  0  0  0  0  0  0  0
    1.0491   -6.8434    2.9820 C   0  0  0  0  0  0  0  0  0  0  0  0
    0.9905   -9.0774    2.6527 C   0  0  0  0  0  0  0  0  0  0  0  0
    0.7897   -8.9519    1.3691 C   0  0  0  0  0  0  0  0  0  0  0  0
    0.7018   -7.7198    0.7892 C   0  0  0  0  0  0  0  0  0  0  0  0
    0.8918   -6.5957    1.6117 C   0  0  0  0  0  0  0  0  0  0  0  0
    1.0600  -10.5680    3.3321 C   0  0  0  0  0  0  0  0  0  0  0  0
    2.1422  -11.0089    3.6867 C   0  0  0  0  0  0  0  0  0  0  0  0
    0.8986   -5.2530    1.1685 O   0  0  0  0  0  0  0  0  0  0  0  0
   -0.0631  -11.2110    3.4552 C   0  0  2  0  0  0  0  0  0  0  0  0
   -0.1813  -12.4476    3.1669 N   0  0  0  0  0  0  0  0  0  0  0  0
    2.1676  -11.8937    4.8236 N   0  0  0  0  0  0  0  0  0  0  0  0
   -1.1921  -13.0206    2.8346 C   0  0  0  0  0  0  0  0  0  0  0  0
   -2.2931  -12.1806    2.8811 N   0  0  0  0  0  0  0  0  0  0  0  0
   -1.6417  -10.8818    3.3549 C   0  0  0  0  0  0  0  0  0  0  0  0
   -2.1597   -9.6530    3.7928 C   0  0  0  0  0  0  0  0  0  0  0  0
   -2.7322   -8.9676    2.8188 C   0  0  0  0  0  0  0  0  0  0  0  0
    1.3083  -12.1300    5.2989 H   0  0  0  0  0  0  0  0  0  0  0  0
  1  2  1  0
  3  4  1  0
  2  6  1  0
  5  6  1  0
  3  7  1  0
  7  8  1  0
  6  9  2  0
 10  7  1  6
 10 11  1  0
  8 12  2  0
 11 13  2  0
 13 14  1  0
 10 15  1  0
 14 15  2  0
 15 16  1  0
 16 17  1  0
  1  3  1  0
  4  5  1  0
 12 18  1  0
M  END

$$$$
No_4547-/export/home/yangzhenyu/potential_scad_32_flow//YTHDC2/2024-12-06-03-22-00/
     RDKit          3D

 20 20  0  0  0  0  0  0  0  0999 V2000
    1.1787   -8.0297    3.5154 C   0  0  0  0  0  0  0  0  0  0  0  0
    1.0491   -6.8434    2.9820 C   0  0  0  0  0  0  0  0  0  0  0  0
    0.9905   -9.0774    2.6527 C   0  0  0  0  0  0  0  0  0  0  0  0
    0.7897   -8.9519    1.3691 Cl  0  0  0  0  0  0  0  0  0  0  0  0
    1.8450   -5.6763    3.4666 C   0  0  0  0  0  0  0  0  0  0  0  0
    1.3273  -10.4565    3.3909 C   0  0  0  0  0  0  0  0  0  0  0  0
    1.2554  -11.5895    2.8945 C   0  0  0  0  0  0  0  0  0  0  0  0
    0.8107  -12.6784    3.6140 C   0  0  0  0  0  0  0  0  0  0  0  0
    0.8932  -13.9951    2.9862 C   0  0  0  0  0  0  0  0  0  0  0  0
    1.2802  -14.0996    1.7048 C   0  0  0  0  0  0  0  0  0  0  0  0
    1.7741  -13.0465    0.9410 C   0  0  0  0  0  0  0  0  0  0  0  0
    1.7306  -11.7542    1.4973 C   0  0  0  0  0  0  0  0  0  0  0  0
    1.4941   -4.4643    2.8498 F   0  0  0  0  0  0  0  0  0  0  0  0
    1.8833  -10.3199    4.6877 N   0  0  0  0  0  0  0  0  0  0  0  0
    1.3784  -15.4282    1.2040 O   0  0  0  0  0  0  0  0  0  0  0  0
    1.7073  -16.4516    1.8622 C   0  0  0  0  0  0  0  0  0  0  0  0
    0.8084  -17.3347    2.2103 C   0  0  0  0  0  0  0  0  0  0  0  0
    0.9554  -18.1280    3.4181 C   0  0  0  0  0  0  0  0  0  0  0  0
    2.2672  -18.2427    3.9534 F   0  0  0  0  0  0  0  0  0  0  0  0
    2.1661  -11.1401    5.2049 H   0  0  0  0  0  0  0  0  0  0  0  0
  1  2  1  0
  1  3  2  3
  3  4  1  0
  2  5  1  0
  3  6  1  0
  6  7  1  0
  5 13  1  0
  6 14  2  0
 10 15  1  0
 15 16  1  0
 16 17  1  0
 17 18  2  3
 18 19  1  0
  7  8  2  0
  8  9  1  0
  9 10  2  0
 10 11  1  0
 11 12  2  0
  7 12  1  0
 14 20  1  0
M  END

$$$$
No_4548-/export/home/yangzhenyu/potential_scad_32_flow//YTHDC2/2024-12-06-03-22-00/
     RDKit          3D

 18 18  0  0  0  0  0  0  0  0999 V2000
    1.1787   -8.0297    3.5154 C   0  0  0  0  0  0  0  0  0  0  0  0
    1.1048   -9.2215    3.2892 C   0  0  0  0  0  0  0  0  0  0  0  0
    1.3627  -10.1721    4.3044 C   0  0  0  0  0  0  0  0  0  0  0  0
    2.3720  -10.8948    4.2468 C   0  0  0  0  0  0  0  0  0  0  0  0
    0.8234   -7.0464    2.5717 C   0  0  0  0  0  0  0  0  0  0  0  0
    0.5566   -7.7497    1.3036 C   0  0  0  0  0  0  0  0  0  0  0  0
    0.4981   -8.9229    0.9641 C   0  0  0  0  0  0  0  0  0  0  0  0
    0.8209   -9.8272    2.0146 C   0  0  0  0  0  0  0  0  0  0  0  0
    0.9698  -11.1122    1.7864 C   0  0  0  0  0  0  0  0  0  0  0  0
    2.0476  -11.6129    1.2834 O   0  0  0  0  0  0  0  0  0  0  0  0
   -0.1136  -11.9111    1.7638 N   0  0  0  0  0  0  0  0  0  0  0  0
   -0.0824  -13.2725    1.4011 C   0  0  0  0  0  0  0  0  0  0  0  0
   -1.1066  -13.9603    1.8803 C   0  0  0  0  0  0  0  0  0  0  0  0
   -0.9452  -15.2036    2.3372 C   0  0  0  0  0  0  0  0  0  0  0  0
    0.2708  -15.8322    2.0949 C   0  0  0  0  0  0  0  0  0  0  0  0
    1.4085  -15.1029    1.6497 C   0  0  0  0  0  0  0  0  0  0  0  0
    2.6773  -15.8678    1.6144 C   0  0  0  0  0  0  0  0  0  0  0  0
    2.6809  -17.0771    2.3598 C   0  0  0  0  0  0  0  0  0  0  0  0
  2  3  1  0
  3  4  1  0
  8  9  1  0
  9 10  2  0
  9 11  1  0
 11 12  1  0
 12 13  1  0
 13 14  2  3
 14 15  1  0
 15 16  2  3
 16 17  1  0
 17 18  2  0
  1  2  2  0
  2  8  1  0
  7  8  2  0
  6  7  1  0
  5  6  2  0
  1  5  1  0
M  END

$$$$
No_4549-/export/home/yangzhenyu/potential_scad_32_flow//YTHDC2/2024-12-06-03-22-00/
     RDKit          3D

 17 17  0  0  1  0  0  0  0  0999 V2000
    1.1787   -8.0297    3.5154 C   0  0  0  0  0  0  0  0  0  0  0  0
    1.1048   -9.2215    3.2892 C   0  0  0  0  0  0  0  0  0  0  0  0
    1.2339   -9.7611    2.0189 C   0  0  0  0  0  0  0  0  0  0  0  0
    1.1954  -11.2312    1.8661 C   0  0  0  0  0  0  0  0  0  0  0  0
    1.5546  -12.1691    2.7931 C   0  0  0  0  0  0  0  0  0  0  0  0
    1.4918  -11.6215    4.1439 C   0  0  0  0  0  0  0  0  0  0  0  0
    1.2451  -10.2569    4.3641 C   0  0  0  0  0  0  0  0  0  0  0  0
    1.6856  -13.5772    2.5090 C   0  0  0  0  0  0  0  0  0  0  0  0
    0.8684   -7.0781    2.6501 O   0  0  0  0  0  0  0  0  0  0  0  0
    2.1777  -13.9870    1.4581 O   0  0  0  0  0  0  0  0  0  0  0  0
    1.1765  -14.4577    3.3968 O   0  0  0  0  0  0  0  0  0  0  0  0
    1.2645   -9.0204    0.8422 C   0  0  2  0  0  0  0  0  0  0  0  0
    2.5030   -8.6532    0.3451 C   0  0  0  0  0  0  0  0  0  0  0  0
    2.3540   -8.0664   -0.9899 O   0  0  0  0  0  0  0  0  0  0  0  0
    0.2943   -8.0853    0.6796 C   0  0  0  0  0  0  0  0  0  0  0  0
   -0.9333   -8.8116    0.3184 C   0  0  0  0  0  0  0  0  0  0  0  0
   -1.9463   -8.7005    1.1292 C   0  0  0  0  0  0  0  0  0  0  0  0
  1  2  1  0
  5  8  1  0
  1  9  2  0
  8 10  2  0
  8 11  1  0
  3 12  1  0
 12 13  1  1
 13 14  1  0
 12 15  1  0
 15 16  1  0
 16 17  1  0
  2  3  2  0
  3  4  1  0
  4  5  2  0
  5  6  1  0
  6  7  2  0
  2  7  1  0
M  END

$$$$
No_4550-/export/home/yangzhenyu/potential_scad_32_flow//YTHDC2/2024-12-06-03-22-00/
     RDKit          3D

 17 18  0  0  1  0  0  0  0  0999 V2000
    1.1787   -8.0297    3.5154 C   0  0  0  0  0  0  0  0  0  0  0  0
    1.0491   -6.8434    2.9820 C   0  0  0  0  0  0  0  0  0  0  0  0
    0.9905   -9.0774    2.6527 C   0  0  0  0  0  0  0  0  0  0  0  0
    0.7897   -8.9519    1.3691 C   0  0  0  0  0  0  0  0  0  0  0  0
    0.7018   -7.7198    0.7892 C   0  0  0  0  0  0  0  0  0  0  0  0
    0.8918   -6.5957    1.6117 C   0  0  0  0  0  0  0  0  0  0  0  0
    1.0711  -10.4814    3.2282 C   0  0  1  0  0  0  0  0  0  0  0  0
   -0.1055  -11.1328    3.5223 C   0  0  0  0  0  0  0  0  0  0  0  0
   -1.2061  -10.3495    3.8837 C   0  0  0  0  0  0  0  0  0  0  0  0
   -2.4091  -10.8960    4.0530 C   0  0  0  0  0  0  0  0  0  0  0  0
   -3.4903  -10.1348    4.3805 C   0  0  0  0  0  0  0  0  0  0  0  0
   -3.3204   -8.7863    4.6840 C   0  0  0  0  0  0  0  0  0  0  0  0
   -2.0865   -8.1275    4.5575 C   0  0  0  0  0  0  0  0  0  0  0  0
   -0.9442   -8.9134    4.2240 C   0  0  0  0  0  0  0  0  0  0  0  0
    0.8509   -5.2846    1.0877 Cl  0  0  0  0  0  0  0  0  0  0  0  0
    2.0268  -11.3070    2.4152 C   0  0  0  0  0  0  0  0  0  0  0  0
    1.4925  -12.3739    1.8197 C   0  0  0  0  0  0  0  0  0  0  0  0
  3  7  1  0
  7  8  1  6
  6 15  1  0
  7 16  1  0
 16 17  1  0
  8  9  1  0
  1  2  2  0
  2  6  1  0
  5  6  2  0
  4  5  1  0
  3  4  2  0
  1  3  1  0
  9 10  2  0
 10 11  1  0
 11 12  2  0
 12 13  1  0
 13 14  2  0
  9 14  1  0
M  END

$$$$
No_4551-/export/home/yangzhenyu/potential_scad_32_flow//YTHDC2/2024-12-06-03-22-00/
     RDKit          3D

 17 17  0  0  1  0  0  0  0  0999 V2000
    1.1787   -8.0297    3.5154 C   0  0  0  0  0  0  0  0  0  0  0  0
    1.1048   -9.2215    3.2892 C   0  0  0  0  0  0  0  0  0  0  0  0
    1.2339   -9.7611    2.0189 C   0  0  0  0  0  0  0  0  0  0  0  0
    1.3583   -9.0036    0.9764 C   0  0  0  0  0  0  0  0  0  0  0  0
    1.5996   -7.6362    1.1311 C   0  0  0  0  0  0  0  0  0  0  0  0
    1.4830   -7.0928    2.3626 C   0  0  0  0  0  0  0  0  0  0  0  0
    1.1008  -11.2372    1.8542 C   0  0  1  0  0  0  0  0  0  0  0  0
    0.4812  -11.6084    0.6459 C   0  0  0  0  0  0  0  0  0  0  0  0
    0.5134  -13.0269    0.4830 O   0  0  0  0  0  0  0  0  0  0  0  0
   -0.3265  -10.9546   -0.0091 N   0  0  0  0  0  0  0  0  0  0  0  0
    1.5826   -5.6618    2.7016 O   0  0  0  0  0  0  0  0  0  0  0  0
    1.8834  -11.9956    2.6342 C   0  0  0  0  0  0  0  0  0  0  0  0
    1.1318  -12.6299    3.6883 C   0  0  0  0  0  0  0  0  0  0  0  0
    0.8503  -14.0026    3.3753 C   0  0  0  0  0  0  0  0  0  0  0  0
    2.1441  -14.8168    3.1693 C   0  0  0  0  0  0  0  0  0  0  0  0
    2.0891  -16.1916    2.6832 C   0  0  0  0  0  0  0  0  0  0  0  0
    0.9769  -16.7242    2.4499 C   0  0  0  0  0  0  0  0  0  0  0  0
  3  7  1  0
  7  8  1  0
  8  9  2  0
  8 10  1  0
  6 11  1  0
  7 12  1  6
 12 13  1  0
 13 14  1  0
 14 15  1  0
 15 16  2  3
 16 17  1  0
  1  2  2  0
  2  3  1  0
  3  4  2  0
  4  5  1  0
  5  6  2  0
  1  6  1  0
M  END

$$$$
No_4552-/export/home/yangzhenyu/potential_scad_32_flow//YTHDC2/2024-12-06-03-22-00/
     RDKit          3D

 20 21  0  0  0  0  0  0  0  0999 V2000
    1.1787   -8.0297    3.5154 C   0  0  0  0  0  0  0  0  0  0  0  0
    1.0491   -6.8434    2.9820 C   0  0  0  0  0  0  0  0  0  0  0  0
    0.9905   -9.0774    2.6527 C   0  0  0  0  0  0  0  0  0  0  0  0
    0.7897   -8.9519    1.3691 C   0  0  0  0  0  0  0  0  0  0  0  0
    0.7018   -7.7198    0.7892 C   0  0  0  0  0  0  0  0  0  0  0  0
    0.8918   -6.5957    1.6117 C   0  0  0  0  0  0  0  0  0  0  0  0
    1.0998  -10.4710    3.2437 C   0  0  0  0  0  0  0  0  0  0  0  0
    1.3102  -11.5554    2.5214 C   0  0  0  0  0  0  0  0  0  0  0  0
    1.4257  -12.8124    3.1919 C   0  0  0  0  0  0  0  0  0  0  0  0
    1.4301  -14.0627    2.4374 C   0  0  0  0  0  0  0  0  0  0  0  0
    0.8588   -5.2558    1.2463 O   0  0  0  0  0  0  0  0  0  0  0  0
    1.0320  -15.2245    3.0586 C   0  0  0  0  0  0  0  0  0  0  0  0
    1.4526  -16.5021    2.5935 C   0  0  0  0  0  0  0  0  0  0  0  0
    2.3157  -16.5157    1.5279 C   0  0  0  0  0  0  0  0  0  0  0  0
    2.6017  -14.3473    1.5596 C   0  0  0  0  0  0  0  0  0  0  0  0
    2.9309  -15.4788    1.1119 C   0  0  0  0  0  0  0  0  0  0  0  0
    2.8609  -13.1248    0.9808 Cl  0  0  0  0  0  0  0  0  0  0  0  0
    0.8191  -17.7208    3.1359 C   0  0  0  0  0  0  0  0  0  0  0  0
    0.0830  -17.8440    4.0853 C   0  0  0  0  0  0  0  0  0  0  0  0
   -0.4108  -18.5559    4.6234 C   0  0  0  0  0  0  0  0  0  0  0  0
  1  2  1  0
  3  4  1  0
  2  6  1  0
  5  6  1  0
  3  7  1  0
  7  8  2  3
  8  9  1  0
  9 10  1  0
  6 11  2  0
 15 17  1  0
 13 18  1  0
 18 19  2  3
 19 20  1  0
  1  3  1  0
  4  5  1  0
 10 12  2  0
 12 13  1  0
 13 14  2  0
 14 16  1  0
 15 16  2  0
 10 15  1  0
M  END

$$$$
No_4553-/export/home/yangzhenyu/potential_scad_32_flow//YTHDC2/2024-12-06-03-22-00/
     RDKit          3D

 17 17  0  0  0  0  0  0  0  0999 V2000
    1.1787   -8.0297    3.5154 C   0  0  0  0  0  0  0  0  0  0  0  0
    1.1048   -9.2215    3.2892 F   0  0  0  0  0  0  0  0  0  0  0  0
    2.1516   -7.3031    2.6108 C   0  0  0  0  0  0  0  0  0  0  0  0
    1.9723   -7.9215    1.3923 C   0  0  0  0  0  0  0  0  0  0  0  0
    1.1195   -7.6429    0.3689 C   0  0  0  0  0  0  0  0  0  0  0  0
    0.3745   -8.6401    0.2700 C   0  0  0  0  0  0  0  0  0  0  0  0
    0.7608   -9.9884    0.1972 O   0  0  0  0  0  0  0  0  0  0  0  0
    1.5869   -7.9020    4.7492 F   0  0  0  0  0  0  0  0  0  0  0  0
   -0.8959   -8.5361   -0.1910 O   0  0  0  0  0  0  0  0  0  0  0  0
   -0.0412   -8.0525    3.5244 O   0  0  0  0  0  0  0  0  0  0  0  0
    0.4033  -10.9554    0.8910 C   0  0  0  0  0  0  0  0  0  0  0  0
   -0.9408  -11.2852    0.9183 C   0  0  0  0  0  0  0  0  0  0  0  0
   -1.2769  -12.5058    1.5847 C   0  0  0  0  0  0  0  0  0  0  0  0
   -0.3287  -13.3191    2.1681 C   0  0  0  0  0  0  0  0  0  0  0  0
    0.9849  -12.8993    2.3095 C   0  0  0  0  0  0  0  0  0  0  0  0
    1.3710  -11.7216    1.6408 C   0  0  0  0  0  0  0  0  0  0  0  0
    2.0294  -13.6998    2.8766 C   0  0  0  0  0  0  0  0  0  0  0  0
  1  2  1  0
  1  3  1  0
  3  4  1  0
  4  5  1  0
  5  6  1  0
  6  7  1  0
  1  8  1  0
  6  9  2  0
  1 10  1  0
  7 11  1  0
 15 17  1  0
 11 12  2  0
 12 13  1  0
 13 14  2  0
 14 15  1  0
 15 16  2  0
 11 16  1  0
M  END

$$$$
No_4554-/export/home/yangzhenyu/potential_scad_32_flow//YTHDC2/2024-12-06-03-22-00/
     RDKit          3D

 20 21  0  0  1  0  0  0  0  0999 V2000
    1.1787   -8.0297    3.5154 C   0  0  0  0  0  0  0  0  0  0  0  0
    1.1048   -9.2215    3.2892 C   0  0  0  0  0  0  0  0  0  0  0  0
    1.2339   -9.7611    2.0189 C   0  0  0  0  0  0  0  0  0  0  0  0
    1.3583   -9.0036    0.9764 C   0  0  0  0  0  0  0  0  0  0  0  0
    1.5996   -7.6362    1.1311 C   0  0  0  0  0  0  0  0  0  0  0  0
    1.4830   -7.0928    2.3626 C   0  0  0  0  0  0  0  0  0  0  0  0
    1.4898   -5.7274    2.6199 C   0  0  0  0  0  0  0  0  0  0  0  0
    1.1681  -11.2222    1.8390 C   0  0  0  0  0  0  0  0  0  0  0  0
    0.7145  -11.5870    0.5424 C   0  0  0  0  0  0  0  0  0  0  0  0
   -0.5241  -12.2512    0.6171 C   0  0  0  0  0  0  0  0  0  0  0  0
   -0.5383  -13.4429    1.3130 C   0  0  2  0  0  0  0  0  0  0  0  0
   -1.7960  -13.9426    1.6631 C   0  0  0  0  0  0  0  0  0  0  0  0
   -2.9320  -13.3829    1.2011 C   0  0  0  0  0  0  0  0  0  0  0  0
   -2.8783  -12.2269    0.4078 C   0  0  0  0  0  0  0  0  0  0  0  0
   -1.6229  -11.6766    0.0589 C   0  0  0  0  0  0  0  0  0  0  0  0
   -1.4988  -10.6020   -0.8269 O   0  0  0  0  0  0  0  0  0  0  0  0
    1.2507   -4.8674    1.6130 O   0  0  0  0  0  0  0  0  0  0  0  0
    1.4765   -5.1653    3.8815 Cl  0  0  0  0  0  0  0  0  0  0  0  0
    0.6044  -14.0751    1.8802 C   0  0  0  0  0  0  0  0  0  0  0  0
    1.1563  -15.2245    1.4431 C   0  0  0  0  0  0  0  0  0  0  0  0
  6  7  1  0
  3  8  1  0
  8  9  1  0
  9 10  1  0
 10 11  1  0
 12 13  1  0
 10 15  1  0
 14 15  1  0
 15 16  2  0
  7 17  2  0
  7 18  1  0
 11 19  1  1
 19 20  1  0
 11 12  1  0
 13 14  1  0
  1  2  2  0
  2  3  1  0
  3  4  2  0
  4  5  1  0
  5  6  2  0
  1  6  1  0
M  END

$$$$
No_4555-/export/home/yangzhenyu/potential_scad_32_flow//YTHDC2/2024-12-06-03-22-00/
     RDKit          3D

 19 20  0  0  0  0  0  0  0  0999 V2000
    1.1787   -8.0297    3.5154 C   0  0  0  0  0  0  0  0  0  0  0  0
    1.1048   -9.2215    3.2892 C   0  0  0  0  0  0  0  0  0  0  0  0
    1.0240   -9.7790    2.0239 C   0  0  0  0  0  0  0  0  0  0  0  0
    1.1393   -9.0211    0.9686 C   0  0  0  0  0  0  0  0  0  0  0  0
    1.4051   -7.6500    1.1251 C   0  0  0  0  0  0  0  0  0  0  0  0
    1.4868   -7.1041    2.3534 C   0  0  0  0  0  0  0  0  0  0  0  0
    1.5562   -5.7208    2.5782 C   0  0  0  0  0  0  0  0  0  0  0  0
    0.8750  -11.2135    1.9117 C   0  0  0  0  0  0  0  0  0  0  0  0
    1.8912  -12.0349    2.0516 C   0  0  0  0  0  0  0  0  0  0  0  0
    1.7093  -13.3664    1.7484 C   0  0  0  0  0  0  0  0  0  0  0  0
    0.5990  -13.8394    1.2933 C   0  0  0  0  0  0  0  0  0  0  0  0
   -0.4337  -13.0378    0.9914 C   0  0  0  0  0  0  0  0  0  0  0  0
   -0.2963  -11.6527    1.3056 C   0  0  0  0  0  0  0  0  0  0  0  0
    0.6758   -4.8350    2.5198 O   0  0  0  0  0  0  0  0  0  0  0  0
   -1.4672  -10.8948    1.3473 C   0  0  0  0  0  0  0  0  0  0  0  0
   -1.9076  -10.2864    0.1838 O   0  0  0  0  0  0  0  0  0  0  0  0
   -2.0164  -10.3568    2.4906 O   0  0  0  0  0  0  0  0  0  0  0  0
    0.7100   -3.6633    2.1965 C   0  0  0  0  0  0  0  0  0  0  0  0
   -3.2783  -10.2004    2.8085 C   0  0  0  0  0  0  0  0  0  0  0  0
  6  7  1  0
  3  8  1  0
  7 14  1  0
 13 15  1  0
 15 16  2  0
 15 17  1  0
 14 18  1  0
 17 19  1  0
  1  2  2  0
  2  3  1  0
  3  4  2  0
  4  5  1  0
  5  6  2  0
  1  6  1  0
  8  9  2  0
  9 10  1  0
 10 11  2  0
 11 12  1  0
 12 13  2  0
  8 13  1  0
M  END

$$$$
No_4556-/export/home/yangzhenyu/potential_scad_32_flow//YTHDC2/2024-12-06-03-22-00/
     RDKit          3D

 19 21  0  0  0  0  0  0  0  0999 V2000
    1.1787   -8.0297    3.5154 C   0  0  0  0  0  0  0  0  0  0  0  0
    1.0491   -6.8434    2.9820 C   0  0  0  0  0  0  0  0  0  0  0  0
    0.9905   -9.0774    2.6527 C   0  0  0  0  0  0  0  0  0  0  0  0
    0.7897   -8.9519    1.3691 C   0  0  0  0  0  0  0  0  0  0  0  0
    0.7018   -7.7198    0.7892 C   0  0  0  0  0  0  0  0  0  0  0  0
    0.8918   -6.5957    1.6117 C   0  0  0  0  0  0  0  0  0  0  0  0
    1.0774  -10.6059    3.3145 C   0  0  0  0  0  0  0  0  0  0  0  0
   -0.1032  -11.1934    3.4585 C   0  0  0  0  0  0  0  0  0  0  0  0
   -0.1482  -12.5102    3.2815 C   0  0  0  0  0  0  0  0  0  0  0  0
    0.9780  -13.3047    3.1595 C   0  0  0  0  0  0  0  0  0  0  0  0
    0.9845  -14.7777    2.9717 C   0  0  0  0  0  0  0  0  0  0  0  0
    2.2500  -15.2604    2.5915 C   0  0  0  0  0  0  0  0  0  0  0  0
    2.3322  -16.6878    2.5028 C   0  0  0  0  0  0  0  0  0  0  0  0
    1.4002  -17.4361    2.8427 C   0  0  0  0  0  0  0  0  0  0  0  0
    0.2465  -17.0000    3.3031 C   0  0  0  0  0  0  0  0  0  0  0  0
    0.0614  -15.6108    3.4115 C   0  0  0  0  0  0  0  0  0  0  0  0
    2.2939  -11.2177    3.4359 N   0  0  0  0  0  0  0  0  0  0  0  0
    2.2438  -12.5302    3.3113 C   0  0  0  0  0  0  0  0  0  0  0  0
    0.7851   -5.2950    1.0737 O   0  0  0  0  0  0  0  0  0  0  0  0
  3  7  1  0
 10 11  1  0
  6 19  1  0
 11 12  2  0
 12 13  1  0
 13 14  2  0
 14 15  1  0
 15 16  2  0
 11 16  1  0
  1  2  2  0
  2  6  1  0
  5  6  2  0
  4  5  1  0
  3  4  2  0
  1  3  1  0
  7  8  2  0
  8  9  1  0
  9 10  2  0
 10 18  1  0
 17 18  2  0
  7 17  1  0
M  END

$$$$
No_4557-/export/home/yangzhenyu/potential_scad_32_flow//YTHDC2/2024-12-06-03-22-00/
     RDKit          3D

 19 19  0  0  1  0  0  0  0  0999 V2000
    1.1787   -8.0297    3.5154 C   0  0  0  0  0  0  0  0  0  0  0  0
    1.0491   -6.8434    2.9820 C   0  0  1  0  0  0  0  0  0  0  0  0
    1.9985   -8.9840    2.8958 C   0  0  0  0  0  0  0  0  0  0  0  0
    1.9135  -10.3404    3.6266 C   0  0  2  0  0  0  0  0  0  0  0  0
    2.2847  -10.5440    4.7936 C   0  0  0  0  0  0  0  0  0  0  0  0
    1.7595   -5.7666    3.2682 O   0  0  0  0  0  0  0  0  0  0  0  0
    1.0046   -6.9506    1.4733 C   0  0  0  0  0  0  0  0  0  0  0  0
   -0.0803   -7.2636    0.9689 O   0  0  0  0  0  0  0  0  0  0  0  0
    2.0395   -6.9728    0.7562 O   0  0  0  0  0  0  0  0  0  0  0  0
    1.5504  -11.4174    2.8575 C   0  0  0  0  0  0  0  0  0  0  0  0
    1.5517  -11.2898    1.4666 O   0  0  0  0  0  0  0  0  0  0  0  0
    1.4204  -12.6305    3.3124 N   0  0  0  0  0  0  0  0  0  0  0  0
    1.0675  -13.7416    2.6082 C   0  0  0  0  0  0  0  0  0  0  0  0
   -0.2452  -14.0379    2.5033 C   0  0  0  0  0  0  0  0  0  0  0  0
   -0.5537  -15.4137    2.0775 C   0  0  0  0  0  0  0  0  0  0  0  0
    0.4789  -16.2859    1.7015 C   0  0  0  0  0  0  0  0  0  0  0  0
    1.8216  -15.8974    1.7940 C   0  0  0  0  0  0  0  0  0  0  0  0
    2.1056  -14.6103    2.4449 C   0  0  0  0  0  0  0  0  0  0  0  0
    0.2865  -17.5587    1.2473 O   0  0  0  0  0  0  0  0  0  0  0  0
  1  2  1  0
  1  3  1  0
  3  4  1  0
  4  5  1  6
  2  6  1  6
  2  7  1  0
  7  8  2  0
  7  9  1  0
  4 10  1  0
 10 11  2  0
 10 12  1  0
 12 13  1  0
 16 19  1  0
 13 14  2  0
 14 15  1  0
 15 16  2  0
 16 17  1  0
 17 18  2  0
 13 18  1  0
M  END

$$$$
No_4558-/export/home/yangzhenyu/potential_scad_32_flow//YTHDC2/2024-12-06-03-22-00/
     RDKit          3D

 19 20  0  0  1  0  0  0  0  0999 V2000
    1.1787   -8.0297    3.5154 O   0  0  0  0  0  0  0  0  0  0  0  0
    0.9969   -8.9689    3.0048 C   0  0  2  0  0  0  0  0  0  0  0  0
    1.3055  -10.1056    3.6616 C   0  0  0  0  0  0  0  0  0  0  0  0
    1.5709  -11.1115    3.2016 C   0  0  0  0  0  0  0  0  0  0  0  0
    1.6332  -11.2629    1.7349 C   0  0  1  0  0  0  0  0  0  0  0  0
    1.9215  -12.4887    1.0387 C   0  0  0  0  0  0  0  0  0  0  0  0
    1.1733  -10.0830    1.0753 C   0  0  0  0  0  0  0  0  0  0  0  0
    1.0311   -8.9436    1.7100 C   0  0  1  0  0  0  0  0  0  0  0  0
    0.5379   -7.9004    1.0313 C   0  0  0  0  0  0  0  0  0  0  0  0
   -0.4503   -7.7959    0.3286 O   0  0  0  0  0  0  0  0  0  0  0  0
    1.3269   -6.7565    0.9181 O   0  0  0  0  0  0  0  0  0  0  0  0
    1.1996  -10.2535   -0.3566 O   0  0  0  0  0  0  0  0  0  0  0  0
    1.2888  -13.6513    1.6425 C   0  0  0  0  0  0  0  0  0  0  0  0
    2.2549  -14.6281    2.1238 C   0  0  0  0  0  0  0  0  0  0  0  0
    1.6935  -15.7629    2.8022 C   0  0  0  0  0  0  0  0  0  0  0  0
    0.3453  -15.8558    2.9575 C   0  0  0  0  0  0  0  0  0  0  0  0
   -0.4910  -14.8482    2.4596 C   0  0  0  0  0  0  0  0  0  0  0  0
    0.0370  -13.7828    1.7825 C   0  0  0  0  0  0  0  0  0  0  0  0
   -0.1548  -16.9302    3.7146 O   0  0  0  0  0  0  0  0  0  0  0  0
  2  1  1  1
  2  3  1  0
  4  5  1  0
  5  6  1  6
  5  7  1  0
  2  8  1  0
  7  8  1  0
  8  9  1  6
  9 10  2  0
  9 11  1  0
  7 12  2  0
  6 13  1  0
 16 19  1  0
  3  4  1  0
 13 14  2  0
 14 15  1  0
 15 16  2  0
 16 17  1  0
 17 18  2  0
 13 18  1  0
M  END

$$$$
No_4559-/export/home/yangzhenyu/potential_scad_32_flow//YTHDC2/2024-12-06-03-22-00/
     RDKit          3D

 20 22  0  0  0  0  0  0  0  0999 V2000
    1.1787   -8.0297    3.5154 C   0  0  0  0  0  0  0  0  0  0  0  0
    1.1048   -9.2215    3.2892 C   0  0  0  0  0  0  0  0  0  0  0  0
    1.3627  -10.1721    4.3044 C   0  0  0  0  0  0  0  0  0  0  0  0
    1.0682  -11.5187    4.0618 C   0  0  0  0  0  0  0  0  0  0  0  0
    0.6332  -11.9655    2.9682 C   0  0  0  0  0  0  0  0  0  0  0  0
    0.4776  -11.1308    1.9203 C   0  0  0  0  0  0  0  0  0  0  0  0
    0.7470   -9.8274    2.0368 C   0  0  0  0  0  0  0  0  0  0  0  0
    1.0387   -7.0301    2.5175 C   0  0  0  0  0  0  0  0  0  0  0  0
    0.9130   -7.5288    1.2013 C   0  0  0  0  0  0  0  0  0  0  0  0
    0.7893   -8.7980    0.9542 C   0  0  0  0  0  0  0  0  0  0  0  0
    0.5241   -9.2578   -0.2817 C   0  0  0  0  0  0  0  0  0  0  0  0
   -0.7560   -9.7391   -0.6285 N   0  0  0  0  0  0  0  0  0  0  0  0
    1.2633   -8.8589   -1.2790 O   0  0  0  0  0  0  0  0  0  0  0  0
    0.4860  -13.5932    2.6892 C   0  0  0  0  0  0  0  0  0  0  0  0
    1.5505  -14.3439    3.1168 C   0  0  0  0  0  0  0  0  0  0  0  0
    1.2891  -15.7353    2.8364 C   0  0  0  0  0  0  0  0  0  0  0  0
    0.4239  -16.1792    2.0953 C   0  0  0  0  0  0  0  0  0  0  0  0
   -0.5208  -15.2991    1.5728 C   0  0  0  0  0  0  0  0  0  0  0  0
   -0.3901  -13.9636    1.8765 C   0  0  0  0  0  0  0  0  0  0  0  0
    1.3316   -5.6098    2.6919 Cl  0  0  0  0  0  0  0  0  0  0  0  0
 10 11  1  0
 11 12  1  0
 11 13  2  0
  5 14  1  0
  8 20  1  0
  2  3  1  0
  3  4  2  0
  4  5  1  0
  5  6  2  0
  6  7  1  0
  1  2  2  0
  2  7  1  0
  7 10  2  0
  9 10  1  0
  8  9  2  0
  1  8  1  0
 14 15  2  0
 15 16  1  0
 16 17  2  0
 17 18  1  0
 18 19  2  0
 14 19  1  0
M  END

$$$$
No_4560-/export/home/yangzhenyu/potential_scad_32_flow//YTHDC2/2024-12-06-03-22-00/
     RDKit          3D

 12 12  0  0  1  0  0  0  0  0999 V2000
    1.1787   -8.0297    3.5154 C   0  0  0  0  0  0  0  0  0  0  0  0
    1.0491   -6.8434    2.9820 C   0  0  0  0  0  0  0  0  0  0  0  0
    0.0950   -8.8404    3.2292 C   0  0  0  0  0  0  0  0  0  0  0  0
   -0.9173   -8.4596    2.5152 C   0  0  0  0  0  0  0  0  0  0  0  0
   -1.0331   -7.2162    2.0653 C   0  0  0  0  0  0  0  0  0  0  0  0
   -0.0105   -6.3168    2.3081 C   0  0  0  0  0  0  0  0  0  0  0  0
    0.1935  -10.3737    3.7416 C   0  0  2  0  0  0  0  0  0  0  0  0
    1.2406  -10.8901    4.0986 C   0  0  0  0  0  0  0  0  0  0  0  0
    2.3224  -10.5943    4.1692 C   0  0  0  0  0  0  0  0  0  0  0  0
    0.0151   -4.9855    1.8214 C   0  0  0  0  0  0  0  0  0  0  0  0
    0.7800   -4.0532    2.3793 N   0  0  0  0  0  0  0  0  0  0  0  0
   -1.0810  -11.0521    3.6022 C   0  0  0  0  0  0  0  0  0  0  0  0
  3  7  1  0
  7  8  1  0
  8  9  2  0
  6 10  1  0
 10 11  1  0
  7 12  1  6
  1  2  2  0
  2  6  1  0
  5  6  2  0
  4  5  1  0
  3  4  2  0
  1  3  1  0
M  END

$$$$
No_4561-/export/home/yangzhenyu/potential_scad_32_flow//YTHDC2/2024-12-06-03-22-00/
     RDKit          3D

 17 19  0  0  0  0  0  0  0  0999 V2000
    1.1787   -8.0297    3.5154 C   0  0  0  0  0  0  0  0  0  0  0  0
    1.0491   -6.8434    2.9820 C   0  0  0  0  0  0  0  0  0  0  0  0
    0.0950   -8.8404    3.2292 C   0  0  0  0  0  0  0  0  0  0  0  0
    0.0602  -10.1764    3.8231 C   0  0  0  0  0  0  0  0  0  0  0  0
    0.2248   -6.3830    2.0648 C   0  0  0  0  0  0  0  0  0  0  0  0
   -0.6745   -7.2322    1.6857 C   0  0  0  0  0  0  0  0  0  0  0  0
   -0.7374   -8.4992    2.1291 C   0  0  0  0  0  0  0  0  0  0  0  0
   -0.1792  -11.3045    3.0702 C   0  0  0  0  0  0  0  0  0  0  0  0
   -1.1988  -11.5142    2.3719 C   0  0  0  0  0  0  0  0  0  0  0  0
   -1.3057  -12.6417    1.6201 C   0  0  0  0  0  0  0  0  0  0  0  0
   -2.3074  -12.6072    0.7111 C   0  0  0  0  0  0  0  0  0  0  0  0
   -3.2334  -11.6272    0.5812 C   0  0  0  0  0  0  0  0  0  0  0  0
   -3.1807  -10.5437    1.2530 C   0  0  0  0  0  0  0  0  0  0  0  0
   -2.0826  -10.3397    2.1473 C   0  0  0  0  0  0  0  0  0  0  0  0
   -1.8561   -9.1388    1.8708 N   0  0  0  0  0  0  0  0  0  0  0  0
    0.3002   -5.1182    1.4089 Cl  0  0  0  0  0  0  0  0  0  0  0  0
   -0.4530  -13.7673    1.7442 C   0  0  0  0  0  0  0  0  0  0  0  0
  3  4  1  0
  4  8  1  0
  7 15  1  0
 14 15  1  0
  5 16  1  0
 10 17  1  0
  8  9  1  0
  9 10  2  0
 10 11  1  0
 11 12  2  0
 12 13  1  0
 13 14  2  0
  9 14  1  0
  1  2  2  0
  2  5  1  0
  5  6  2  0
  6  7  1  0
  3  7  2  0
  1  3  1  0
M  END

$$$$
No_4562-/export/home/yangzhenyu/potential_scad_32_flow//YTHDC2/2024-12-06-03-22-00/
     RDKit          3D

 18 18  0  0  1  0  0  0  0  0999 V2000
    1.1787   -8.0297    3.5154 C   0  0  0  0  0  0  0  0  0  0  0  0
    1.0491   -6.8434    2.9820 C   0  0  2  0  0  0  0  0  0  0  0  0
    1.9985   -8.9840    2.8958 C   0  0  2  0  0  0  0  0  0  0  0  0
    1.7297   -9.2108    1.6335 C   0  0  1  0  0  0  0  0  0  0  0  0
    1.5234   -8.1478    0.8618 C   0  0  0  0  0  0  0  0  0  0  0  0
    0.7424   -5.6589    3.4622 C   0  0  0  0  0  0  0  0  0  0  0  0
    1.1288   -6.9849    1.4057 C   0  0  0  0  0  0  0  0  0  0  0  0
    1.6828   -8.1415   -0.5159 O   0  0  0  0  0  0  0  0  0  0  0  0
    1.7619   -4.7098    3.7115 N   0  0  0  0  0  0  0  0  0  0  0  0
    2.2960  -10.4175    0.9107 Cl  0  0  0  0  0  0  0  0  0  0  0  0
    0.7477   -5.8729    0.7482 F   0  0  0  0  0  0  0  0  0  0  0  0
    2.0477  -10.2429    3.6926 Cl  0  0  0  0  0  0  0  0  0  0  0  0
    1.1358   -3.3912    4.0408 C   0  0  0  0  0  0  0  0  0  0  0  0
   -0.0744   -3.1664    4.5029 C   0  0  0  0  0  0  0  0  0  0  0  0
    2.0794   -2.2990    3.8186 C   0  0  0  0  0  0  0  0  0  0  0  0
    1.8817   -1.4764    2.7676 C   0  0  0  0  0  0  0  0  0  0  0  0
    0.8180   -0.6741    2.9242 C   0  0  0  0  0  0  0  0  0  0  0  0
    0.5625    0.0013    1.5751 C   0  0  0  0  0  0  0  0  0  0  0  0
  1  2  1  0
  1  3  1  0
  4  5  1  0
  2  6  1  6
  2  7  1  0
  5  7  1  0
  5  8  2  0
  6  9  1  0
  4 10  1  6
  7 11  1  0
  3 12  1  1
  9 13  1  0
 13 14  1  0
 13 15  1  0
 15 16  1  0
 16 17  1  0
 17 18  1  0
  3  4  1  0
M  END

$$$$
No_4563-/export/home/yangzhenyu/potential_scad_32_flow//YTHDC2/2024-12-06-03-22-00/
     RDKit          3D

 18 19  0  0  1  0  0  0  0  0999 V2000
    1.1787   -8.0297    3.5154 C   0  0  0  0  0  0  0  0  0  0  0  0
    1.0491   -6.8434    2.9820 C   0  0  0  0  0  0  0  0  0  0  0  0
    0.9905   -9.0774    2.6527 C   0  0  0  0  0  0  0  0  0  0  0  0
    0.7897   -8.9519    1.3691 C   0  0  0  0  0  0  0  0  0  0  0  0
    0.7018   -7.7198    0.7892 C   0  0  0  0  0  0  0  0  0  0  0  0
    0.8918   -6.5957    1.6117 C   0  0  0  0  0  0  0  0  0  0  0  0
    1.0998  -10.4710    3.2437 C   0  0  2  0  0  0  0  0  0  0  0  0
    2.1917  -10.8879    3.7399 C   0  0  0  0  0  0  0  0  0  0  0  0
    0.8983   -5.2566    1.2088 O   0  0  0  0  0  0  0  0  0  0  0  0
    0.4942  -11.5082    2.3990 C   0  0  0  0  0  0  0  0  0  0  0  0
   -0.8624  -11.6477    2.6981 C   0  0  0  0  0  0  0  0  0  0  0  0
   -1.5415  -12.7700    2.4142 C   0  0  0  0  0  0  0  0  0  0  0  0
   -0.9095  -13.7667    1.7689 C   0  0  0  0  0  0  0  0  0  0  0  0
    0.4204  -13.6124    1.3053 C   0  0  0  0  0  0  0  0  0  0  0  0
    1.1121  -12.4883    1.6799 C   0  0  0  0  0  0  0  0  0  0  0  0
    2.2062  -11.4028    5.1170 O   0  0  0  0  0  0  0  0  0  0  0  0
    1.8757  -11.9044    0.6341 N   0  0  0  0  0  0  0  0  0  0  0  0
   -1.5211  -14.9836    1.3802 C   0  0  0  0  0  0  0  0  0  0  0  0
  1  2  1  0
  3  4  1  0
  2  6  1  0
  5  6  1  0
  7  3  1  6
  7  8  1  0
  6  9  2  0
  7 10  1  0
  8 16  2  0
 13 18  1  0
 15 17  1  0
  1  3  1  0
  4  5  1  0
 10 11  2  0
 11 12  1  0
 12 13  2  0
 13 14  1  0
 14 15  2  0
 10 15  1  0
M  END

$$$$
No_4564-/export/home/yangzhenyu/potential_scad_32_flow//YTHDC2/2024-12-06-03-22-00/
     RDKit          3D

 18 19  0  0  0  0  0  0  0  0999 V2000
    1.1787   -8.0297    3.5154 C   0  0  0  0  0  0  0  0  0  0  0  0
    1.0491   -6.8434    2.9820 C   0  0  0  0  0  0  0  0  0  0  0  0
    0.9905   -9.0774    2.6527 C   0  0  0  0  0  0  0  0  0  0  0  0
    0.7897   -8.9519    1.3691 C   0  0  0  0  0  0  0  0  0  0  0  0
    0.7018   -7.7198    0.7892 C   0  0  0  0  0  0  0  0  0  0  0  0
    0.8918   -6.5957    1.6117 C   0  0  0  0  0  0  0  0  0  0  0  0
    1.0711  -10.4814    3.2282 C   0  0  0  0  0  0  0  0  0  0  0  0
    1.1227  -11.5770    2.4616 C   0  0  0  0  0  0  0  0  0  0  0  0
    1.1500  -12.9052    3.0782 C   0  0  0  0  0  0  0  0  0  0  0  0
    0.6701  -13.9897    2.4998 C   0  0  0  0  0  0  0  0  0  0  0  0
    0.9108  -15.3006    3.2837 C   0  0  0  0  0  0  0  0  0  0  0  0
    0.7872  -16.5087    2.6442 C   0  0  0  0  0  0  0  0  0  0  0  0
    0.3848  -16.4955    1.5274 C   0  0  0  0  0  0  0  0  0  0  0  0
    0.1394  -15.5286    0.6773 C   0  0  0  0  0  0  0  0  0  0  0  0
    0.3358  -14.2662    1.1343 C   0  0  0  0  0  0  0  0  0  0  0  0
    0.8371   -5.2754    1.1549 C   0  0  0  0  0  0  0  0  0  0  0  0
    0.1384  -13.1892    0.2862 C   0  0  0  0  0  0  0  0  0  0  0  0
   -0.9108  -12.3024    0.5598 C   0  0  0  0  0  0  0  0  0  0  0  0
  3  7  1  0
  7  8  2  3
  8  9  1  0
  6 16  1  0
 15 17  1  0
 17 18  1  0
  9 10  1  0
  1  2  2  0
  2  6  1  0
  5  6  2  0
  4  5  1  0
  3  4  2  0
  1  3  1  0
 10 11  2  0
 11 12  1  0
 12 13  2  0
 13 14  1  0
 14 15  2  0
 10 15  1  0
M  END

$$$$
No_4565-/export/home/yangzhenyu/potential_scad_32_flow//YTHDC2/2024-12-06-03-22-00/
     RDKit          3D

 17 17  0  0  0  0  0  0  0  0999 V2000
    1.1787   -8.0297    3.5154 C   0  0  0  0  0  0  0  0  0  0  0  0
    1.0491   -6.8434    2.9820 C   0  0  0  0  0  0  0  0  0  0  0  0
    1.9985   -8.9840    2.8958 C   0  0  0  0  0  0  0  0  0  0  0  0
    1.9135  -10.3404    3.6266 C   0  0  0  0  0  0  0  0  0  0  0  0
    1.3291  -11.3908    3.0222 C   0  0  0  0  0  0  0  0  0  0  0  0
    1.0344  -11.3281    1.7959 C   0  0  0  0  0  0  0  0  0  0  0  0
    1.0857   -6.5153    1.8498 C   0  0  0  0  0  0  0  0  0  0  0  0
    0.2123   -6.7410    1.1343 C   0  0  0  0  0  0  0  0  0  0  0  0
    0.4553  -12.4299    1.1828 C   0  0  0  0  0  0  0  0  0  0  0  0
    0.3647  -13.6546    1.8229 C   0  0  0  0  0  0  0  0  0  0  0  0
    0.8678  -13.6856    3.2264 C   0  0  0  0  0  0  0  0  0  0  0  0
    1.2805  -12.4952    3.8451 C   0  0  0  0  0  0  0  0  0  0  0  0
   -1.0898   -6.1606    1.3480 N   0  0  0  0  0  0  0  0  0  0  0  0
    0.1728   -7.6518    0.1164 O   0  0  0  0  0  0  0  0  0  0  0  0
   -2.2219   -6.5914    0.5242 C   0  0  0  0  0  0  0  0  0  0  0  0
   -2.5034   -5.7439   -0.3815 C   0  0  0  0  0  0  0  0  0  0  0  0
   -2.3402   -4.4135   -0.2386 O   0  0  0  0  0  0  0  0  0  0  0  0
  1  2  1  0
  1  3  1  0
  3  4  1  0
  4  5  1  0
  2  7  1  0
  7  8  1  0
  8 13  1  0
  8 14  2  0
 13 15  1  0
 15 16  1  0
 16 17  1  0
  5  6  2  0
  6  9  1  0
  9 10  2  0
 10 11  1  0
 11 12  2  0
  5 12  1  0
M  END

$$$$
No_4566-/export/home/yangzhenyu/potential_scad_32_flow//YTHDC2/2024-12-06-03-22-00/
     RDKit          3D

 17 17  0  0  1  0  0  0  0  0999 V2000
    1.1787   -8.0297    3.5154 Cl  0  0  0  0  0  0  0  0  0  0  0  0
    0.6986   -7.2038    2.6409 C   0  0  2  0  0  0  0  0  0  0  0  0
    0.9133   -7.4941    1.2402 C   0  0  0  0  0  0  0  0  0  0  0  0
    0.6150   -8.7672    0.9128 C   0  0  0  0  0  0  0  0  0  0  0  0
    1.0037   -9.2000   -0.1197 C   0  0  0  0  0  0  0  0  0  0  0  0
    1.7866   -8.6473   -1.1643 C   0  0  0  0  0  0  0  0  0  0  0  0
    0.7900  -10.5360   -0.4321 O   0  0  0  0  0  0  0  0  0  0  0  0
    1.2857   -5.5890    2.8678 C   0  0  0  0  0  0  0  0  0  0  0  0
    3.0953   -8.7651   -1.3528 O   0  0  0  0  0  0  0  0  0  0  0  0
    1.2972   -8.0920   -2.1338 O   0  0  0  0  0  0  0  0  0  0  0  0
    0.8631   -4.7072    1.9916 C   0  0  1  0  0  0  0  0  0  0  0  0
   -0.3808   -4.4621    1.7481 C   0  0  0  0  0  0  0  0  0  0  0  0
   -1.1859   -4.2919    2.7352 C   0  0  0  0  0  0  0  0  0  0  0  0
   -1.0617   -3.2914    3.6204 C   0  0  0  0  0  0  0  0  0  0  0  0
    0.1232   -2.5898    3.7923 C   0  0  0  0  0  0  0  0  0  0  0  0
    1.1780   -3.2548    2.8681 C   0  0  0  0  0  0  0  0  0  0  0  0
   -2.5461   -4.8965    2.8954 O   0  0  0  0  0  0  0  0  0  0  0  0
  2  1  1  1
  2  3  1  0
  3  4  1  0
  4  5  1  0
  5  6  1  0
  5  7  2  0
  2  8  1  0
  6  9  1  0
  6 10  2  0
 11  8  1  1
 11 12  1  0
 12 13  1  0
 13 14  1  0
 14 15  1  0
 11 16  1  0
 15 16  1  0
 13 17  2  0
M  END

$$$$
No_4567-/export/home/yangzhenyu/potential_scad_32_flow//YTHDC2/2024-12-06-03-22-00/
     RDKit          3D

 18 19  0  0  1  0  0  0  0  0999 V2000
    1.1787   -8.0297    3.5154 N   0  0  0  0  0  0  0  0  0  0  0  0
    1.0818   -9.0751    3.2053 C   0  0  0  0  0  0  0  0  0  0  0  0
    1.5216  -10.1164    3.9747 C   0  0  0  0  0  0  0  0  0  0  0  0
    1.4420  -11.4363    3.6461 C   0  0  0  0  0  0  0  0  0  0  0  0
    0.5969  -11.7648    2.6785 C   0  0  0  0  0  0  0  0  0  0  0  0
    0.0096  -10.8332    1.9506 C   0  0  0  0  0  0  0  0  0  0  0  0
    0.3359   -9.5186    2.1388 C   0  0  0  0  0  0  0  0  0  0  0  0
    0.8819   -6.9011    2.6487 C   0  0  2  0  0  0  0  0  0  0  0  0
    0.4076   -7.2265    1.4607 N   0  0  0  0  0  0  0  0  0  0  0  0
    0.0633   -8.4448    1.1740 C   0  0  0  0  0  0  0  0  0  0  0  0
   -0.4997   -8.6880    0.0350 O   0  0  0  0  0  0  0  0  0  0  0  0
    1.2867   -5.5457    3.0370 C   0  0  0  0  0  0  0  0  0  0  0  0
    0.3445  -13.1890    2.4006 C   0  0  0  0  0  0  0  0  0  0  0  0
    1.2446  -14.1141    2.7952 N   0  0  0  0  0  0  0  0  0  0  0  0
   -0.4644  -13.6464    1.5859 O   0  0  0  0  0  0  0  0  0  0  0  0
    1.1784  -15.5311    2.7351 C   0  0  0  0  0  0  0  0  0  0  0  0
    2.1517  -16.1070    1.9985 C   0  0  0  0  0  0  0  0  0  0  0  0
    2.2211  -17.4865    1.9407 O   0  0  0  0  0  0  0  0  0  0  0  0
  1  2  1  0
  8  9  1  0
  7 10  1  0
  9 10  1  0
 10 11  2  0
  8 12  1  6
  5 13  1  0
 13 14  1  0
 13 15  2  0
 14 16  1  0
 16 17  1  0
 17 18  2  0
  1  8  1  0
  2  3  2  0
  3  4  1  0
  4  5  2  0
  5  6  1  0
  6  7  2  0
  2  7  1  0
M  END

$$$$
No_4568-/export/home/yangzhenyu/potential_scad_32_flow//YTHDC2/2024-12-06-03-22-00/
     RDKit          3D

 18 18  0  0  0  0  0  0  0  0999 V2000
    1.1787   -8.0297    3.5154 C   0  0  0  0  0  0  0  0  0  0  0  0
    1.1048   -9.2215    3.2892 C   0  0  0  0  0  0  0  0  0  0  0  0
    1.2339   -9.7611    2.0189 C   0  0  0  0  0  0  0  0  0  0  0  0
    1.3583   -9.0036    0.9764 C   0  0  0  0  0  0  0  0  0  0  0  0
    1.7077   -9.6100   -0.3010 C   0  0  0  0  0  0  0  0  0  0  0  0
    1.3637   -7.1087    2.3226 C   0  0  0  0  0  0  0  0  0  0  0  0
    1.4257   -7.6645    1.0231 C   0  0  0  0  0  0  0  0  0  0  0  0
    1.9364   -8.8976   -1.3212 O   0  0  0  0  0  0  0  0  0  0  0  0
    1.2853  -10.8201   -0.4625 O   0  0  0  0  0  0  0  0  0  0  0  0
    1.1242  -10.1671    4.3962 C   0  0  0  0  0  0  0  0  0  0  0  0
    1.9488  -11.4946    4.1443 C   0  0  0  0  0  0  0  0  0  0  0  0
    1.3983  -12.2501    3.1351 C   0  0  0  0  0  0  0  0  0  0  0  0
    2.0712  -13.2040    2.4935 C   0  0  0  0  0  0  0  0  0  0  0  0
    1.7435  -13.7094    1.3393 O   0  0  0  0  0  0  0  0  0  0  0  0
    2.6548  -14.1407    3.3467 O   0  0  0  0  0  0  0  0  0  0  0  0
    1.2835   -5.6257    2.5822 O   0  0  0  0  0  0  0  0  0  0  0  0
    0.7508   -4.8733    1.7252 C   0  0  0  0  0  0  0  0  0  0  0  0
   -0.5860   -5.0316    1.6501 C   0  0  0  0  0  0  0  0  0  0  0  0
  4  5  1  0
  5  8  2  0
  5  9  1  0
  2 10  1  0
 10 11  1  0
 11 12  1  0
 12 13  1  0
 13 14  2  0
 13 15  1  0
  6 16  1  0
 16 17  1  0
 17 18  1  0
  1  2  2  0
  2  3  1  0
  3  4  2  0
  4  7  1  0
  6  7  2  0
  1  6  1  0
M  END

$$$$
No_4569-/export/home/yangzhenyu/potential_scad_32_flow//YTHDC2/2024-12-06-03-22-00/
     RDKit          3D

 17 18  0  0  1  0  0  0  0  0999 V2000
    1.1787   -8.0297    3.5154 C   0  0  0  0  0  0  0  0  0  0  0  0
    1.0491   -6.8434    2.9820 C   0  0  0  0  0  0  0  0  0  0  0  0
    1.9985   -8.9840    2.8958 C   0  0  2  0  0  0  0  0  0  0  0  0
    1.7297   -9.2108    1.6335 C   0  0  0  0  0  0  0  0  0  0  0  0
    1.7343   -8.0566    0.8408 N   0  0  0  0  0  0  0  0  0  0  0  0
    1.1324   -6.9025    1.4330 C   0  0  0  0  0  0  0  0  0  0  0  0
    2.2089  -10.3466    3.6078 C   0  0  0  0  0  0  0  0  0  0  0  0
    1.5746  -11.4703    3.3861 N   0  0  0  0  0  0  0  0  0  0  0  0
    0.9168   -5.8506    0.7707 O   0  0  0  0  0  0  0  0  0  0  0  0
    0.3035  -11.5310    3.5311 C   0  0  0  0  0  0  0  0  0  0  0  0
   -0.3643  -11.5506    2.6908 C   0  0  0  0  0  0  0  0  0  0  0  0
   -0.1764  -11.9928    1.3874 C   0  0  0  0  0  0  0  0  0  0  0  0
   -0.9572  -11.5356    0.3821 C   0  0  0  0  0  0  0  0  0  0  0  0
   -2.1586  -10.8769    0.6543 C   0  0  0  0  0  0  0  0  0  0  0  0
   -2.4961  -10.5511    1.9719 C   0  0  0  0  0  0  0  0  0  0  0  0
   -1.6086  -10.8217    3.0120 C   0  0  0  0  0  0  0  0  0  0  0  0
    2.2207  -10.1587    0.8378 O   0  0  0  0  0  0  0  0  0  0  0  0
  1  2  1  0
  1  3  1  0
  3  4  1  0
  4  5  1  0
  2  6  1  0
  5  6  1  0
  3  7  1  1
  7  8  1  0
  6  9  2  0
  8 10  1  0
 10 11  1  0
  4 17  2  0
 11 12  2  0
 12 13  1  0
 13 14  2  0
 14 15  1  0
 15 16  2  0
 11 16  1  0
M  END

$$$$
No_4570-/export/home/yangzhenyu/potential_scad_32_flow//YTHDC2/2024-12-06-03-22-00/
     RDKit          3D

 20 22  0  0  0  0  0  0  0  0999 V2000
    1.1787   -8.0297    3.5154 C   0  0  0  0  0  0  0  0  0  0  0  0
    1.0491   -6.8434    2.9820 C   0  0  0  0  0  0  0  0  0  0  0  0
    0.0950   -8.8404    3.2292 C   0  0  0  0  0  0  0  0  0  0  0  0
   -0.9173   -8.4596    2.5152 C   0  0  0  0  0  0  0  0  0  0  0  0
   -1.0331   -7.2162    2.0653 C   0  0  0  0  0  0  0  0  0  0  0  0
   -0.0105   -6.3168    2.3081 C   0  0  0  0  0  0  0  0  0  0  0  0
    0.0485   -4.9783    1.8782 C   0  0  0  0  0  0  0  0  0  0  0  0
   -0.4744   -4.1559    2.2381 C   0  0  0  0  0  0  0  0  0  0  0  0
   -0.3956   -2.6830    1.7790 C   0  0  0  0  0  0  0  0  0  0  0  0
    0.1602  -10.2743    3.6766 C   0  0  0  0  0  0  0  0  0  0  0  0
    1.2416  -10.8255    4.0807 C   0  0  0  0  0  0  0  0  0  0  0  0
    1.1433  -12.2665    4.0689 C   0  0  0  0  0  0  0  0  0  0  0  0
    0.0814  -12.9077    3.6977 C   0  0  0  0  0  0  0  0  0  0  0  0
   -0.9268  -12.3285    3.2232 C   0  0  0  0  0  0  0  0  0  0  0  0
   -0.9675  -10.9361    3.2261 C   0  0  0  0  0  0  0  0  0  0  0  0
    0.3855   -2.7044    0.5364 C   0  0  0  0  0  0  0  0  0  0  0  0
    0.9179   -3.6502   -0.0478 C   0  0  0  0  0  0  0  0  0  0  0  0
    0.8496   -4.8744    0.5856 C   0  0  0  0  0  0  0  0  0  0  0  0
    0.4789   -1.1837   -0.1487 Cl  0  0  0  0  0  0  0  0  0  0  0  0
    0.1823  -14.3144    3.7799 O   0  0  0  0  0  0  0  0  0  0  0  0
  6  7  1  0
  3 10  1  0
 16 19  1  0
 13 20  1  0
  1  2  2  0
  2  6  1  0
  5  6  2  0
  4  5  1  0
  3  4  2  0
  1  3  1  0
 10 11  2  0
 11 12  1  0
 12 13  2  0
 13 14  1  0
 14 15  2  0
 10 15  1  0
  7  8  2  0
  8  9  1  0
  9 16  2  0
 16 17  1  0
 17 18  2  0
  7 18  1  0
M  END

$$$$
No_4571-/export/home/yangzhenyu/potential_scad_32_flow//YTHDC2/2024-12-06-03-22-00/
     RDKit          3D

 19 20  0  0  0  0  0  0  0  0999 V2000
    1.1787   -8.0297    3.5154 C   0  0  0  0  0  0  0  0  0  0  0  0
    1.1048   -9.2215    3.2892 C   0  0  0  0  0  0  0  0  0  0  0  0
    1.3627  -10.1721    4.3044 C   0  0  0  0  0  0  0  0  0  0  0  0
    1.0682  -11.5187    4.0618 C   0  0  0  0  0  0  0  0  0  0  0  0
    0.6332  -11.9655    2.9682 C   0  0  0  0  0  0  0  0  0  0  0  0
    0.4776  -11.1308    1.9203 C   0  0  0  0  0  0  0  0  0  0  0  0
    0.7470   -9.8274    2.0368 C   0  0  0  0  0  0  0  0  0  0  0  0
    1.0387   -7.0301    2.5175 C   0  0  0  0  0  0  0  0  0  0  0  0
    0.9130   -7.5288    1.2013 C   0  0  0  0  0  0  0  0  0  0  0  0
    0.7893   -8.7979    0.9542 C   0  0  0  0  0  0  0  0  0  0  0  0
    0.5241   -9.2578   -0.2817 C   0  0  0  0  0  0  0  0  0  0  0  0
    1.2450   -9.2169   -1.2770 O   0  0  0  0  0  0  0  0  0  0  0  0
   -0.8706   -9.3448   -0.6392 O   0  0  0  0  0  0  0  0  0  0  0  0
    0.5164  -13.3827    2.7090 C   0  0  0  0  0  0  0  0  0  0  0  0
   -0.5182  -13.9299    2.4293 C   0  0  0  0  0  0  0  0  0  0  0  0
   -0.6234  -15.3870    2.3793 N   0  0  0  0  0  0  0  0  0  0  0  0
    1.7441  -14.1994    2.6660 N   0  0  0  0  0  0  0  0  0  0  0  0
    0.1840  -15.9589    2.5822 H   0  0  0  0  0  0  0  0  0  0  0  0
    1.6884  -15.1838    2.4472 H   0  0  0  0  0  0  0  0  0  0  0  0
 10 11  1  0
 11 12  2  0
 11 13  1  0
  5 14  1  0
 14 15  1  0
 15 16  2  0
 14 17  2  0
  2  3  1  0
  3  4  2  0
  4  5  1  0
  5  6  2  0
  6  7  1  0
  1  2  2  0
  2  7  1  0
  7 10  2  0
  9 10  1  0
  8  9  2  0
  1  8  1  0
 16 18  1  0
 17 19  1  0
M  END

$$$$
No_4572-/export/home/yangzhenyu/potential_scad_32_flow//YTHDC2/2024-12-06-03-22-00/
     RDKit          3D

 18 19  0  0  0  0  0  0  0  0999 V2000
    1.1787   -8.0297    3.5154 C   0  0  0  0  0  0  0  0  0  0  0  0
    1.0491   -6.8434    2.9820 C   0  0  0  0  0  0  0  0  0  0  0  0
    1.9985   -8.9840    2.8958 C   0  0  0  0  0  0  0  0  0  0  0  0
    1.1815  -10.1889    2.5497 C   0  0  0  0  0  0  0  0  0  0  0  0
    0.3496  -10.1352    1.6536 C   0  0  0  0  0  0  0  0  0  0  0  0
   -0.4562  -11.3268    1.4138 C   0  0  0  0  0  0  0  0  0  0  0  0
   -0.1835  -12.2742    1.6376 C   0  0  0  0  0  0  0  0  0  0  0  0
    1.0469  -12.6500    2.5364 C   0  0  0  0  0  0  0  0  0  0  0  0
    1.2558  -13.9847    3.0543 C   0  0  0  0  0  0  0  0  0  0  0  0
    1.6324  -11.4963    3.0567 C   0  0  0  0  0  0  0  0  0  0  0  0
    0.2091   -6.6331    1.8904 C   0  0  0  0  0  0  0  0  0  0  0  0
   -1.0848   -6.4732    2.2397 C   0  0  0  0  0  0  0  0  0  0  0  0
   -1.8211   -7.4644    2.5727 O   0  0  0  0  0  0  0  0  0  0  0  0
    1.0359  -15.0755    2.2112 C   0  0  0  0  0  0  0  0  0  0  0  0
    2.0430  -15.2826    1.3432 C   0  0  0  0  0  0  0  0  0  0  0  0
    2.0068  -16.3198    0.6800 C   0  0  0  0  0  0  0  0  0  0  0  0
    0.7426  -17.0188    1.1103 C   0  0  0  0  0  0  0  0  0  0  0  0
    0.3339  -16.0898    2.2607 C   0  0  0  0  0  0  0  0  0  0  0  0
  1  2  1  0
  1  3  1  0
  3  4  1  0
  8  9  1  0
  2 11  1  0
 11 12  1  0
 12 13  1  0
  9 14  1  0
 14 15  1  0
 15 16  2  0
 16 17  1  0
 14 18  1  0
 17 18  2  0
  4  5  2  0
  5  6  1  0
  6  7  2  0
  7  8  1  0
  8 10  2  0
  4 10  1  0
M  END

$$$$
No_4573-/export/home/yangzhenyu/potential_scad_32_flow//YTHDC2/2024-12-06-03-22-00/
     RDKit          3D

 13 14  0  0  0  0  0  0  0  0999 V2000
    1.1787   -8.0297    3.5154 C   0  0  0  0  0  0  0  0  0  0  0  0
    1.1048   -9.2215    3.2892 C   0  0  0  0  0  0  0  0  0  0  0  0
    1.3627  -10.1721    4.3044 C   0  0  0  0  0  0  0  0  0  0  0  0
    1.7354  -11.4730    3.9023 C   0  0  0  0  0  0  0  0  0  0  0  0
    1.8080  -11.8127    2.7216 C   0  0  0  0  0  0  0  0  0  0  0  0
    1.5854  -11.0021    1.7249 C   0  0  0  0  0  0  0  0  0  0  0  0
    1.3573   -9.7389    1.9287 C   0  0  0  0  0  0  0  0  0  0  0  0
    1.2865   -8.8078    0.9161 C   0  0  0  0  0  0  0  0  0  0  0  0
    0.9210   -7.5140    1.1674 N   0  0  0  0  0  0  0  0  0  0  0  0
    1.0133   -7.0796    2.3753 C   0  0  0  0  0  0  0  0  0  0  0  0
    0.8080   -5.4346    2.4969 C   0  0  0  0  0  0  0  0  0  0  0  0
    2.0372  -13.2470    2.4096 C   0  0  0  0  0  0  0  0  0  0  0  0
    1.8387  -14.2135    3.2224 O   0  0  0  0  0  0  0  0  0  0  0  0
 10 11  1  0
  5 12  1  0
 12 13  1  0
  1  2  2  0
  7  8  2  0
  8  9  1  0
  9 10  2  0
  1 10  1  0
  2  3  1  0
  3  4  2  0
  4  5  1  0
  5  6  2  0
  6  7  1  0
  2  7  1  0
M  END

$$$$
No_4574-/export/home/yangzhenyu/potential_scad_32_flow//YTHDC2/2024-12-06-03-22-00/
     RDKit          3D

 16 17  0  0  0  0  0  0  0  0999 V2000
    1.1787   -8.0297    3.5154 C   0  0  0  0  0  0  0  0  0  0  0  0
    1.0491   -6.8434    2.9820 C   0  0  0  0  0  0  0  0  0  0  0  0
    0.9905   -9.0774    2.6527 C   0  0  0  0  0  0  0  0  0  0  0  0
    0.7897   -8.9519    1.3691 C   0  0  0  0  0  0  0  0  0  0  0  0
    0.7018   -7.7198    0.7892 C   0  0  0  0  0  0  0  0  0  0  0  0
    0.8918   -6.5957    1.6117 C   0  0  0  0  0  0  0  0  0  0  0  0
    1.0600  -10.5680    3.3321 C   0  0  0  0  0  0  0  0  0  0  0  0
   -0.1041  -11.1772    3.5150 C   0  0  0  0  0  0  0  0  0  0  0  0
   -0.1608  -12.4876    3.3268 C   0  0  0  0  0  0  0  0  0  0  0  0
    0.9865  -13.2841    3.1741 C   0  0  0  0  0  0  0  0  0  0  0  0
    2.2316  -12.5817    3.0045 C   0  0  0  0  0  0  0  0  0  0  0  0
    2.2290  -11.2587    2.9229 C   0  0  0  0  0  0  0  0  0  0  0  0
    0.9652  -14.6598    3.2128 Cl  0  0  0  0  0  0  0  0  0  0  0  0
    0.8427   -5.2603    1.1603 O   0  0  0  0  0  0  0  0  0  0  0  0
    0.5949   -9.9776    0.3594 C   0  0  0  0  0  0  0  0  0  0  0  0
    1.5400  -10.6467   -0.1215 O   0  0  0  0  0  0  0  0  0  0  0  0
  1  2  1  0
  3  4  1  0
  2  6  1  0
  5  6  1  0
  3  7  1  0
 10 13  1  0
  6 14  2  0
  4 15  1  0
 15 16  2  0
  1  3  1  0
  4  5  1  0
  7  8  2  0
  8  9  1  0
  9 10  2  0
 10 11  1  0
 11 12  2  0
  7 12  1  0
M  END

$$$$
No_4575-/export/home/yangzhenyu/potential_scad_32_flow//YTHDC2/2024-12-06-03-22-00/
     RDKit          3D

 19 19  0  0  0  0  0  0  0  0999 V2000
    1.1787   -8.0297    3.5154 N   0  0  0  0  0  0  0  0  0  0  0  0
    0.8669   -7.0905    2.8589 C   0  0  0  0  0  0  0  0  0  0  0  0
    1.0447   -7.3244    1.4123 C   0  0  0  0  0  0  0  0  0  0  0  0
    1.3746   -8.4389    1.0864 C   0  0  0  0  0  0  0  0  0  0  0  0
    1.8493   -9.4093    1.8124 C   0  0  0  0  0  0  0  0  0  0  0  0
    1.7421   -9.2119    3.1541 C   0  0  0  0  0  0  0  0  0  0  0  0
    2.0453  -10.3375    4.1403 C   0  0  0  0  0  0  0  0  0  0  0  0
    1.7458   -8.7074   -0.3893 C   0  0  0  0  0  0  0  0  0  0  0  0
    0.9770   -8.9618   -1.0049 O   0  0  0  0  0  0  0  0  0  0  0  0
    2.9628   -8.4667   -0.9298 O   0  0  0  0  0  0  0  0  0  0  0  0
    1.2500  -11.4746    4.2587 N   0  0  0  0  0  0  0  0  0  0  0  0
    1.6426  -12.5986    3.8037 C   0  0  0  0  0  0  0  0  0  0  0  0
    1.0627  -13.0651    2.5446 C   0  0  0  0  0  0  0  0  0  0  0  0
    1.7554  -14.0985    1.8798 C   0  0  0  0  0  0  0  0  0  0  0  0
    1.3153  -14.2610    0.6142 O   0  0  0  0  0  0  0  0  0  0  0  0
    2.0161  -15.2653    2.4683 O   0  0  0  0  0  0  0  0  0  0  0  0
    2.4462  -10.7057    1.4104 C   0  0  0  0  0  0  0  0  0  0  0  0
    0.4979   -5.8512    3.3300 C   0  0  0  0  0  0  0  0  0  0  0  0
    1.2674   -4.6083    2.8652 C   0  0  0  0  0  0  0  0  0  0  0  0
  6  7  1  0
  4  8  1  0
  8  9  2  0
  8 10  1  0
  7 11  1  0
 11 12  1  0
 12 13  1  0
 13 14  1  0
 14 15  1  0
 14 16  2  0
  5 17  1  0
  2 18  1  0
 18 19  1  0
  1  2  2  0
  2  3  1  0
  3  4  2  0
  4  5  1  0
  5  6  2  0
  1  6  1  0
M  END

$$$$
No_4576-/export/home/yangzhenyu/potential_scad_32_flow//YTHDC2/2024-12-06-03-22-00/
     RDKit          3D

 18 19  0  0  1  0  0  0  0  0999 V2000
    1.1787   -8.0297    3.5154 C   0  0  0  0  0  0  0  0  0  0  0  0
    1.0491   -6.8434    2.9820 C   0  0  0  0  0  0  0  0  0  0  0  0
    1.9985   -8.9840    2.8958 C   0  0  2  0  0  0  0  0  0  0  0  0
    1.7297   -9.2108    1.6335 C   0  0  0  0  0  0  0  0  0  0  0  0
    1.7343   -8.0566    0.8408 C   0  0  0  0  0  0  0  0  0  0  0  0
    0.7286   -5.6388    3.4189 C   0  0  0  0  0  0  0  0  0  0  0  0
    1.4719   -6.9250    1.4384 C   0  0  0  0  0  0  0  0  0  0  0  0
    2.0151   -8.0526   -0.4763 C   0  0  0  0  0  0  0  0  0  0  0  0
    2.9877   -8.8378   -0.9703 Br  0  0  0  0  0  0  0  0  0  0  0  0
    0.6131   -4.4127    2.9082 C   0  0  0  0  0  0  0  0  0  0  0  0
    1.0056   -8.0249   -1.3198 O   0  0  0  0  0  0  0  0  0  0  0  0
    0.2918   -3.4726    3.2552 C   0  0  0  0  0  0  0  0  0  0  0  0
    0.4659   -2.1334    2.6131 C   0  0  0  0  0  0  0  0  0  0  0  0
    1.0721   -2.1735    1.4604 C   0  0  0  0  0  0  0  0  0  0  0  0
    1.4342   -3.3077    0.8300 C   0  0  0  0  0  0  0  0  0  0  0  0
    1.2255   -4.4821    1.4605 C   0  0  0  0  0  0  0  0  0  0  0  0
    1.9312  -10.3666    3.6515 C   0  0  0  0  0  0  0  0  0  0  0  0
    1.0596  -11.2595    3.6747 O   0  0  0  0  0  0  0  0  0  0  0  0
  1  2  1  0
  1  3  1  0
  3  4  1  0
  4  5  1  0
  2  6  2  3
  2  7  1  0
  5  7  1  0
  5  8  1  0
  8  9  1  0
  6 10  1  0
  8 11  2  0
  3 17  1  1
 17 18  2  0
 10 12  2  0
 12 13  1  0
 13 14  2  0
 14 15  1  0
 15 16  2  0
 10 16  1  0
M  END

$$$$
No_4577-/export/home/yangzhenyu/potential_scad_32_flow//YTHDC2/2024-12-06-03-22-00/
     RDKit          3D

 19 20  0  0  0  0  0  0  0  0999 V2000
    1.1787   -8.0297    3.5154 C   0  0  0  0  0  0  0  0  0  0  0  0
    1.1048   -9.2215    3.2892 C   0  0  0  0  0  0  0  0  0  0  0  0
    1.2339   -9.7611    2.0189 C   0  0  0  0  0  0  0  0  0  0  0  0
    1.3583   -9.0036    0.9764 C   0  0  0  0  0  0  0  0  0  0  0  0
    1.5996   -7.6362    1.1311 C   0  0  0  0  0  0  0  0  0  0  0  0
    1.4830   -7.0928    2.3626 C   0  0  0  0  0  0  0  0  0  0  0  0
    1.1008  -11.2372    1.8542 C   0  0  0  0  0  0  0  0  0  0  0  0
    1.9749  -12.0938    2.2342 C   0  0  0  0  0  0  0  0  0  0  0  0
    1.5180  -13.3509    2.5910 C   0  0  0  0  0  0  0  0  0  0  0  0
    0.4120  -13.9272    2.2191 C   0  0  0  0  0  0  0  0  0  0  0  0
   -0.5860  -13.0563    1.8308 C   0  0  0  0  0  0  0  0  0  0  0  0
   -0.2264  -11.7453    1.4928 C   0  0  0  0  0  0  0  0  0  0  0  0
    1.6029   -5.4505    2.6854 Cl  0  0  0  0  0  0  0  0  0  0  0  0
    0.0975  -15.2159    2.5385 C   0  0  0  0  0  0  0  0  0  0  0  0
    1.0241  -16.0195    3.2050 C   0  0  0  0  0  0  0  0  0  0  0  0
    0.8677  -17.3657    3.5360 C   0  0  0  0  0  0  0  0  0  0  0  0
    1.8412  -18.2642    3.3689 C   0  0  0  0  0  0  0  0  0  0  0  0
    1.7485  -19.5913    3.7918 N   0  0  0  0  0  0  0  0  0  0  0  0
    0.9108  -19.9173    4.2523 H   0  0  0  0  0  0  0  0  0  0  0  0
  3  7  1  0
  6 13  1  0
 10 14  1  0
 14 15  2  3
 15 16  1  0
 16 17  1  0
 17 18  2  0
  1  2  2  0
  2  3  1  0
  3  4  2  0
  4  5  1  0
  5  6  2  0
  1  6  1  0
  7  8  2  0
  8  9  1  0
  9 10  2  0
 10 11  1  0
 11 12  2  0
  7 12  1  0
 18 19  1  0
M  END

$$$$
No_4578-/export/home/yangzhenyu/potential_scad_32_flow//YTHDC2/2024-12-06-03-22-00/
     RDKit          3D

 14 15  0  0  0  0  0  0  0  0999 V2000
    1.1787   -8.0297    3.5154 C   0  0  0  0  0  0  0  0  0  0  0  0
    1.1048   -9.2215    3.2892 Cl  0  0  0  0  0  0  0  0  0  0  0  0
    0.2295   -7.0603    2.7853 C   0  0  0  0  0  0  0  0  0  0  0  0
    0.6737   -5.6993    2.5543 C   0  0  0  0  0  0  0  0  0  0  0  0
    2.0125   -5.3226    2.7259 C   0  0  0  0  0  0  0  0  0  0  0  0
   -0.2971   -4.9118    1.9091 C   0  0  0  0  0  0  0  0  0  0  0  0
   -1.4636   -5.2658    1.6460 C   0  0  0  0  0  0  0  0  0  0  0  0
   -2.3821   -4.2778    1.1176 O   0  0  0  0  0  0  0  0  0  0  0  0
   -2.0616   -6.4482    2.0153 C   0  0  0  0  0  0  0  0  0  0  0  0
   -1.1412   -7.4868    2.5979 C   0  0  0  0  0  0  0  0  0  0  0  0
   -3.3335   -6.6759    1.9665 C   0  0  0  0  0  0  0  0  0  0  0  0
   -3.8516   -7.6070    2.3441 C   0  0  0  0  0  0  0  0  0  0  0  0
   -4.0989   -5.7548    0.9697 O   0  0  0  0  0  0  0  0  0  0  0  0
   -3.6269   -4.5037    0.9518 C   0  0  0  0  0  0  0  0  0  0  0  0
  1  2  1  0
  1  3  1  0
  4  5  1  0
  7  8  1  0
  9 11  1  0
 11 12  2  0
 11 13  1  0
  8 14  1  0
 13 14  1  0
  3  4  2  0
  4  6  1  0
  6  7  2  0
  7  9  1  0
  9 10  2  0
  3 10  1  0
M  END

$$$$
No_4579-/export/home/yangzhenyu/potential_scad_32_flow//YTHDC2/2024-12-06-03-22-00/
     RDKit          3D

 18 19  0  0  1  0  0  0  0  0999 V2000
    1.1787   -8.0297    3.5154 C   0  0  0  0  0  0  0  0  0  0  0  0
    1.1048   -9.2215    3.2892 C   0  0  0  0  0  0  0  0  0  0  0  0
    1.2339   -9.7611    2.0189 C   0  0  0  0  0  0  0  0  0  0  0  0
    1.3583   -9.0036    0.9764 C   0  0  0  0  0  0  0  0  0  0  0  0
    1.5996   -7.6362    1.1311 C   0  0  0  0  0  0  0  0  0  0  0  0
    1.4830   -7.0928    2.3626 C   0  0  0  0  0  0  0  0  0  0  0  0
    1.1171  -11.3311    1.8661 C   0  0  1  0  0  0  0  0  0  0  0  0
    0.5042  -11.9974    2.3631 Br  0  0  0  0  0  0  0  0  0  0  0  0
    2.0445  -11.6173    0.6877 C   0  0  0  0  0  0  0  0  0  0  0  0
    1.5452   -5.6412    2.6430 C   0  0  0  0  0  0  0  0  0  0  0  0
    1.1898   -4.7858    1.6414 O   0  0  0  0  0  0  0  0  0  0  0  0
   -0.1058   -4.4360    1.5889 C   0  0  0  0  0  0  0  0  0  0  0  0
   -0.8984   -5.1468    1.5685 C   0  0  0  0  0  0  0  0  0  0  0  0
   -1.5335   -5.8131    0.3699 C   0  0  0  0  0  0  0  0  0  0  0  0
   -2.4615   -6.2148    0.4221 C   0  0  0  0  0  0  0  0  0  0  0  0
   -3.2045   -6.2898    1.6471 C   0  0  0  0  0  0  0  0  0  0  0  0
   -2.0384   -5.5113    2.4514 C   0  0  0  0  0  0  0  0  0  0  0  0
   -0.2779   -3.1866    2.0795 O   0  0  0  0  0  0  0  0  0  0  0  0
  3  7  1  0
  7  8  1  0
  7  9  1  6
  6 10  1  0
 10 11  1  0
 11 12  1  0
 12 13  1  0
 13 14  1  0
 14 15  2  0
 15 16  1  0
 13 17  1  0
 16 17  2  0
 12 18  2  0
  1  2  2  0
  2  3  1  0
  3  4  2  0
  4  5  1  0
  5  6  2  0
  1  6  1  0
M  END

$$$$
No_4580-/export/home/yangzhenyu/potential_scad_32_flow//YTHDC2/2024-12-06-03-22-00/
     RDKit          3D

 17 17  0  0  0  0  0  0  0  0999 V2000
    1.1787   -8.0297    3.5154 C   0  0  0  0  0  0  0  0  0  0  0  0
    1.0491   -6.8434    2.9820 C   0  0  0  0  0  0  0  0  0  0  0  0
    0.9905   -9.0774    2.6527 C   0  0  0  0  0  0  0  0  0  0  0  0
    0.7897   -8.9519    1.3691 C   0  0  0  0  0  0  0  0  0  0  0  0
    0.7018   -7.7198    0.7892 C   0  0  0  0  0  0  0  0  0  0  0  0
    0.8918   -6.5957    1.6117 C   0  0  0  0  0  0  0  0  0  0  0  0
    1.0600  -10.5680    3.3321 C   0  0  0  0  0  0  0  0  0  0  0  0
    2.1422  -11.0089    3.6867 C   0  0  0  0  0  0  0  0  0  0  0  0
    0.8608   -5.2505    1.2071 O   0  0  0  0  0  0  0  0  0  0  0  0
   -0.0630  -11.2113    3.4548 C   0  0  0  0  0  0  0  0  0  0  0  0
   -0.1809  -12.4482    3.1674 O   0  0  0  0  0  0  0  0  0  0  0  0
   -1.2436  -10.5895    3.9300 O   0  0  0  0  0  0  0  0  0  0  0  0
    2.1807  -11.0238    5.0234 O   0  0  0  0  0  0  0  0  0  0  0  0
    0.5883  -10.1265    0.2172 N   0  0  0  0  0  0  0  0  0  0  0  0
    1.6452  -10.8406   -0.0621 C   0  0  0  0  0  0  0  0  0  0  0  0
   -0.6063  -10.3105   -0.2738 C   0  0  0  0  0  0  0  0  0  0  0  0
   -1.1717   -9.2984   -0.9248 C   0  0  0  0  0  0  0  0  0  0  0  0
  1  2  1  0
  3  4  1  0
  2  6  1  0
  5  6  1  0
  3  7  1  0
  7  8  1  0
  6  9  2  0
  7 10  1  0
 10 11  2  0
 10 12  1  0
  8 13  1  0
  4 14  1  0
 14 15  1  0
 14 16  1  0
 16 17  1  0
  1  3  1  0
  4  5  1  0
M  END

$$$$
No_4581-/export/home/yangzhenyu/potential_scad_32_flow//YTHDC2/2024-12-06-03-22-00/
     RDKit          3D

 13 14  0  0  0  0  0  0  0  0999 V2000
    1.1787   -8.0297    3.5154 C   0  0  0  0  0  0  0  0  0  0  0  0
    1.1048   -9.2215    3.2892 C   0  0  0  0  0  0  0  0  0  0  0  0
    1.2339   -9.7611    2.0189 C   0  0  0  0  0  0  0  0  0  0  0  0
    1.3583   -9.0036    0.9764 C   0  0  0  0  0  0  0  0  0  0  0  0
    1.5996   -7.6362    1.1311 C   0  0  0  0  0  0  0  0  0  0  0  0
    1.4830   -7.0928    2.3626 C   0  0  0  0  0  0  0  0  0  0  0  0
    1.1171  -11.3311    1.8661 C   0  0  0  0  0  0  0  0  0  0  0  0
    0.5022  -11.6388    0.6531 N   0  0  0  0  0  0  0  0  0  0  0  0
    1.7354  -12.0497    2.6433 C   0  0  0  0  0  0  0  0  0  0  0  0
    1.6435  -13.4593    2.3328 C   0  0  0  0  0  0  0  0  0  0  0  0
    1.0194  -13.8711    1.1604 C   0  0  0  0  0  0  0  0  0  0  0  0
    0.4793  -12.9640    0.3188 C   0  0  0  0  0  0  0  0  0  0  0  0
    1.5371   -5.6367    2.6365 Cl  0  0  0  0  0  0  0  0  0  0  0  0
  3  7  1  0
  6 13  1  0
  1  2  2  0
  2  3  1  0
  3  4  2  0
  4  5  1  0
  5  6  2  0
  1  6  1  0
  7  8  2  0
  8 12  1  0
 11 12  2  0
 10 11  1  0
  9 10  2  0
  7  9  1  0
M  END

$$$$
No_4582-/export/home/yangzhenyu/potential_scad_32_flow//YTHDC2/2024-12-06-03-22-00/
     RDKit          3D

 19 20  0  0  1  0  0  0  0  0999 V2000
    1.1787   -8.0297    3.5154 C   0  0  0  0  0  0  0  0  0  0  0  0
    1.1048   -9.2215    3.2892 O   0  0  0  0  0  0  0  0  0  0  0  0
    1.0717   -9.7272    2.0537 C   0  0  0  0  0  0  0  0  0  0  0  0
    1.1174   -8.7649    1.1692 C   0  0  1  0  0  0  0  0  0  0  0  0
    1.3300   -7.4687    1.9612 C   0  0  0  0  0  0  0  0  0  0  0  0
    1.1889   -8.6919   -0.1136 C   0  0  0  0  0  0  0  0  0  0  0  0
   -0.0710   -8.5920   -0.7304 O   0  0  0  0  0  0  0  0  0  0  0  0
    2.2724   -8.8293   -0.8511 O   0  0  0  0  0  0  0  0  0  0  0  0
    1.0578  -11.0104    1.8461 C   0  0  0  0  0  0  0  0  0  0  0  0
    0.8423  -11.9758    2.7024 C   0  0  0  0  0  0  0  0  0  0  0  0
   -0.2707  -12.1072    3.1219 C   0  0  0  0  0  0  0  0  0  0  0  0
    1.9141  -12.7462    3.3529 C   0  0  0  0  0  0  0  0  0  0  0  0
    1.4051  -11.5592    0.5346 O   0  0  0  0  0  0  0  0  0  0  0  0
    1.9440  -14.0812    2.9550 C   0  0  0  0  0  0  0  0  0  0  0  0
    0.8391  -14.8545    2.8615 C   0  0  0  0  0  0  0  0  0  0  0  0
   -0.4016  -13.8179    2.9044 C   0  0  0  0  0  0  0  0  0  0  0  0
    0.5104  -16.0688    3.0914 C   0  0  0  0  0  0  0  0  0  0  0  0
   -0.1061  -16.6506    3.9143 O   0  0  0  0  0  0  0  0  0  0  0  0
    1.2360  -16.7834    2.1761 O   0  0  0  0  0  0  0  0  0  0  0  0
  1  2  1  0
  2  3  1  0
  3  4  1  0
  1  5  1  0
  4  5  1  0
  4  6  1  6
  6  7  2  0
  6  8  1  0
  3  9  1  0
  9 10  1  0
  9 13  2  0
 15 17  1  0
 17 18  1  0
 17 19  2  0
 10 11  2  0
 11 16  1  0
 15 16  2  0
 14 15  1  0
 12 14  2  0
 10 12  1  0
M  END

$$$$
No_4583-/export/home/yangzhenyu/potential_scad_32_flow//YTHDC2/2024-12-06-03-22-00/
     RDKit          3D

 19 19  0  0  0  0  0  0  0  0999 V2000
    1.1787   -8.0297    3.5154 C   0  0  0  0  0  0  0  0  0  0  0  0
    1.0491   -6.8434    2.9820 C   0  0  0  0  0  0  0  0  0  0  0  0
    0.0950   -8.8404    3.2292 C   0  0  0  0  0  0  0  0  0  0  0  0
   -0.9173   -8.4596    2.5152 C   0  0  0  0  0  0  0  0  0  0  0  0
   -1.0331   -7.2162    2.0653 C   0  0  0  0  0  0  0  0  0  0  0  0
   -0.0105   -6.3168    2.3081 C   0  0  0  0  0  0  0  0  0  0  0  0
    0.1150   -4.9910    1.8495 C   0  0  0  0  0  0  0  0  0  0  0  0
   -0.5774   -4.1593    2.0596 O   0  0  0  0  0  0  0  0  0  0  0  0
    1.3665   -4.5425    1.2260 O   0  0  0  0  0  0  0  0  0  0  0  0
    0.1563  -10.2873    3.6555 C   0  0  0  0  0  0  0  0  0  0  0  0
    1.2117  -10.9366    4.1124 C   0  0  0  0  0  0  0  0  0  0  0  0
    2.4974  -10.4979    3.9819 C   0  0  0  0  0  0  0  0  0  0  0  0
    3.4361  -10.9163    4.8345 C   0  0  0  0  0  0  0  0  0  0  0  0
    3.1846  -10.5955    6.2825 O   0  0  0  0  0  0  0  0  0  0  0  0
    4.7854  -10.9044    4.6383 O   0  0  0  0  0  0  0  0  0  0  0  0
   -0.9853  -11.1096    3.5190 C   0  0  0  0  0  0  0  0  0  0  0  0
   -0.8744  -12.1896    2.6599 C   0  0  0  0  0  0  0  0  0  0  0  0
   -1.9477  -13.1616    2.6516 C   0  0  0  0  0  0  0  0  0  0  0  0
   -3.2185  -12.7981    3.0363 C   0  0  0  0  0  0  0  0  0  0  0  0
  6  7  1  0
  7  8  2  0
  7  9  1  0
  3 10  1  0
 10 11  2  3
 11 12  1  0
 12 13  1  0
 13 14  1  0
 13 15  2  0
 10 16  1  0
 16 17  2  3
 17 18  1  0
 18 19  2  0
  1  2  2  0
  2  6  1  0
  5  6  2  0
  4  5  1  0
  3  4  2  0
  1  3  1  0
M  END

$$$$
No_4584-/export/home/yangzhenyu/potential_scad_32_flow//YTHDC2/2024-12-06-03-22-00/
     RDKit          3D

 18 18  0  0  1  0  0  0  0  0999 V2000
    1.1787   -8.0297    3.5154 O   0  0  0  0  0  0  0  0  0  0  0  0
    0.9969   -8.9689    3.0048 C   0  0  2  0  0  0  0  0  0  0  0  0
    0.9976   -8.9567    1.6341 C   0  0  0  0  0  0  0  0  0  0  0  0
    1.6062   -9.9071    0.9292 C   0  0  0  0  0  0  0  0  0  0  0  0
    1.9085   -9.8086   -0.3950 C   0  0  0  0  0  0  0  0  0  0  0  0
    0.6705  -10.0870    3.6248 C   0  0  0  0  0  0  0  0  0  0  0  0
    1.1778   -8.8673   -1.2613 O   0  0  0  0  0  0  0  0  0  0  0  0
   -0.4530  -10.5726    4.0767 O   0  0  0  0  0  0  0  0  0  0  0  0
    1.7623  -10.9512    4.0458 O   0  0  0  0  0  0  0  0  0  0  0  0
    1.4193   -6.7464    2.8612 C   0  0  0  0  0  0  0  0  0  0  0  0
    2.8867   -9.8824   -1.0876 O   0  0  0  0  0  0  0  0  0  0  0  0
    0.3469   -5.8505    2.8042 C   0  0  0  0  0  0  0  0  0  0  0  0
    0.5328   -4.5068    2.4478 C   0  0  0  0  0  0  0  0  0  0  0  0
    0.4024   -4.1650    1.5014 C   0  0  0  0  0  0  0  0  0  0  0  0
   -0.3210   -4.8859    0.4176 C   0  0  0  0  0  0  0  0  0  0  0  0
   -0.7438   -6.1975    0.7610 C   0  0  0  0  0  0  0  0  0  0  0  0
   -0.3366   -6.7797    1.9298 C   0  0  0  0  0  0  0  0  0  0  0  0
    0.6648   -2.7374    1.1713 Cl  0  0  0  0  0  0  0  0  0  0  0  0
  2  1  1  1
  2  3  1  0
  3  4  2  3
  4  5  1  0
  2  6  1  0
  5  7  2  0
  6  8  1  0
  6  9  2  0
  1 10  1  0
  5 11  1  0
 10 12  1  0
 14 18  1  0
 12 13  2  0
 13 14  1  0
 14 15  2  0
 15 16  1  0
 16 17  2  0
 12 17  1  0
M  END

$$$$
No_4585-/export/home/yangzhenyu/potential_scad_32_flow//YTHDC2/2024-12-06-03-22-00/
     RDKit          3D

 19 19  0  0  1  0  0  0  0  0999 V2000
    1.1787   -8.0297    3.5154 O   0  0  0  0  0  0  0  0  0  0  0  0
    0.9969   -8.9689    3.0048 C   0  0  1  0  0  0  0  0  0  0  0  0
    0.9976   -8.9567    1.6341 C   0  0  2  0  0  0  0  0  0  0  0  0
    1.6062   -9.9071    0.9292 C   0  0  1  0  0  0  0  0  0  0  0  0
    2.1191  -10.9757    1.6503 C   0  0  0  0  0  0  0  0  0  0  0  0
    2.1177  -10.9891    3.0403 C   0  0  1  0  0  0  0  0  0  0  0  0
    1.5441   -9.8905    3.6897 C   0  0  0  0  0  0  0  0  0  0  0  0
    0.5010   -7.8164    1.0436 C   0  0  0  0  0  0  0  0  0  0  0  0
   -0.3627   -7.9721    0.1048 O   0  0  0  0  0  0  0  0  0  0  0  0
    0.8837   -6.5434    1.1459 O   0  0  0  0  0  0  0  0  0  0  0  0
    1.6163  -10.1307    5.0109 O   0  0  0  0  0  0  0  0  0  0  0  0
    2.5899  -12.1894    3.5792 O   0  0  0  0  0  0  0  0  0  0  0  0
    1.6313  -10.0028   -0.4398 C   0  0  0  0  0  0  0  0  0  0  0  0
    2.5495   -9.0330   -1.0555 O   0  0  0  0  0  0  0  0  0  0  0  0
    0.2071   -5.4546    1.3111 C   0  0  0  0  0  0  0  0  0  0  0  0
    0.7716   -4.3013    1.9525 C   0  0  1  0  0  0  0  0  0  0  0  0
    1.6819   -4.7798    2.9174 C   0  0  0  0  0  0  0  0  0  0  0  0
    0.7979   -3.0729    1.3563 C   0  0  0  0  0  0  0  0  0  0  0  0
    0.1814   -2.9221    0.2933 C   0  0  0  0  0  0  0  0  0  0  0  0
  2  1  1  1
  2  3  1  0
  4  5  1  0
  2  7  1  0
  6  7  1  0
  3  8  1  1
  8  9  2  0
  8 10  1  0
  7 11  2  0
  6 12  1  6
  4 13  1  6
 13 14  1  0
 10 15  1  0
 15 16  1  0
 16 17  1  6
 16 18  1  0
 18 19  1  0
  3  4  1  0
  5  6  1  0
M  END

$$$$
No_4586-/export/home/yangzhenyu/potential_scad_32_flow//YTHDC2/2024-12-06-03-22-00/
     RDKit          3D

 20 22  0  0  0  0  0  0  0  0999 V2000
    1.1787   -8.0297    3.5154 C   0  0  0  0  0  0  0  0  0  0  0  0
    1.1048   -9.2215    3.2892 C   0  0  0  0  0  0  0  0  0  0  0  0
    1.2339   -9.7611    2.0189 C   0  0  0  0  0  0  0  0  0  0  0  0
    1.3583   -9.0036    0.9764 C   0  0  0  0  0  0  0  0  0  0  0  0
    1.5996   -7.6362    1.1311 C   0  0  0  0  0  0  0  0  0  0  0  0
    1.4830   -7.0928    2.3626 C   0  0  0  0  0  0  0  0  0  0  0  0
    1.1008  -11.2372    1.8542 C   0  0  0  0  0  0  0  0  0  0  0  0
    1.9749  -12.0938    2.2342 C   0  0  0  0  0  0  0  0  0  0  0  0
    1.7533  -13.4231    1.8956 C   0  0  0  0  0  0  0  0  0  0  0  0
    0.8624  -13.8318    1.1071 C   0  0  0  0  0  0  0  0  0  0  0  0
   -0.0624  -12.9093    0.5581 C   0  0  0  0  0  0  0  0  0  0  0  0
    0.1157  -11.5285    0.9404 C   0  0  0  0  0  0  0  0  0  0  0  0
    1.5561   -5.6354    2.6426 Cl  0  0  0  0  0  0  0  0  0  0  0  0
   -0.8311  -10.6449    0.4827 C   0  0  0  0  0  0  0  0  0  0  0  0
   -0.9854  -10.1997   -0.7385 C   0  0  0  0  0  0  0  0  0  0  0  0
   -1.9430   -9.2634   -1.1487 C   0  0  0  0  0  0  0  0  0  0  0  0
   -2.7921   -8.7740   -0.3304 C   0  0  0  0  0  0  0  0  0  0  0  0
   -2.7854   -9.1960    1.0194 C   0  0  0  0  0  0  0  0  0  0  0  0
   -1.8479  -10.1202    1.3904 C   0  0  0  0  0  0  0  0  0  0  0  0
   -1.9042   -8.7042   -2.5176 O   0  0  0  0  0  0  0  0  0  0  0  0
  3  7  1  0
  6 13  1  0
 12 14  1  0
 16 20  1  0
  1  2  2  0
  2  3  1  0
  3  4  2  0
  4  5  1  0
  5  6  2  0
  1  6  1  0
  7  8  2  0
  8  9  1  0
  9 10  2  0
 10 11  1  0
 11 12  2  0
  7 12  1  0
 14 15  2  0
 15 16  1  0
 16 17  2  0
 17 18  1  0
 18 19  2  0
 14 19  1  0
M  END

$$$$
No_4587-/export/home/yangzhenyu/potential_scad_32_flow//YTHDC2/2024-12-06-03-22-00/
     RDKit          3D

 18 19  0  0  1  0  0  0  0  0999 V2000
    1.1787   -8.0297    3.5154 C   0  0  0  0  0  0  0  0  0  0  0  0
    1.1048   -9.2215    3.2892 C   0  0  0  0  0  0  0  0  0  0  0  0
    1.3627  -10.1721    4.3044 C   0  0  0  0  0  0  0  0  0  0  0  0
    1.0682  -11.5187    4.0618 C   0  0  0  0  0  0  0  0  0  0  0  0
    0.7653  -11.7320    2.7387 C   0  0  0  0  0  0  0  0  0  0  0  0
    0.5661  -10.9730    1.8367 C   0  0  0  0  0  0  0  0  0  0  0  0
    0.7745   -9.6758    2.0361 C   0  0  0  0  0  0  0  0  0  0  0  0
    0.4411   -6.9477    3.0544 C   0  0  0  0  0  0  0  0  0  0  0  0
    0.0050   -7.3068    1.7363 C   0  0  2  0  0  0  0  0  0  0  0  0
    0.1327   -8.5722    1.2766 C   0  0  0  0  0  0  0  0  0  0  0  0
   -0.3554   -6.3359    0.8497 C   0  0  0  0  0  0  0  0  0  0  0  0
   -1.4170   -5.8440    0.7813 C   0  0  0  0  0  0  0  0  0  0  0  0
   -0.2123   -8.9318    0.0331 O   0  0  0  0  0  0  0  0  0  0  0  0
    0.6192  -13.2436    2.4169 C   0  0  0  0  0  0  0  0  0  0  0  0
   -0.5313  -13.7487    2.0097 C   0  0  0  0  0  0  0  0  0  0  0  0
    1.7065  -14.1650    2.5644 C   0  0  0  0  0  0  0  0  0  0  0  0
    1.8943  -15.2310    1.8065 C   0  0  0  0  0  0  0  0  0  0  0  0
    2.9203  -16.1939    2.2182 O   0  0  0  0  0  0  0  0  0  0  0  0
  1  2  1  0
  8  9  1  0
  7 10  1  0
  9 10  1  0
  9 11  1  6
 11 12  2  0
 10 13  2  0
  5 14  1  0
 14 15  1  0
 14 16  1  0
 16 17  1  0
 17 18  2  0
  1  8  1  0
  2  3  2  0
  3  4  1  0
  4  5  2  0
  5  6  1  0
  6  7  2  0
  2  7  1  0
M  END

$$$$
No_4588-/export/home/yangzhenyu/potential_scad_32_flow//YTHDC2/2024-12-06-03-22-00/
     RDKit          3D

 18 19  0  0  1  0  0  0  0  0999 V2000
    1.1787   -8.0297    3.5154 C   0  0  0  0  0  0  0  0  0  0  0  0
    1.1048   -9.2215    3.2892 C   0  0  0  0  0  0  0  0  0  0  0  0
    1.2339   -9.7611    2.0189 C   0  0  0  0  0  0  0  0  0  0  0  0
    1.1954  -11.2312    1.8661 C   0  0  0  0  0  0  0  0  0  0  0  0
    1.2996  -11.5815    0.5387 C   0  0  0  0  0  0  0  0  0  0  0  0
    1.3263   -7.1208    2.3229 C   0  0  1  0  0  0  0  0  0  0  0  0
    1.3693   -7.6408    1.0625 C   0  0  0  0  0  0  0  0  0  0  0  0
    1.4358   -8.9950    0.8622 C   0  0  0  0  0  0  0  0  0  0  0  0
    1.1800  -13.0763    0.6448 C   0  0  0  0  0  0  0  0  0  0  0  0
    1.0518  -12.1823    2.6382 C   0  0  0  0  0  0  0  0  0  0  0  0
    0.9955  -13.4284    2.1806 C   0  0  0  0  0  0  0  0  0  0  0  0
    1.3178   -5.6260    2.5210 C   0  0  0  0  0  0  0  0  0  0  0  0
    0.8355  -14.6740    2.6901 S   0  0  0  0  0  0  0  0  0  0  0  0
    1.1539  -15.8348    1.5318 C   0  0  2  0  0  0  0  0  0  0  0  0
    2.3465  -16.5772    1.8885 N   0  0  0  0  0  0  0  0  0  0  0  0
    1.0928  -15.5368    0.2910 C   0  0  0  0  0  0  0  0  0  0  0  0
    1.4725   -9.3581   -0.3839 O   0  0  0  0  0  0  0  0  0  0  0  0
   -0.2019  -15.9322   -0.3217 C   0  0  0  0  0  0  0  0  0  0  0  0
  1  2  1  0
  3  4  1  0
  4  5  1  0
  6  7  1  0
  3  8  1  0
  7  8  1  0
  5  9  2  0
  4 10  1  0
  9 11  1  0
 10 11  2  0
  6 12  1  6
 11 13  1  0
 13 14  1  0
 14 15  1  1
 14 16  1  0
  8 17  2  0
 16 18  1  0
  2  3  1  0
  1  6  1  0
M  END

$$$$
No_4589-/export/home/yangzhenyu/potential_scad_32_flow//YTHDC2/2024-12-06-03-22-00/
     RDKit          3D

 19 19  0  0  0  0  0  0  0  0999 V2000
    1.1787   -8.0297    3.5154 C   0  0  0  0  0  0  0  0  0  0  0  0
    1.1048   -9.2215    3.2892 C   0  0  0  0  0  0  0  0  0  0  0  0
    1.3627  -10.1721    4.3044 C   0  0  0  0  0  0  0  0  0  0  0  0
    1.0682  -11.5187    4.0618 C   0  0  0  0  0  0  0  0  0  0  0  0
    0.6332  -11.9655    2.9682 C   0  0  0  0  0  0  0  0  0  0  0  0
    0.4776  -11.1308    1.9203 C   0  0  0  0  0  0  0  0  0  0  0  0
    0.7470   -9.8274    2.0368 C   0  0  0  0  0  0  0  0  0  0  0  0
    0.5535   -7.1314    2.6861 S   0  0  0  0  0  0  0  0  0  0  0  0
    1.2893   -5.5489    3.1296 O   0  0  0  0  0  0  0  0  0  0  0  0
   -0.9129   -6.7369    2.7533 C   0  0  0  0  0  0  0  0  0  0  0  0
    1.0655   -7.1552    1.1982 O   0  0  0  0  0  0  0  0  0  0  0  0
    0.3764  -13.3171    2.6871 C   0  0  0  0  0  0  0  0  0  0  0  0
    0.9138  -13.9636    1.7512 C   0  0  0  0  0  0  0  0  0  0  0  0
    0.7976  -15.3838    1.5520 C   0  0  0  0  0  0  0  0  0  0  0  0
    0.6695  -16.2096    2.5864 C   0  0  0  0  0  0  0  0  0  0  0  0
    0.6934  -17.6304    2.5079 C   0  0  0  0  0  0  0  0  0  0  0  0
    0.7870  -18.4371    3.5094 C   0  0  0  0  0  0  0  0  0  0  0  0
    0.5593  -18.0390    4.7427 C   0  0  0  0  0  0  0  0  0  0  0  0
    0.4533  -16.6023    5.0217 C   0  0  0  0  0  0  0  0  0  0  0  0
  1  2  1  0
  1  8  1  0
  8  9  2  0
  8 10  1  0
  8 11  2  0
  5 12  1  0
 12 13  2  3
 13 14  1  0
 14 15  2  3
 15 16  1  0
 16 17  2  3
 17 18  1  0
 18 19  2  0
  2  3  2  0
  3  4  1  0
  4  5  2  0
  5  6  1  0
  6  7  2  0
  2  7  1  0
M  END

$$$$
No_4590-/export/home/yangzhenyu/potential_scad_32_flow//YTHDC2/2024-12-06-03-22-00/
     RDKit          3D

 19 20  0  0  1  0  0  0  0  0999 V2000
    1.1787   -8.0297    3.5154 C   0  0  0  0  0  0  0  0  0  0  0  0
    1.0491   -6.8434    2.9820 C   0  0  0  0  0  0  0  0  0  0  0  0
    0.9905   -9.0774    2.6527 C   0  0  1  0  0  0  0  0  0  0  0  0
    0.7897   -8.9519    1.3691 C   0  0  0  0  0  0  0  0  0  0  0  0
    0.7018   -7.7198    0.7892 C   0  0  0  0  0  0  0  0  0  0  0  0
    0.8918   -6.5957    1.6117 C   0  0  0  0  0  0  0  0  0  0  0  0
    1.0998  -10.4710    3.2437 C   0  0  0  0  0  0  0  0  0  0  0  0
    0.0472  -11.2546    3.3963 C   0  0  0  0  0  0  0  0  0  0  0  0
    0.1622  -12.5732    3.4140 C   0  0  0  0  0  0  0  0  0  0  0  0
    1.4566  -13.0980    3.0551 C   0  0  0  0  0  0  0  0  0  0  0  0
    2.5435  -12.3437    2.8391 C   0  0  0  0  0  0  0  0  0  0  0  0
    2.3667  -11.0303    2.7911 C   0  0  0  0  0  0  0  0  0  0  0  0
    0.8742   -5.2366    1.2221 O   0  0  0  0  0  0  0  0  0  0  0  0
    1.4837  -14.5474    3.1301 O   0  0  0  0  0  0  0  0  0  0  0  0
    2.2674  -15.2581    2.3717 C   0  0  0  0  0  0  0  0  0  0  0  0
    2.6819  -14.7973    1.3515 N   0  0  0  0  0  0  0  0  0  0  0  0
    2.5261  -16.5868    2.6360 O   0  0  0  0  0  0  0  0  0  0  0  0
    0.5661  -10.1058    0.2292 C   0  0  0  0  0  0  0  0  0  0  0  0
    2.4669  -13.8418    1.1048 H   0  0  0  0  0  0  0  0  0  0  0  0
  1  2  1  0
  3  4  1  0
  2  6  1  0
  5  6  1  0
  3  7  1  6
  6 13  2  0
 10 14  1  0
 14 15  1  0
 15 16  2  0
 15 17  1  0
  4 18  1  0
  1  3  1  0
  4  5  1  0
  7  8  2  0
  8  9  1  0
  9 10  2  0
 10 11  1  0
 11 12  2  0
  7 12  1  0
 16 19  1  0
M  END

$$$$
No_4591-/export/home/yangzhenyu/potential_scad_32_flow//YTHDC2/2024-12-06-03-22-00/
     RDKit          3D

 19 20  0  0  1  0  0  0  0  0999 V2000
    1.1787   -8.0297    3.5154 N   0  0  0  0  0  0  0  0  0  0  0  0
    0.8669   -7.0905    2.8589 C   0  0  0  0  0  0  0  0  0  0  0  0
    0.8842   -5.8387    3.2677 C   0  0  0  0  0  0  0  0  0  0  0  0
    1.2042   -9.3413    3.1417 C   0  0  1  0  0  0  0  0  0  0  0  0
    0.8983   -9.6945    2.0312 C   0  0  2  0  0  0  0  0  0  0  0  0
    0.3799   -8.7798    1.1360 C   0  0  1  0  0  0  0  0  0  0  0  0
    0.4461   -7.4789    1.4652 C   0  0  0  0  0  0  0  0  0  0  0  0
    0.0793   -6.5008    0.6586 O   0  0  0  0  0  0  0  0  0  0  0  0
    1.7667  -10.3638    4.1598 C   0  0  0  0  0  0  0  0  0  0  0  0
    1.0736  -11.6141    4.3136 O   0  0  0  0  0  0  0  0  0  0  0  0
   -0.1771   -5.0057    3.2548 C   0  0  0  0  0  0  0  0  0  0  0  0
   -0.0166   -3.6283    3.1146 C   0  0  0  0  0  0  0  0  0  0  0  0
    1.3689   -3.1611    3.0392 C   0  0  0  0  0  0  0  0  0  0  0  0
    2.4434   -3.9525    3.0160 C   0  0  0  0  0  0  0  0  0  0  0  0
    2.2349   -5.3107    3.1086 C   0  0  0  0  0  0  0  0  0  0  0  0
    2.8962  -10.2798    4.8363 O   0  0  0  0  0  0  0  0  0  0  0  0
    1.5658   -1.7114    3.0040 Cl  0  0  0  0  0  0  0  0  0  0  0  0
    0.0368   -9.1967   -0.2027 I   0  0  0  0  0  0  0  0  0  0  0  0
    0.9348  -11.0789    1.5752 C   0  0  0  0  0  0  0  0  0  0  0  0
  1  2  1  0
  2  3  1  0
  4  5  1  0
  2  7  1  0
  6  7  1  0
  7  8  2  0
  4  9  1  6
  9 10  1  0
  9 16  2  0
 13 17  1  0
  6 18  1  6
  5 19  1  1
  1  4  1  0
  5  6  1  0
  3 11  2  0
 11 12  1  0
 12 13  2  0
 13 14  1  0
 14 15  2  0
  3 15  1  0
M  END

$$$$
No_4592-/export/home/yangzhenyu/potential_scad_32_flow//YTHDC2/2024-12-06-03-22-00/
     RDKit          3D

 14 15  0  0  0  0  0  0  0  0999 V2000
    1.1787   -8.0297    3.5154 N   0  0  0  0  0  0  0  0  0  0  0  0
    1.0818   -9.0751    3.2053 C   0  0  0  0  0  0  0  0  0  0  0  0
    1.5216  -10.1164    3.9747 C   0  0  0  0  0  0  0  0  0  0  0  0
    1.7650  -11.2320    3.5712 C   0  0  0  0  0  0  0  0  0  0  0  0
    1.4277  -11.6899    2.3702 C   0  0  0  0  0  0  0  0  0  0  0  0
    1.0443  -10.7313    1.4783 C   0  0  0  0  0  0  0  0  0  0  0  0
    0.9294   -9.4471    1.8469 C   0  0  0  0  0  0  0  0  0  0  0  0
    0.5107   -8.4473    0.9766 C   0  0  0  0  0  0  0  0  0  0  0  0
    0.1543   -7.3638    1.2242 C   0  0  0  0  0  0  0  0  0  0  0  0
    0.6075   -6.8962    2.6757 C   0  0  0  0  0  0  0  0  0  0  0  0
    1.6301  -13.1149    1.9844 Cl  0  0  0  0  0  0  0  0  0  0  0  0
    0.5727   -5.6095    3.1218 C   0  0  0  0  0  0  0  0  0  0  0  0
    1.7188   -4.9262    3.5038 C   0  0  0  0  0  0  0  0  0  0  0  0
    0.1582   -8.8343   -0.3843 C   0  0  0  0  0  0  0  0  0  0  0  0
  5 11  1  0
 10 12  1  0
 12 13  1  0
  8 14  1  0
  1  2  2  0
  7  8  2  0
  8  9  1  0
  9 10  2  0
  1 10  1  0
  2  3  1  0
  3  4  2  0
  4  5  1  0
  5  6  2  0
  6  7  1  0
  2  7  1  0
M  END

$$$$
No_4593-/export/home/yangzhenyu/potential_scad_32_flow//YTHDC2/2024-12-06-03-22-00/
     RDKit          3D

 19 19  0  0  1  0  0  0  0  0999 V2000
    1.1787   -8.0297    3.5154 C   0  0  0  0  0  0  0  0  0  0  0  0
    1.0491   -6.8434    2.9820 C   0  0  0  0  0  0  0  0  0  0  0  0
    0.9905   -9.0774    2.6527 C   0  0  0  0  0  0  0  0  0  0  0  0
    1.1655  -10.4663    3.1286 C   0  0  1  0  0  0  0  0  0  0  0  0
    1.7409  -10.6480    4.4599 C   0  0  0  0  0  0  0  0  0  0  0  0
    1.0486   -6.3431    1.8833 N   0  0  0  0  0  0  0  0  0  0  0  0
    0.8681   -5.0231    1.6428 C   0  0  0  0  0  0  0  0  0  0  0  0
    0.1417  -11.4203    2.7823 C   0  0  0  0  0  0  0  0  0  0  0  0
    0.5718  -12.8001    2.7175 C   0  0  0  0  0  0  0  0  0  0  0  0
    0.4582  -13.4353    1.6031 C   0  0  0  0  0  0  0  0  0  0  0  0
    1.1077  -14.6811    1.4461 C   0  0  0  0  0  0  0  0  0  0  0  0
    1.9525  -15.2052    2.3296 C   0  0  0  0  0  0  0  0  0  0  0  0
    2.1668  -14.4000    3.5530 C   0  0  0  0  0  0  0  0  0  0  0  0
    1.5225  -13.2318    3.6838 C   0  0  0  0  0  0  0  0  0  0  0  0
    1.7787   -4.0947    2.2338 O   0  0  0  0  0  0  0  0  0  0  0  0
    0.2943   -4.5996    0.4288 O   0  0  0  0  0  0  0  0  0  0  0  0
    2.6165  -16.3848    2.2092 Br  0  0  0  0  0  0  0  0  0  0  0  0
    3.1606  -10.5189    4.6388 N   0  0  0  0  0  0  0  0  0  0  0  0
    3.5453  -11.1140    5.8801 C   0  0  0  0  0  0  0  0  0  0  0  0
  1  2  1  0
  1  3  2  3
  3  4  1  0
  4  5  1  1
  2  6  2  3
  6  7  1  0
  4  8  1  0
  8  9  1  0
  7 15  2  0
  7 16  1  0
 12 17  1  0
  5 18  1  0
 18 19  1  0
  9 10  2  0
 10 11  1  0
 11 12  2  0
 12 13  1  0
 13 14  2  0
  9 14  1  0
M  END

$$$$
No_4594-/export/home/yangzhenyu/potential_scad_32_flow//YTHDC2/2024-12-06-03-22-00/
     RDKit          3D

 18 18  0  0  0  0  0  0  0  0999 V2000
    1.1787   -8.0297    3.5154 N   0  0  0  0  0  0  0  0  0  0  0  0
    1.0818   -9.0751    3.2053 C   0  0  0  0  0  0  0  0  0  0  0  0
    1.5216  -10.1164    3.9747 N   0  0  0  0  0  0  0  0  0  0  0  0
    1.4699  -11.3711    3.6561 C   0  0  0  0  0  0  0  0  0  0  0  0
    0.7756  -11.7642    2.6155 N   0  0  0  0  0  0  0  0  0  0  0  0
    0.1598  -10.9526    1.8783 C   0  0  0  0  0  0  0  0  0  0  0  0
    0.4186   -9.5965    2.0535 C   0  0  0  0  0  0  0  0  0  0  0  0
   -0.2305   -8.6096    1.3280 C   0  0  0  0  0  0  0  0  0  0  0  0
    0.5273   -8.1467    0.2156 C   0  0  0  0  0  0  0  0  0  0  0  0
    1.0692   -8.8585   -0.5060 C   0  0  0  0  0  0  0  0  0  0  0  0
    2.4331   -8.6077   -0.9175 C   0  0  0  0  0  0  0  0  0  0  0  0
   -0.5944  -11.5006    0.8399 C   0  0  0  0  0  0  0  0  0  0  0  0
    3.2781   -8.5137    0.1567 O   0  0  0  0  0  0  0  0  0  0  0  0
    3.0092   -8.5732   -1.9436 O   0  0  0  0  0  0  0  0  0  0  0  0
   -1.9188  -11.4426    1.0324 C   0  0  0  0  0  0  0  0  0  0  0  0
   -2.5669  -12.3178    0.2889 C   0  0  0  0  0  0  0  0  0  0  0  0
   -2.1492  -12.9734   -0.7448 C   0  0  0  0  0  0  0  0  0  0  0  0
   -0.7528  -12.9531   -1.0300 C   0  0  0  0  0  0  0  0  0  0  0  0
  1  2  1  0
  7  8  1  0
  8  9  1  0
  9 10  1  0
 10 11  1  0
  6 12  1  0
 11 13  1  0
 11 14  2  0
 12 15  1  0
 15 16  2  3
 16 17  1  0
 17 18  2  0
  2  3  2  0
  3  4  1  0
  4  5  2  0
  5  6  1  0
  6  7  2  0
  2  7  1  0
M  END

$$$$
No_4595-/export/home/yangzhenyu/potential_scad_32_flow//YTHDC2/2024-12-06-03-22-00/
     RDKit          3D

 17 18  0  0  0  0  0  0  0  0999 V2000
    1.1787   -8.0297    3.5154 C   0  0  0  0  0  0  0  0  0  0  0  0
    1.0491   -6.8434    2.9820 C   0  0  0  0  0  0  0  0  0  0  0  0
    0.0950   -8.8404    3.2292 C   0  0  0  0  0  0  0  0  0  0  0  0
   -0.9173   -8.4596    2.5152 C   0  0  0  0  0  0  0  0  0  0  0  0
   -1.0331   -7.2162    2.0653 C   0  0  0  0  0  0  0  0  0  0  0  0
   -0.0105   -6.3168    2.3081 C   0  0  0  0  0  0  0  0  0  0  0  0
    0.0485   -4.9783    1.8782 C   0  0  0  0  0  0  0  0  0  0  0  0
   -0.6974   -4.6139    0.8644 C   0  0  0  0  0  0  0  0  0  0  0  0
   -0.6561   -3.2952    0.3726 C   0  0  0  0  0  0  0  0  0  0  0  0
    0.3825   -2.3349    0.9301 C   0  0  0  0  0  0  0  0  0  0  0  0
    1.2263   -2.8301    1.8600 C   0  0  0  0  0  0  0  0  0  0  0  0
    1.1518   -4.1147    2.3284 C   0  0  0  0  0  0  0  0  0  0  0  0
    0.1737  -10.4183    3.8002 Cl  0  0  0  0  0  0  0  0  0  0  0  0
   -1.5370   -2.7966   -0.6289 O   0  0  0  0  0  0  0  0  0  0  0  0
   -2.0687   -1.6969   -0.5706 C   0  0  0  0  0  0  0  0  0  0  0  0
   -2.7301   -1.4847   -1.7386 C   0  0  0  0  0  0  0  0  0  0  0  0
   -2.7990   -2.3486   -2.6608 C   0  0  0  0  0  0  0  0  0  0  0  0
  6  7  1  0
  3 13  1  0
  9 14  1  0
 14 15  1  0
 15 16  1  0
 16 17  1  0
  1  2  2  0
  2  6  1  0
  5  6  2  0
  4  5  1  0
  3  4  2  0
  1  3  1  0
  7  8  2  0
  8  9  1  0
  9 10  2  0
 10 11  1  0
 11 12  2  0
  7 12  1  0
M  END

$$$$
No_4596-/export/home/yangzhenyu/potential_scad_32_flow//YTHDC2/2024-12-06-03-22-00/
     RDKit          3D

 17 18  0  0  1  0  0  0  0  0999 V2000
    1.1787   -8.0297    3.5154 C   0  0  0  0  0  0  0  0  0  0  0  0
    1.1048   -9.2215    3.2892 C   0  0  0  0  0  0  0  0  0  0  0  0
    1.2339   -9.7611    2.0189 C   0  0  0  0  0  0  0  0  0  0  0  0
    1.3583   -9.0036    0.9764 C   0  0  0  0  0  0  0  0  0  0  0  0
    1.5996   -7.6362    1.1311 C   0  0  0  0  0  0  0  0  0  0  0  0
    1.4830   -7.0928    2.3626 C   0  0  0  0  0  0  0  0  0  0  0  0
    1.4898   -5.7274    2.6199 C   0  0  0  0  0  0  0  0  0  0  0  0
    1.1882  -11.3736    1.8424 C   0  0  0  0  0  0  0  0  0  0  0  0
    1.0670  -11.6643    0.5390 C   0  0  0  0  0  0  0  0  0  0  0  0
    1.0178  -13.1173    0.5007 C   0  0  0  0  0  0  0  0  0  0  0  0
    0.9325  -13.9108    1.5000 C   0  0  2  0  0  0  0  0  0  0  0  0
    1.2011  -13.4411    2.7794 C   0  0  0  0  0  0  0  0  0  0  0  0
    1.2802  -12.0548    2.9649 C   0  0  0  0  0  0  0  0  0  0  0  0
    1.6924   -5.1770    3.8642 N   0  0  0  0  0  0  0  0  0  0  0  0
    1.0142   -4.8554    1.6623 O   0  0  0  0  0  0  0  0  0  0  0  0
    1.5082  -11.5156    4.2056 O   0  0  0  0  0  0  0  0  0  0  0  0
    0.9461  -15.3427    1.4364 N   0  0  0  0  0  0  0  0  0  0  0  0
  6  7  1  0
  3  8  1  0
  8  9  1  0
 10 11  1  0
  8 13  1  0
 12 13  1  0
  7 14  1  0
  7 15  2  0
 13 16  2  0
 11 17  1  6
  9 10  1  0
 11 12  1  0
  1  2  2  0
  2  3  1  0
  3  4  2  0
  4  5  1  0
  5  6  2  0
  1  6  1  0
M  END

$$$$
No_4597-/export/home/yangzhenyu/potential_scad_32_flow//YTHDC2/2024-12-06-03-22-00/
     RDKit          3D

 19 20  0  0  1  0  0  0  0  0999 V2000
    1.1787   -8.0297    3.5154 C   0  0  0  0  0  0  0  0  0  0  0  0
    1.0491   -6.8434    2.9820 C   0  0  0  0  0  0  0  0  0  0  0  0
    0.9905   -9.0774    2.6527 C   0  0  2  0  0  0  0  0  0  0  0  0
    1.1655  -10.4663    3.1286 C   0  0  0  0  0  0  0  0  0  0  0  0
    1.2197  -11.4898    2.5831 S   0  0  0  0  0  0  0  0  0  0  0  0
    0.9831  -11.0653    1.0665 C   0  0  0  0  0  0  0  0  0  0  0  0
    0.8803  -10.0362    0.4490 C   0  0  0  0  0  0  0  0  0  0  0  0
    0.9228   -8.8442    1.2880 C   0  0  2  0  0  0  0  0  0  0  0  0
    1.0877   -6.5353    1.5855 C   0  0  1  0  0  0  0  0  0  0  0  0
    0.9999   -7.5896    0.7419 C   0  0  0  0  0  0  0  0  0  0  0  0
    1.4209  -10.3981    4.6455 O   0  0  0  0  0  0  0  0  0  0  0  0
    1.0643   -5.2006    1.1015 O   0  0  0  0  0  0  0  0  0  0  0  0
    0.5412   -4.1580    1.7968 C   0  0  0  0  0  0  0  0  0  0  0  0
    1.0675   -7.4414   -0.4557 O   0  0  0  0  0  0  0  0  0  0  0  0
   -0.8123   -3.9821    1.5524 C   0  0  0  0  0  0  0  0  0  0  0  0
   -1.5610   -4.3195    2.5771 N   0  0  0  0  0  0  0  0  0  0  0  0
   -2.3787   -5.3320    2.5675 C   0  0  0  0  0  0  0  0  0  0  0  0
   -2.9460   -5.8535    3.8165 C   0  0  0  0  0  0  0  0  0  0  0  0
   -3.5702   -6.9177    4.0753 C   0  0  0  0  0  0  0  0  0  0  0  0
  1  2  1  0
  3  4  1  0
  4  5  1  0
  5  6  1  0
  6  7  2  0
  3  8  1  0
  8  7  1  6
  8 10  1  0
  9 10  1  0
  4 11  2  0
  9 12  1  6
 12 13  1  0
 10 14  2  0
 13 15  1  0
 15 16  1  0
 16 17  1  0
 17 18  1  0
 18 19  2  0
  3  1  1  6
  2  9  1  0
M  END

$$$$
No_4598-/export/home/yangzhenyu/potential_scad_32_flow//YTHDC2/2024-12-06-03-22-00/
     RDKit          3D

 18 20  0  0  0  0  0  0  0  0999 V2000
    1.1787   -8.0297    3.5154 C   0  0  0  0  0  0  0  0  0  0  0  0
    1.1048   -9.2215    3.2892 C   0  0  0  0  0  0  0  0  0  0  0  0
    1.2339   -9.7611    2.0189 C   0  0  0  0  0  0  0  0  0  0  0  0
    1.3583   -9.0036    0.9764 C   0  0  0  0  0  0  0  0  0  0  0  0
    1.5996   -7.6362    1.1311 C   0  0  0  0  0  0  0  0  0  0  0  0
    1.4830   -7.0928    2.3626 C   0  0  0  0  0  0  0  0  0  0  0  0
    1.1008  -11.2372    1.8542 C   0  0  0  0  0  0  0  0  0  0  0  0
    0.4812  -11.6084    0.6459 C   0  0  0  0  0  0  0  0  0  0  0  0
   -0.6166  -12.2864    0.7859 C   0  0  0  0  0  0  0  0  0  0  0  0
   -1.4513  -12.6828   -0.2947 C   0  0  0  0  0  0  0  0  0  0  0  0
   -1.7844  -13.9417   -0.4310 C   0  0  0  0  0  0  0  0  0  0  0  0
   -1.5483  -14.7669    0.1414 C   0  0  0  0  0  0  0  0  0  0  0  0
   -0.8042  -14.6170    1.4633 C   0  0  0  0  0  0  0  0  0  0  0  0
   -0.3076  -13.4141    1.6913 C   0  0  0  0  0  0  0  0  0  0  0  0
    0.3776  -13.0644    2.8065 C   0  0  0  0  0  0  0  0  0  0  0  0
    1.2382  -11.9524    2.8858 C   0  0  0  0  0  0  0  0  0  0  0  0
    1.5590   -5.6542    2.6628 O   0  0  0  0  0  0  0  0  0  0  0  0
    2.0185  -11.7906    3.8748 C   0  0  0  0  0  0  0  0  0  0  0  0
  3  7  1  0
  6 17  1  0
 16 18  1  0
  1  2  2  0
  2  3  1  0
  3  4  2  0
  4  5  1  0
  5  6  2  0
  1  6  1  0
  7  8  2  0
  8  9  1  0
 14 15  1  0
 15 16  2  0
  7 16  1  0
  9 10  2  0
 10 11  1  0
 11 12  2  0
 12 13  1  0
 13 14  2  0
  9 14  1  0
M  END

$$$$
No_4599-/export/home/yangzhenyu/potential_scad_32_flow//YTHDC2/2024-12-06-03-22-00/
     RDKit          3D

 19 21  0  0  0  0  0  0  0  0999 V2000
    1.1787   -8.0297    3.5154 C   0  0  0  0  0  0  0  0  0  0  0  0
    1.1048   -9.2215    3.2892 C   0  0  0  0  0  0  0  0  0  0  0  0
    1.3627  -10.1721    4.3044 C   0  0  0  0  0  0  0  0  0  0  0  0
    1.0682  -11.5187    4.0618 C   0  0  0  0  0  0  0  0  0  0  0  0
    0.6332  -11.9655    2.9682 C   0  0  0  0  0  0  0  0  0  0  0  0
    0.4776  -11.1308    1.9203 C   0  0  0  0  0  0  0  0  0  0  0  0
    0.7470   -9.8274    2.0368 C   0  0  0  0  0  0  0  0  0  0  0  0
    1.0387   -7.0301    2.5175 C   0  0  0  0  0  0  0  0  0  0  0  0
    0.9130   -7.5288    1.2013 C   0  0  0  0  0  0  0  0  0  0  0  0
    0.7893   -8.7979    0.9542 C   0  0  0  0  0  0  0  0  0  0  0  0
    0.3998  -13.3695    2.7114 C   0  0  0  0  0  0  0  0  0  0  0  0
    1.2819  -14.3216    3.1282 C   0  0  0  0  0  0  0  0  0  0  0  0
    1.0706  -15.6831    2.9801 C   0  0  0  0  0  0  0  0  0  0  0  0
    0.0717  -16.1401    2.3139 C   0  0  0  0  0  0  0  0  0  0  0  0
   -0.7630  -15.2846    1.7460 C   0  0  0  0  0  0  0  0  0  0  0  0
   -0.5521  -13.9245    1.9034 C   0  0  0  0  0  0  0  0  0  0  0  0
    0.4430   -9.2662   -0.3652 Cl  0  0  0  0  0  0  0  0  0  0  0  0
    1.2917   -5.5883    2.6533 Br  0  0  0  0  0  0  0  0  0  0  0  0
   -0.1209  -17.7207    2.2615 O   0  0  0  0  0  0  0  0  0  0  0  0
  5 11  1  0
 10 17  1  0
  8 18  1  0
 14 19  1  0
 11 12  2  0
 12 13  1  0
 13 14  2  0
 14 15  1  0
 15 16  2  0
 11 16  1  0
  2  3  1  0
  3  4  2  0
  4  5  1  0
  5  6  2  0
  6  7  1  0
  1  2  2  0
  2  7  1  0
  7 10  2  0
  9 10  1  0
  8  9  2  0
  1  8  1  0
M  END

$$$$
No_4600-/export/home/yangzhenyu/potential_scad_32_flow//YTHDC2/2024-12-06-03-22-00/
     RDKit          3D

 15 16  0  0  1  0  0  0  0  0999 V2000
    1.1787   -8.0297    3.5154 C   0  0  0  0  0  0  0  0  0  0  0  0
    1.1048   -9.2215    3.2892 C   0  0  0  0  0  0  0  0  0  0  0  0
    1.2339   -9.7611    2.0189 C   0  0  0  0  0  0  0  0  0  0  0  0
    1.3583   -9.0036    0.9764 C   0  0  0  0  0  0  0  0  0  0  0  0
    1.5996   -7.6362    1.1311 C   0  0  0  0  0  0  0  0  0  0  0  0
    1.4830   -7.0928    2.3626 C   0  0  0  0  0  0  0  0  0  0  0  0
    1.1008  -11.2372    1.8542 C   0  0  1  0  0  0  0  0  0  0  0  0
    0.4812  -11.6084    0.6459 C   0  0  0  0  0  0  0  0  0  0  0  0
    0.5134  -13.0269    0.4830 C   0  0  0  0  0  0  0  0  0  0  0  0
    1.2057  -13.8685    1.2734 C   0  0  0  0  0  0  0  0  0  0  0  0
    1.9819  -13.3990    2.3594 C   0  0  0  0  0  0  0  0  0  0  0  0
    1.8610  -12.0988    2.6716 C   0  0  0  0  0  0  0  0  0  0  0  0
    2.5652  -11.6133    3.6969 O   0  0  0  0  0  0  0  0  0  0  0  0
    1.5569   -5.6491    2.6439 N   0  0  0  0  0  0  0  0  0  0  0  0
    1.0383   -4.7037    1.8913 O   0  0  0  0  0  0  0  0  0  0  0  0
  7  3  1  6
  7  8  1  0
  9 10  1  0
  7 12  1  0
 11 12  1  0
 12 13  2  0
  6 14  1  0
 14 15  2  0
  8  9  1  0
 10 11  1  0
  1  2  2  0
  2  3  1  0
  3  4  2  0
  4  5  1  0
  5  6  2  0
  1  6  1  0
M  END

$$$$
No_4601-/export/home/yangzhenyu/potential_scad_32_flow//YTHDC2/2024-12-06-03-22-00/
     RDKit          3D

 17 17  0  0  1  0  0  0  0  0999 V2000
    1.1787   -8.0297    3.5154 O   0  0  0  0  0  0  0  0  0  0  0  0
    0.9969   -8.9689    3.0048 C   0  0  1  0  0  0  0  0  0  0  0  0
    1.3055  -10.1056    3.6616 C   0  0  0  0  0  0  0  0  0  0  0  0
    2.1315  -10.4529    4.2438 C   0  0  0  0  0  0  0  0  0  0  0  0
   -0.0205   -8.7946    1.9507 C   0  0  0  0  0  0  0  0  0  0  0  0
    0.7197   -8.4831    0.7554 C   0  0  0  0  0  0  0  0  0  0  0  0
    1.4319   -9.1473    0.2929 C   0  0  0  0  0  0  0  0  0  0  0  0
    2.3066   -9.4264   -0.1331 O   0  0  0  0  0  0  0  0  0  0  0  0
    0.7544  -10.5634    0.1659 O   0  0  0  0  0  0  0  0  0  0  0  0
    2.5251  -11.8231    4.7976 C   0  0  0  0  0  0  0  0  0  0  0  0
    0.6614  -11.4844    2.9631 C   0  0  0  0  0  0  0  0  0  0  0  0
    1.1732  -12.6691    3.3122 C   0  0  0  0  0  0  0  0  0  0  0  0
    2.0758  -12.8959    4.2050 N   0  0  0  0  0  0  0  0  0  0  0  0
    0.4716  -13.8585    2.7986 C   0  0  0  0  0  0  0  0  0  0  0  0
    1.0088  -15.1323    3.2673 C   0  0  0  0  0  0  0  0  0  0  0  0
    1.7601  -15.9314    2.2469 C   0  0  0  0  0  0  0  0  0  0  0  0
    2.3522  -17.0927    2.6081 C   0  0  0  0  0  0  0  0  0  0  0  0
  2  1  1  1
  2  3  1  0
  2  5  1  0
  5  6  1  0
  6  7  1  0
  7  8  2  0
  7  9  1  0
 12 14  1  0
 14 15  1  0
 15 16  1  0
 16 17  1  0
  3  4  2  0
  4 10  1  0
 10 13  2  0
 12 13  1  0
 11 12  2  0
  3 11  1  0
M  END

$$$$
No_4602-/export/home/yangzhenyu/potential_scad_32_flow//YTHDC2/2024-12-06-03-22-00/
     RDKit          3D

 11 11  0  0  0  0  0  0  0  0999 V2000
    1.1787   -8.0297    3.5154 C   0  0  0  0  0  0  0  0  0  0  0  0
    1.0491   -6.8434    2.9820 C   0  0  0  0  0  0  0  0  0  0  0  0
    0.0950   -8.8404    3.2292 C   0  0  0  0  0  0  0  0  0  0  0  0
   -0.9173   -8.4596    2.5152 C   0  0  0  0  0  0  0  0  0  0  0  0
   -1.0331   -7.2162    2.0653 C   0  0  0  0  0  0  0  0  0  0  0  0
   -0.0105   -6.3168    2.3081 C   0  0  0  0  0  0  0  0  0  0  0  0
    0.1465  -10.2446    3.6981 S   0  0  0  0  0  0  0  0  0  0  0  0
   -1.0557  -10.6666    4.1668 O   0  0  0  0  0  0  0  0  0  0  0  0
    1.0921  -10.4216    5.0205 C   0  0  0  0  0  0  0  0  0  0  0  0
    0.4899  -11.1722    2.6041 O   0  0  0  0  0  0  0  0  0  0  0  0
   -0.0597   -4.9769    1.8861 Cl  0  0  0  0  0  0  0  0  0  0  0  0
  3  7  1  0
  7  8  2  0
  7  9  1  0
  7 10  2  0
  6 11  1  0
  1  2  2  0
  2  6  1  0
  5  6  2  0
  4  5  1  0
  3  4  2  0
  1  3  1  0
M  END

$$$$
No_4603-/export/home/yangzhenyu/potential_scad_32_flow//YTHDC2/2024-12-06-03-22-00/
     RDKit          3D

 20 20  0  0  1  0  0  0  0  0999 V2000
    1.1787   -8.0297    3.5154 O   0  0  0  0  0  0  0  0  0  0  0  0
    0.9969   -8.9689    3.0048 C   0  0  0  0  0  0  0  0  0  0  0  0
    1.3055  -10.1056    3.6616 C   0  0  0  0  0  0  0  0  0  0  0  0
    1.5709  -11.1115    3.2016 C   0  0  0  0  0  0  0  0  0  0  0  0
    1.6332  -11.2629    1.7349 C   0  0  0  0  0  0  0  0  0  0  0  0
    1.4616  -10.1742    0.9691 C   0  0  0  0  0  0  0  0  0  0  0  0
    1.1252   -9.0006    1.6051 C   0  0  0  0  0  0  0  0  0  0  0  0
    0.8275   -7.7749    1.0285 C   0  0  0  0  0  0  0  0  0  0  0  0
    1.3414   -6.7053    1.3717 O   0  0  0  0  0  0  0  0  0  0  0  0
   -0.0358   -7.6937    0.0328 O   0  0  0  0  0  0  0  0  0  0  0  0
    1.8958  -12.4221    3.8115 C   0  0  0  0  0  0  0  0  0  0  0  0
    1.9401  -13.3911    3.2214 N   0  0  0  0  0  0  0  0  0  0  0  0
    1.3758  -14.2891    2.7980 C   0  0  0  0  0  0  0  0  0  0  0  0
    1.6722  -15.5221    2.1437 C   0  0  2  0  0  0  0  0  0  0  0  0
    3.0560  -15.6410    1.8194 C   0  0  0  0  0  0  0  0  0  0  0  0
    0.8805  -16.4601    1.7654 C   0  0  0  0  0  0  0  0  0  0  0  0
    1.0786  -17.6979    2.2729 C   0  0  0  0  0  0  0  0  0  0  0  0
    0.7661  -17.9062    3.5634 C   0  0  0  0  0  0  0  0  0  0  0  0
    0.0134  -14.4115    3.3283 O   0  0  0  0  0  0  0  0  0  0  0  0
   -0.3061  -17.5340    4.0100 C   0  0  0  0  0  0  0  0  0  0  0  0
  1  2  1  0
  7  8  1  0
  8  9  1  0
  8 10  2  0
  4 11  1  0
 11 12  2  3
 12 13  1  0
 13 14  1  0
 14 15  1  6
 14 16  1  0
 16 17  1  0
 17 18  1  0
 13 19  2  0
 18 20  1  0
  2  3  2  0
  3  4  1  0
  4  5  2  0
  5  6  1  0
  6  7  2  0
  2  7  1  0
M  END

$$$$
No_4604-/export/home/yangzhenyu/potential_scad_32_flow//YTHDC2/2024-12-06-03-22-00/
     RDKit          3D

 17 18  0  0  1  0  0  0  0  0999 V2000
    1.1787   -8.0297    3.5154 C   0  0  0  0  0  0  0  0  0  0  0  0
    1.0491   -6.8434    2.9820 C   0  0  0  0  0  0  0  0  0  0  0  0
    0.0950   -8.8404    3.2292 C   0  0  0  0  0  0  0  0  0  0  0  0
   -0.7663   -8.2602    2.4375 C   0  0  0  0  0  0  0  0  0  0  0  0
   -0.3589   -6.8665    2.1913 C   0  0  0  0  0  0  0  0  0  0  0  0
    0.1246  -10.2854    3.6319 C   0  0  0  0  0  0  0  0  0  0  0  0
   -1.1676  -10.8046    3.7416 O   0  0  0  0  0  0  0  0  0  0  0  0
    1.0868  -10.8771    4.2194 N   0  0  0  0  0  0  0  0  0  0  0  0
    1.0742  -12.2823    4.4544 C   0  0  0  0  0  0  0  0  0  0  0  0
    1.4404  -12.9638    3.0861 C   0  0  1  0  0  0  0  0  0  0  0  0
    1.4304  -14.4069    3.1522 O   0  0  0  0  0  0  0  0  0  0  0  0
    1.2040  -15.0040    2.0633 C   0  0  0  0  0  0  0  0  0  0  0  0
    0.8315  -14.2291    1.0772 C   0  0  0  0  0  0  0  0  0  0  0  0
    0.9441  -12.7414    1.7403 C   0  0  0  0  0  0  0  0  0  0  0  0
    1.3365  -16.3042    2.0651 C   0  0  0  0  0  0  0  0  0  0  0  0
    2.4452  -16.8790    2.5459 O   0  0  0  0  0  0  0  0  0  0  0  0
    0.5630  -17.1974    1.5509 O   0  0  0  0  0  0  0  0  0  0  0  0
  1  2  1  0
  1  3  2  0
  3  4  1  0
  2  5  2  0
  4  5  1  0
  3  6  1  0
  6  7  2  0
  6  8  1  0
  8  9  1  0
 10  9  1  1
 10 11  1  0
 11 12  1  0
 12 13  1  0
 10 14  1  0
 13 14  1  0
 12 15  1  0
 15 16  2  0
 15 17  1  0
M  END

$$$$
No_4605-/export/home/yangzhenyu/potential_scad_32_flow//YTHDC2/2024-12-06-03-22-00/
     RDKit          3D

 17 17  0  0  1  0  0  0  0  0999 V2000
    1.1787   -8.0297    3.5154 O   0  0  0  0  0  0  0  0  0  0  0  0
    0.6747   -7.4019    2.7838 C   0  0  0  0  0  0  0  0  0  0  0  0
    0.5570   -6.0797    2.8560 C   0  0  0  0  0  0  0  0  0  0  0  0
   -0.2158   -5.3007    2.0284 C   0  0  0  0  0  0  0  0  0  0  0  0
   -0.8260   -5.9169    1.0290 C   0  0  0  0  0  0  0  0  0  0  0  0
   -0.6925   -7.2407    0.8216 C   0  0  0  0  0  0  0  0  0  0  0  0
    0.1645   -8.0156    1.6621 C   0  0  0  0  0  0  0  0  0  0  0  0
    0.4049   -9.3434    1.4877 C   0  0  1  0  0  0  0  0  0  0  0  0
    1.4848   -9.6364    0.5257 C   0  0  0  0  0  0  0  0  0  0  0  0
    1.9880  -10.8099    0.3816 O   0  0  0  0  0  0  0  0  0  0  0  0
    1.9837   -8.7189   -0.4097 O   0  0  0  0  0  0  0  0  0  0  0  0
   -1.6670   -5.1725    0.1366 C   0  0  0  0  0  0  0  0  0  0  0  0
   -2.6838   -5.7585   -0.5215 O   0  0  0  0  0  0  0  0  0  0  0  0
   -1.5480   -3.8411    0.0001 O   0  0  0  0  0  0  0  0  0  0  0  0
   -0.0528  -10.3602    2.0084 C   0  0  0  0  0  0  0  0  0  0  0  0
   -0.9990  -10.4043    2.7755 C   0  0  0  0  0  0  0  0  0  0  0  0
   -1.6807  -11.4675    3.4170 C   0  0  0  0  0  0  0  0  0  0  0  0
  1  2  1  0
  7  8  1  0
  8  9  1  1
  9 10  2  0
  9 11  1  0
  5 12  1  0
 12 13  2  0
 12 14  1  0
  8 15  1  0
 15 16  2  3
 16 17  1  0
  2  3  2  0
  3  4  1  0
  4  5  2  0
  5  6  1  0
  6  7  2  0
  2  7  1  0
M  END

$$$$
No_4606-/export/home/yangzhenyu/potential_scad_32_flow//YTHDC2/2024-12-06-03-22-00/
     RDKit          3D

 18 19  0  0  1  0  0  0  0  0999 V2000
    1.1787   -8.0297    3.5154 N   0  0  0  0  0  0  0  0  0  0  0  0
    1.0818   -9.0751    3.2053 C   0  0  0  0  0  0  0  0  0  0  0  0
    1.5216  -10.1164    3.9747 C   0  0  0  0  0  0  0  0  0  0  0  0
    1.4420  -11.4363    3.6461 C   0  0  0  0  0  0  0  0  0  0  0  0
    0.5969  -11.7648    2.6785 C   0  0  0  0  0  0  0  0  0  0  0  0
    0.0096  -10.8332    1.9506 C   0  0  0  0  0  0  0  0  0  0  0  0
    0.3359   -9.5186    2.1388 C   0  0  0  0  0  0  0  0  0  0  0  0
    0.8819   -6.9011    2.6487 C   0  0  2  0  0  0  0  0  0  0  0  0
    0.4076   -7.2265    1.4607 N   0  0  0  0  0  0  0  0  0  0  0  0
    0.0633   -8.4448    1.1740 C   0  0  0  0  0  0  0  0  0  0  0  0
   -0.4997   -8.6880    0.0350 O   0  0  0  0  0  0  0  0  0  0  0  0
    1.2867   -5.5457    3.0370 C   0  0  0  0  0  0  0  0  0  0  0  0
    0.3445  -13.1890    2.4006 C   0  0  2  0  0  0  0  0  0  0  0  0
   -0.9149  -13.6055    2.2587 N   0  0  0  0  0  0  0  0  0  0  0  0
    1.4131  -14.1011    2.3533 C   0  0  0  0  0  0  0  0  0  0  0  0
    2.6550  -13.9063    2.0492 N   0  0  0  0  0  0  0  0  0  0  0  0
    1.0930  -15.3844    2.6361 O   0  0  0  0  0  0  0  0  0  0  0  0
   -1.7504  -13.7249    3.2945 C   0  0  0  0  0  0  0  0  0  0  0  0
  1  2  1  0
  8  9  1  0
  7 10  1  0
  9 10  1  0
 10 11  2  0
  8 12  1  6
  5 13  1  0
 13 14  1  1
 13 15  1  0
 15 16  1  0
 15 17  2  0
 14 18  1  0
  1  8  1  0
  2  3  2  0
  3  4  1  0
  4  5  2  0
  5  6  1  0
  6  7  2  0
  2  7  1  0
M  END

$$$$
No_4607-/export/home/yangzhenyu/potential_scad_32_flow//YTHDC2/2024-12-06-03-22-00/
     RDKit          3D

 19 21  0  0  0  0  0  0  0  0999 V2000
    1.1787   -8.0297    3.5154 C   0  0  0  0  0  0  0  0  0  0  0  0
    1.1048   -9.2215    3.2892 C   0  0  0  0  0  0  0  0  0  0  0  0
    1.3627  -10.1721    4.3044 C   0  0  0  0  0  0  0  0  0  0  0  0
    1.7354  -11.4730    3.9023 C   0  0  0  0  0  0  0  0  0  0  0  0
    1.8080  -11.8127    2.7216 C   0  0  0  0  0  0  0  0  0  0  0  0
    1.5854  -11.0021    1.7249 C   0  0  0  0  0  0  0  0  0  0  0  0
    1.3573   -9.7389    1.9287 C   0  0  0  0  0  0  0  0  0  0  0  0
    1.1102   -8.8712    0.9017 C   0  0  0  0  0  0  0  0  0  0  0  0
    0.5299   -7.6926    1.0325 N   0  0  0  0  0  0  0  0  0  0  0  0
    0.7581   -7.1384    2.2739 C   0  0  0  0  0  0  0  0  0  0  0  0
    0.5327   -5.7157    2.4442 C   0  0  0  0  0  0  0  0  0  0  0  0
    2.0684  -13.2594    2.4320 C   0  0  0  0  0  0  0  0  0  0  0  0
    1.9456  -14.1986    3.2601 C   0  0  0  0  0  0  0  0  0  0  0  0
    2.0975  -15.5498    2.7886 C   0  0  0  0  0  0  0  0  0  0  0  0
    2.6057  -15.7193    1.5361 C   0  0  0  0  0  0  0  0  0  0  0  0
    2.8256  -14.8030    0.6969 C   0  0  0  0  0  0  0  0  0  0  0  0
    2.5215  -13.4635    1.0781 C   0  0  0  0  0  0  0  0  0  0  0  0
    1.5577   -9.2050   -0.5178 C   0  0  0  0  0  0  0  0  0  0  0  0
   -0.6088   -5.1671    2.1299 Cl  0  0  0  0  0  0  0  0  0  0  0  0
 10 11  1  0
  5 12  1  0
  8 18  1  0
 11 19  1  0
  1  2  2  0
  7  8  2  0
  8  9  1  0
  9 10  2  0
  1 10  1  0
  2  3  1  0
  3  4  2  0
  4  5  1  0
  5  6  2  0
  6  7  1  0
  2  7  1  0
 12 13  2  0
 13 14  1  0
 14 15  2  0
 15 16  1  0
 16 17  2  0
 12 17  1  0
M  END

$$$$
No_4608-/export/home/yangzhenyu/potential_scad_32_flow//YTHDC2/2024-12-06-03-22-00/
     RDKit          3D

 13 14  0  0  0  0  0  0  0  0999 V2000
    1.1787   -8.0297    3.5154 C   0  0  0  0  0  0  0  0  0  0  0  0
    1.0491   -6.8434    2.9820 C   0  0  0  0  0  0  0  0  0  0  0  0
    0.0950   -8.8404    3.2292 C   0  0  0  0  0  0  0  0  0  0  0  0
   -0.9173   -8.4596    2.5152 C   0  0  0  0  0  0  0  0  0  0  0  0
   -1.0331   -7.2162    2.0653 C   0  0  0  0  0  0  0  0  0  0  0  0
   -0.0105   -6.3168    2.3081 C   0  0  0  0  0  0  0  0  0  0  0  0
    0.1465  -10.2446    3.6981 C   0  0  0  0  0  0  0  0  0  0  0  0
   -1.0337  -10.8619    3.9439 C   0  0  0  0  0  0  0  0  0  0  0  0
   -2.1702  -10.4673    3.2991 C   0  0  0  0  0  0  0  0  0  0  0  0
   -2.1358   -9.2084    2.5791 C   0  0  0  0  0  0  0  0  0  0  0  0
   -3.3468  -11.1306    3.2649 C   0  0  0  0  0  0  0  0  0  0  0  0
   -0.0443   -4.9791    1.8066 C   0  0  0  0  0  0  0  0  0  0  0  0
    0.8367   -4.0961    2.2091 N   0  0  0  0  0  0  0  0  0  0  0  0
  9 11  1  0
  6 12  1  0
 12 13  1  0
  4 10  2  0
  9 10  1  0
  8  9  2  0
  7  8  1  0
  3  7  2  0
  1  2  2  0
  2  6  1  0
  5  6  2  0
  4  5  1  0
  3  4  1  0
  1  3  1  0
M  END

$$$$
No_4609-/export/home/yangzhenyu/potential_scad_32_flow//YTHDC2/2024-12-06-03-22-00/
     RDKit          3D

 19 21  0  0  0  0  0  0  0  0999 V2000
    1.1787   -8.0297    3.5154 C   0  0  0  0  0  0  0  0  0  0  0  0
    1.1048   -9.2215    3.2892 C   0  0  0  0  0  0  0  0  0  0  0  0
    1.2339   -9.7611    2.0189 C   0  0  0  0  0  0  0  0  0  0  0  0
    1.3583   -9.0036    0.9764 C   0  0  0  0  0  0  0  0  0  0  0  0
    1.5996   -7.6362    1.1311 C   0  0  0  0  0  0  0  0  0  0  0  0
    1.4830   -7.0928    2.3626 C   0  0  0  0  0  0  0  0  0  0  0  0
    1.5395   -5.7300    2.6182 C   0  0  0  0  0  0  0  0  0  0  0  0
    1.1775  -11.2233    1.8407 C   0  0  0  0  0  0  0  0  0  0  0  0
    1.9057  -12.1147    2.3397 C   0  0  0  0  0  0  0  0  0  0  0  0
    1.6867  -13.4551    2.0621 C   0  0  0  0  0  0  0  0  0  0  0  0
    0.7025  -13.8511    1.3021 C   0  0  0  0  0  0  0  0  0  0  0  0
    0.3694  -15.1217    0.8861 C   0  0  0  0  0  0  0  0  0  0  0  0
   -0.0835  -12.8315    0.7767 C   0  0  0  0  0  0  0  0  0  0  0  0
   -1.0508  -13.3653   -0.2342 C   0  0  0  0  0  0  0  0  0  0  0  0
   -1.0994  -14.6260   -0.6099 C   0  0  0  0  0  0  0  0  0  0  0  0
   -0.3429  -15.5560   -0.0148 C   0  0  0  0  0  0  0  0  0  0  0  0
    0.0969  -11.6896    1.0059 C   0  0  0  0  0  0  0  0  0  0  0  0
    1.2917   -4.8063    1.6856 O   0  0  0  0  0  0  0  0  0  0  0  0
    1.5133   -5.1745    3.9073 O   0  0  0  0  0  0  0  0  0  0  0  0
  6  7  1  0
  3  8  1  0
  7 18  2  0
  7 19  1  0
  1  2  2  0
  2  3  1  0
  3  4  2  0
  4  5  1  0
  5  6  2  0
  1  6  1  0
  8  9  2  0
  9 10  1  0
 10 11  2  0
 13 17  2  0
  8 17  1  0
 11 12  1  0
 12 16  2  0
 15 16  1  0
 14 15  2  0
 13 14  1  0
 11 13  1  0
M  END

$$$$
No_4610-/export/home/yangzhenyu/potential_scad_32_flow//YTHDC2/2024-12-06-03-22-00/
     RDKit          3D

 19 20  0  0  1  0  0  0  0  0999 V2000
    1.1787   -8.0297    3.5154 C   0  0  0  0  0  0  0  0  0  0  0  0
    1.1048   -9.2215    3.2892 C   0  0  0  0  0  0  0  0  0  0  0  0
    1.2339   -9.7611    2.0189 C   0  0  0  0  0  0  0  0  0  0  0  0
    1.3583   -9.0036    0.9764 C   0  0  0  0  0  0  0  0  0  0  0  0
    1.5996   -7.6362    1.1311 C   0  0  0  0  0  0  0  0  0  0  0  0
    1.4830   -7.0928    2.3626 C   0  0  0  0  0  0  0  0  0  0  0  0
    1.1171  -11.3311    1.8661 C   0  0  1  0  0  0  0  0  0  0  0  0
    0.5022  -11.6388    0.6531 C   0  0  0  0  0  0  0  0  0  0  0  0
   -0.4019  -11.0045    0.0890 C   0  0  0  0  0  0  0  0  0  0  0  0
   -1.0458  -11.4180   -1.0837 C   0  0  0  0  0  0  0  0  0  0  0  0
   -2.2045  -11.1746   -1.3389 N   0  0  0  0  0  0  0  0  0  0  0  0
    1.8413  -12.0343    2.6932 C   0  0  0  0  0  0  0  0  0  0  0  0
    1.7689  -13.3883    2.3619 C   0  0  0  0  0  0  0  0  0  0  0  0
    0.9236  -14.1787    3.2466 C   0  0  0  0  0  0  0  0  0  0  0  0
    0.5103  -15.4084    2.7480 C   0  0  0  0  0  0  0  0  0  0  0  0
    0.8568  -15.9854    1.6786 C   0  0  0  0  0  0  0  0  0  0  0  0
    1.6794  -15.2050    0.7843 C   0  0  0  0  0  0  0  0  0  0  0  0
    2.1227  -13.9259    1.2077 C   0  0  0  0  0  0  0  0  0  0  0  0
   -2.7646  -10.6442   -0.6869 H   0  0  0  0  0  0  0  0  0  0  0  0
  3  7  1  0
  7  8  1  0
  8  9  2  3
  9 10  1  0
 10 11  2  0
  7 12  1  6
 12 13  1  0
  1  2  2  0
  2  3  1  0
  3  4  2  0
  4  5  1  0
  5  6  2  0
  1  6  1  0
 13 14  2  0
 14 15  1  0
 15 16  2  0
 16 17  1  0
 17 18  2  0
 13 18  1  0
 11 19  1  0
M  END

$$$$
No_4611-/export/home/yangzhenyu/potential_scad_32_flow//YTHDC2/2024-12-06-03-22-00/
     RDKit          3D

 18 19  0  0  1  0  0  0  0  0999 V2000
    1.1787   -8.0297    3.5154 C   0  0  0  0  0  0  0  0  0  0  0  0
    1.0491   -6.8434    2.9820 C   0  0  0  0  0  0  0  0  0  0  0  0
    0.9905   -9.0774    2.6527 C   0  0  0  0  0  0  0  0  0  0  0  0
    0.7897   -8.9519    1.3691 C   0  0  0  0  0  0  0  0  0  0  0  0
    0.7018   -7.7198    0.7892 C   0  0  0  0  0  0  0  0  0  0  0  0
    0.8918   -6.5957    1.6117 C   0  0  0  0  0  0  0  0  0  0  0  0
    1.0711  -10.4814    3.2282 C   0  0  1  0  0  0  0  0  0  0  0  0
    1.1227  -11.5770    2.4616 C   0  0  1  0  0  0  0  0  0  0  0  0
    1.0412  -11.3415    1.0713 C   0  0  0  0  0  0  0  0  0  0  0  0
    1.0019  -10.1422    0.5249 C   0  0  0  0  0  0  0  0  0  0  0  0
    1.3198  -12.8659    2.9879 C   0  0  0  0  0  0  0  0  0  0  0  0
    0.2366  -13.8156    2.8166 Cl  0  0  0  0  0  0  0  0  0  0  0  0
    0.7272   -5.0726    1.0436 O   0  0  0  0  0  0  0  0  0  0  0  0
    0.6809  -10.0160   -0.7720 O   0  0  0  0  0  0  0  0  0  0  0  0
    0.3555   -4.2042    1.9734 C   0  0  0  0  0  0  0  0  0  0  0  0
    1.3389  -10.5345    4.6426 Cl  0  0  0  0  0  0  0  0  0  0  0  0
   -1.0206   -4.0047    1.9461 C   0  0  0  0  0  0  0  0  0  0  0  0
   -1.4332   -3.4438    3.1608 C   0  0  0  0  0  0  0  0  0  0  0  0
  3  7  1  0
  8  9  1  0
  4 10  1  0
  9 10  1  0
  8 11  1  6
 11 12  1  0
  6 13  1  0
 10 14  2  0
 13 15  1  0
  7 16  1  6
 15 17  1  0
 17 18  1  0
  7  8  1  0
  1  2  2  0
  2  6  1  0
  5  6  2  0
  4  5  1  0
  3  4  2  0
  1  3  1  0
M  END

$$$$
No_4612-/export/home/yangzhenyu/potential_scad_32_flow//YTHDC2/2024-12-06-03-22-00/
     RDKit          3D

 17 18  0  0  1  0  0  0  0  0999 V2000
    1.1787   -8.0297    3.5154 C   0  0  0  0  0  0  0  0  0  0  0  0
    1.1048   -9.2215    3.2892 C   0  0  0  0  0  0  0  0  0  0  0  0
    1.2339   -9.7611    2.0189 C   0  0  0  0  0  0  0  0  0  0  0  0
    1.3583   -9.0036    0.9764 C   0  0  0  0  0  0  0  0  0  0  0  0
    1.5996   -7.6362    1.1311 C   0  0  0  0  0  0  0  0  0  0  0  0
    1.4830   -7.0928    2.3626 C   0  0  0  0  0  0  0  0  0  0  0  0
    1.5395   -5.7300    2.6182 C   0  0  0  0  0  0  0  0  0  0  0  0
    1.1775  -11.2233    1.8407 C   0  0  0  0  0  0  0  0  0  0  0  0
    1.9057  -12.1147    2.3397 C   0  0  0  0  0  0  0  0  0  0  0  0
    1.6867  -13.4551    2.0621 C   0  0  2  0  0  0  0  0  0  0  0  0
    0.7025  -13.8511    1.3021 C   0  0  0  0  0  0  0  0  0  0  0  0
   -0.1111  -12.9140    0.6527 C   0  0  0  0  0  0  0  0  0  0  0  0
    0.1535  -11.5434    0.9240 C   0  0  0  0  0  0  0  0  0  0  0  0
    0.6176   -4.8912    2.7737 N   0  0  0  0  0  0  0  0  0  0  0  0
    0.7663   -3.5241    3.1185 O   0  0  0  0  0  0  0  0  0  0  0  0
    2.6246  -14.5860    2.8652 C   0  0  0  0  0  0  0  0  0  0  0  0
   -0.7944  -10.7404    0.4589 O   0  0  0  0  0  0  0  0  0  0  0  0
  6  7  1  0
  3  8  1  0
  8  9  1  0
 10 11  1  0
  8 13  1  0
 12 13  1  0
  7 14  1  0
 14 15  2  0
 10 16  1  1
 13 17  2  0
  9 10  1  0
 11 12  1  0
  1  2  2  0
  2  3  1  0
  3  4  2  0
  4  5  1  0
  5  6  2  0
  1  6  1  0
M  END

$$$$
No_4613-/export/home/yangzhenyu/potential_scad_32_flow//YTHDC2/2024-12-06-03-22-00/
     RDKit          3D

 18 19  0  0  0  0  0  0  0  0999 V2000
    1.1787   -8.0297    3.5154 C   0  0  0  0  0  0  0  0  0  0  0  0
    1.0491   -6.8434    2.9820 C   0  0  0  0  0  0  0  0  0  0  0  0
    0.9905   -9.0774    2.6527 C   0  0  0  0  0  0  0  0  0  0  0  0
    1.1655  -10.4663    3.1286 C   0  0  0  0  0  0  0  0  0  0  0  0
    1.2197  -11.4898    2.5831 C   0  0  0  0  0  0  0  0  0  0  0  0
    1.0589  -11.4458    1.1293 C   0  0  0  0  0  0  0  0  0  0  0  0
    0.9638  -10.3069    0.4651 C   0  0  0  0  0  0  0  0  0  0  0  0
    0.9191   -9.0789    1.1942 C   0  0  0  0  0  0  0  0  0  0  0  0
    0.9198   -7.8339    0.6158 C   0  0  0  0  0  0  0  0  0  0  0  0
    1.0184   -6.6904    1.4953 C   0  0  0  0  0  0  0  0  0  0  0  0
    1.3836  -13.0393    3.2033 C   0  0  0  0  0  0  0  0  0  0  0  0
    1.2442  -14.0587    2.2244 C   0  0  0  0  0  0  0  0  0  0  0  0
    0.0681  -14.6876    2.0056 C   0  0  0  0  0  0  0  0  0  0  0  0
   -0.0499  -15.7778    2.6705 C   0  0  0  0  0  0  0  0  0  0  0  0
   -1.2597  -16.5560    2.6598 C   0  0  0  0  0  0  0  0  0  0  0  0
   -1.3987  -17.5600    3.4990 C   0  0  0  0  0  0  0  0  0  0  0  0
   -0.3471  -18.0147    4.3939 C   0  0  0  0  0  0  0  0  0  0  0  0
    0.8203  -17.2869    4.5118 C   0  0  0  0  0  0  0  0  0  0  0  0
  5 11  1  0
 11 12  1  0
 12 13  1  0
 13 14  2  3
 14 15  1  0
 15 16  2  3
 16 17  1  0
 17 18  2  0
  1  2  2  0
  2 10  1  0
  9 10  2  0
  8  9  1  0
  1  3  1  0
  3  4  2  0
  4  5  1  0
  5  6  2  0
  6  7  1  0
  7  8  2  0
  3  8  1  0
M  END

$$$$
No_4614-/export/home/yangzhenyu/potential_scad_32_flow//YTHDC2/2024-12-06-03-22-00/
     RDKit          3D

 17 18  0  0  0  0  0  0  0  0999 V2000
    1.1787   -8.0297    3.5154 C   0  0  0  0  0  0  0  0  0  0  0  0
    1.0491   -6.8434    2.9820 C   0  0  0  0  0  0  0  0  0  0  0  0
    0.0950   -8.8404    3.2292 C   0  0  0  0  0  0  0  0  0  0  0  0
   -0.9173   -8.4596    2.5152 C   0  0  0  0  0  0  0  0  0  0  0  0
   -1.0331   -7.2162    2.0653 C   0  0  0  0  0  0  0  0  0  0  0  0
   -0.0105   -6.3168    2.3081 C   0  0  0  0  0  0  0  0  0  0  0  0
    0.1935  -10.3737    3.7416 C   0  0  0  0  0  0  0  0  0  0  0  0
    0.3534  -11.4163    2.8027 C   0  0  0  0  0  0  0  0  0  0  0  0
    1.0785  -12.5234    3.2592 C   0  0  0  0  0  0  0  0  0  0  0  0
    1.1411  -13.5755    2.4452 C   0  0  0  0  0  0  0  0  0  0  0  0
    0.7284  -13.6321    1.3039 C   0  0  0  0  0  0  0  0  0  0  0  0
    0.1223  -12.5225    0.7050 C   0  0  0  0  0  0  0  0  0  0  0  0
   -0.0333  -11.3806    1.5081 C   0  0  0  0  0  0  0  0  0  0  0  0
    1.7906  -14.8709    2.9213 O   0  0  0  0  0  0  0  0  0  0  0  0
    0.0305   -4.9558    1.8628 C   0  0  0  0  0  0  0  0  0  0  0  0
   -0.7696   -4.1304    2.2905 C   0  0  0  0  0  0  0  0  0  0  0  0
   -0.3016   -2.9285    2.8658 C   0  0  0  0  0  0  0  0  0  0  0  0
  3  7  1  0
  7  8  1  0
 10 14  1  0
  6 15  1  0
 15 16  1  0
 16 17  2  0
  1  2  2  0
  2  6  1  0
  5  6  2  0
  4  5  1  0
  3  4  2  0
  1  3  1  0
  8  9  2  0
  9 10  1  0
 10 11  2  0
 11 12  1  0
 12 13  2  0
  8 13  1  0
M  END

$$$$
No_4615-/export/home/yangzhenyu/potential_scad_32_flow//YTHDC2/2024-12-06-03-22-00/
     RDKit          3D

 20 20  0  0  1  0  0  0  0  0999 V2000
    1.1787   -8.0297    3.5154 C   0  0  0  0  0  0  0  0  0  0  0  0
    1.0491   -6.8434    2.9820 C   0  0  0  0  0  0  0  0  0  0  0  0
    1.9985   -8.9840    2.8958 C   0  0  0  0  0  0  0  0  0  0  0  0
    1.9135  -10.3404    3.6266 C   0  0  1  0  0  0  0  0  0  0  0  0
    2.2847  -10.5440    4.7936 C   0  0  0  0  0  0  0  0  0  0  0  0
    0.3304   -6.7696    1.8077 C   0  0  2  0  0  0  0  0  0  0  0  0
    0.3816   -7.5583    0.9388 C   0  0  0  0  0  0  0  0  0  0  0  0
    0.4592   -5.2950    1.3477 C   0  0  0  0  0  0  0  0  0  0  0  0
    0.7436  -11.1358    3.2785 C   0  0  0  0  0  0  0  0  0  0  0  0
   -0.2927  -10.9152    3.6564 C   0  0  0  0  0  0  0  0  0  0  0  0
   -1.4149  -11.6480    3.3449 C   0  0  0  0  0  0  0  0  0  0  0  0
   -2.6905  -11.2158    3.7773 C   0  0  0  0  0  0  0  0  0  0  0  0
   -2.8843  -10.0426    4.5754 C   0  0  0  0  0  0  0  0  0  0  0  0
   -1.7435   -9.1624    4.7443 C   0  0  0  0  0  0  0  0  0  0  0  0
   -0.4972   -9.5388    4.3589 C   0  0  0  0  0  0  0  0  0  0  0  0
    3.4854  -11.3924    5.1492 C   0  0  0  0  0  0  0  0  0  0  0  0
    4.4979  -10.5437    5.9992 N   0  0  0  0  0  0  0  0  0  0  0  0
   -0.7444   -8.2805    0.4096 C   0  0  0  0  0  0  0  0  0  0  0  0
   -0.7261   -9.3138   -0.5764 C   0  0  0  0  0  0  0  0  0  0  0  0
    0.3845   -9.4433   -1.2883 C   0  0  0  0  0  0  0  0  0  0  0  0
  1  2  1  0
  1  3  1  0
  4  3  1  1
  4  5  1  0
  2  6  1  0
  6  7  1  0
  6  8  1  6
  4  9  1  0
  5 16  1  0
 16 17  1  0
  7 18  2  3
 18 19  1  0
 19 20  2  0
  9 10  1  0
 10 11  2  0
 11 12  1  0
 12 13  2  0
 13 14  1  0
 14 15  2  0
 10 15  1  0
M  END

$$$$
No_4616-/export/home/yangzhenyu/potential_scad_32_flow//YTHDC2/2024-12-06-03-22-00/
     RDKit          3D

 19 20  0  0  1  0  0  0  0  0999 V2000
    1.1787   -8.0297    3.5154 C   0  0  0  0  0  0  0  0  0  0  0  0
    1.0491   -6.8434    2.9820 C   0  0  0  0  0  0  0  0  0  0  0  0
    0.0950   -8.8404    3.2292 C   0  0  0  0  0  0  0  0  0  0  0  0
   -0.9173   -8.4596    2.5152 C   0  0  0  0  0  0  0  0  0  0  0  0
   -1.0331   -7.2162    2.0653 C   0  0  0  0  0  0  0  0  0  0  0  0
   -0.0105   -6.3168    2.3081 C   0  0  0  0  0  0  0  0  0  0  0  0
    0.0485   -4.9783    1.8782 C   0  0  0  0  0  0  0  0  0  0  0  0
    0.9625   -4.1072    2.3252 F   0  0  0  0  0  0  0  0  0  0  0  0
    0.5838   -5.0230    0.4095 F   0  0  0  0  0  0  0  0  0  0  0  0
   -0.9784   -4.2659    1.8243 F   0  0  0  0  0  0  0  0  0  0  0  0
    0.2380  -10.2606    3.7191 C   0  0  2  0  0  0  0  0  0  0  0  0
   -0.9248  -10.9440    3.9970 C   0  0  0  0  0  0  0  0  0  0  0  0
    1.1995  -10.4444    4.8350 C   0  0  0  0  0  0  0  0  0  0  0  0
    2.2916  -11.3533    4.2744 C   0  0  0  0  0  0  0  0  0  0  0  0
    2.5169  -10.9820    2.9128 C   0  0  0  0  0  0  0  0  0  0  0  0
    1.3798  -10.9592    2.0560 C   0  0  1  0  0  0  0  0  0  0  0  0
    0.3286  -10.2616    2.4272 C   0  0  0  0  0  0  0  0  0  0  0  0
    1.7789  -11.5632    0.7920 F   0  0  0  0  0  0  0  0  0  0  0  0
   -1.3100  -12.0694    3.5189 O   0  0  0  0  0  0  0  0  0  0  0  0
  6  7  1  0
  7  8  1  0
  7  9  1  0
  7 10  1  0
  3 11  1  0
 11 12  1  6
 11 13  1  0
 13 14  1  0
 14 15  1  0
 15 16  1  0
 11 17  1  0
 16 17  1  0
 16 18  1  6
 12 19  2  0
  1  2  2  0
  2  6  1  0
  5  6  2  0
  4  5  1  0
  3  4  2  0
  1  3  1  0
M  END

$$$$
No_4617-/export/home/yangzhenyu/potential_scad_32_flow//YTHDC2/2024-12-06-03-22-00/
     RDKit          3D

 19 20  0  0  0  0  0  0  0  0999 V2000
    1.1787   -8.0297    3.5154 C   0  0  0  0  0  0  0  0  0  0  0  0
    1.0491   -6.8434    2.9820 C   0  0  0  0  0  0  0  0  0  0  0  0
    0.0950   -8.8404    3.2292 C   0  0  0  0  0  0  0  0  0  0  0  0
   -0.9173   -8.4596    2.5152 C   0  0  0  0  0  0  0  0  0  0  0  0
   -1.0331   -7.2162    2.0653 C   0  0  0  0  0  0  0  0  0  0  0  0
   -0.0105   -6.3168    2.3081 C   0  0  0  0  0  0  0  0  0  0  0  0
    0.1465  -10.2446    3.6981 C   0  0  0  0  0  0  0  0  0  0  0  0
    0.1907  -11.3369    2.8651 C   0  0  0  0  0  0  0  0  0  0  0  0
    0.7661  -12.5788    3.2923 C   0  0  0  0  0  0  0  0  0  0  0  0
    0.7707  -13.6301    2.4861 C   0  0  0  0  0  0  0  0  0  0  0  0
    0.3777  -13.6646    1.3267 C   0  0  0  0  0  0  0  0  0  0  0  0
    0.0152  -12.4888    0.6832 C   0  0  0  0  0  0  0  0  0  0  0  0
   -0.0711  -11.3179    1.4748 C   0  0  0  0  0  0  0  0  0  0  0  0
    1.3463  -15.1322    3.0939 C   0  0  0  0  0  0  0  0  0  0  0  0
    2.4755  -15.5761    2.5606 C   0  0  0  0  0  0  0  0  0  0  0  0
    0.0768   -4.7556    1.8059 C   0  0  0  0  0  0  0  0  0  0  0  0
    0.8064   -3.9674    2.4974 O   0  0  0  0  0  0  0  0  0  0  0  0
    3.2457  -14.9608    1.6571 N   0  0  0  0  0  0  0  0  0  0  0  0
    2.9838  -14.0506    1.3062 H   0  0  0  0  0  0  0  0  0  0  0  0
  3  7  1  0
  7  8  1  0
 10 14  1  0
 14 15  1  0
  6 16  1  0
 16 17  1  0
 15 18  2  0
  1  2  2  0
  2  6  1  0
  5  6  2  0
  4  5  1  0
  3  4  2  0
  1  3  1  0
  8  9  2  0
  9 10  1  0
 10 11  2  0
 11 12  1  0
 12 13  2  0
  8 13  1  0
 18 19  1  0
M  END

$$$$
No_4618-/export/home/yangzhenyu/potential_scad_32_flow//YTHDC2/2024-12-06-03-22-00/
     RDKit          3D

 15 16  0  0  0  0  0  0  0  0999 V2000
    1.1787   -8.0297    3.5154 C   0  0  0  0  0  0  0  0  0  0  0  0
    1.0491   -6.8434    2.9820 C   0  0  0  0  0  0  0  0  0  0  0  0
    0.9905   -9.0774    2.6527 C   0  0  0  0  0  0  0  0  0  0  0  0
    1.1655  -10.4663    3.1286 C   0  0  0  0  0  0  0  0  0  0  0  0
    1.7409  -10.6480    4.4599 C   0  0  0  0  0  0  0  0  0  0  0  0
    0.4783   -6.4688    1.7590 C   0  0  0  0  0  0  0  0  0  0  0  0
    0.2119   -7.5787    0.9640 C   0  0  0  0  0  0  0  0  0  0  0  0
    0.4248   -8.8744    1.3136 C   0  0  0  0  0  0  0  0  0  0  0  0
    1.0421  -11.5142    2.2935 O   0  0  0  0  0  0  0  0  0  0  0  0
    0.3089   -5.1993    1.2784 Cl  0  0  0  0  0  0  0  0  0  0  0  0
    0.2103   -9.9505    0.5023 C   0  0  0  0  0  0  0  0  0  0  0  0
   -0.6484   -9.8474   -0.4955 C   0  0  0  0  0  0  0  0  0  0  0  0
   -1.0986   -8.6579   -0.9159 C   0  0  0  0  0  0  0  0  0  0  0  0
   -0.6888   -7.5055   -0.2234 C   0  0  0  0  0  0  0  0  0  0  0  0
   -1.7338   -8.4094   -2.1537 C   0  0  0  0  0  0  0  0  0  0  0  0
  3  4  1  0
  4  5  1  0
  4  9  2  0
  6 10  1  0
 13 15  1  0
  8 11  1  0
 11 12  2  0
 12 13  1  0
 13 14  2  0
  7 14  1  0
  1  2  2  0
  2  6  1  0
  6  7  2  0
  7  8  1  0
  3  8  2  0
  1  3  1  0
M  END

$$$$
No_4619-/export/home/yangzhenyu/potential_scad_32_flow//YTHDC2/2024-12-06-03-22-00/
     RDKit          3D

 16 17  0  0  0  0  0  0  0  0999 V2000
    1.1787   -8.0297    3.5154 C   0  0  0  0  0  0  0  0  0  0  0  0
    1.1048   -9.2215    3.2892 C   0  0  0  0  0  0  0  0  0  0  0  0
    1.3627  -10.1721    4.3044 C   0  0  0  0  0  0  0  0  0  0  0  0
    1.0682  -11.5187    4.0618 C   0  0  0  0  0  0  0  0  0  0  0  0
    0.6332  -11.9655    2.9682 C   0  0  0  0  0  0  0  0  0  0  0  0
    0.4776  -11.1308    1.9203 C   0  0  0  0  0  0  0  0  0  0  0  0
    0.7470   -9.8274    2.0368 C   0  0  0  0  0  0  0  0  0  0  0  0
    1.0387   -7.0301    2.5175 C   0  0  0  0  0  0  0  0  0  0  0  0
    0.9130   -7.5288    1.2013 C   0  0  0  0  0  0  0  0  0  0  0  0
    0.7893   -8.7979    0.9542 C   0  0  0  0  0  0  0  0  0  0  0  0
    0.5241   -9.2578   -0.2817 C   0  0  0  0  0  0  0  0  0  0  0  0
   -0.1121   -8.6523   -1.0898 O   0  0  0  0  0  0  0  0  0  0  0  0
    0.4743  -13.6037    2.6713 C   0  0  0  0  0  0  0  0  0  0  0  0
   -0.6793  -14.0058    2.4134 N   0  0  0  0  0  0  0  0  0  0  0  0
    1.5813  -14.3267    2.6872 C   0  0  0  0  0  0  0  0  0  0  0  0
    1.3108  -15.6361    2.5467 C   0  0  0  0  0  0  0  0  0  0  0  0
 10 11  1  0
 11 12  2  0
  5 13  1  0
 13 14  1  0
 13 15  1  0
 15 16  2  0
  2  3  1  0
  3  4  2  0
  4  5  1  0
  5  6  2  0
  6  7  1  0
  1  2  2  0
  2  7  1  0
  7 10  2  0
  9 10  1  0
  8  9  2  0
  1  8  1  0
M  END

$$$$
No_4620-/export/home/yangzhenyu/potential_scad_32_flow//YTHDC2/2024-12-06-03-22-00/
     RDKit          3D

 20 21  0  0  1  0  0  0  0  0999 V2000
    1.1787   -8.0297    3.5154 C   0  0  0  0  0  0  0  0  0  0  0  0
    1.0491   -6.8434    2.9820 C   0  0  0  0  0  0  0  0  0  0  0  0
    0.9905   -9.0774    2.6527 C   0  0  0  0  0  0  0  0  0  0  0  0
    0.7897   -8.9519    1.3691 C   0  0  0  0  0  0  0  0  0  0  0  0
    0.7018   -7.7198    0.7892 C   0  0  0  0  0  0  0  0  0  0  0  0
    0.8918   -6.5957    1.6117 C   0  0  0  0  0  0  0  0  0  0  0  0
    1.0998  -10.4710    3.2437 C   0  0  0  0  0  0  0  0  0  0  0  0
    1.3102  -11.5554    2.5214 C   0  0  0  0  0  0  0  0  0  0  0  0
    1.4257  -12.8124    3.1919 C   0  0  0  0  0  0  0  0  0  0  0  0
    1.4301  -14.0627    2.4374 C   0  0  2  0  0  0  0  0  0  0  0  0
    0.8588   -5.2558    1.2463 O   0  0  0  0  0  0  0  0  0  0  0  0
    1.0320  -15.2245    3.0586 C   0  0  0  0  0  0  0  0  0  0  0  0
    1.4526  -16.5021    2.5935 C   0  0  2  0  0  0  0  0  0  0  0  0
    2.3157  -16.5157    1.5279 C   0  0  0  0  0  0  0  0  0  0  0  0
    2.6017  -14.3473    1.5596 C   0  0  0  0  0  0  0  0  0  0  0  0
    2.9309  -15.4788    1.1119 N   0  0  0  0  0  0  0  0  0  0  0  0
    2.8481  -13.1887    0.9121 O   0  0  0  0  0  0  0  0  0  0  0  0
    0.7925  -17.9414    3.2137 C   0  0  0  0  0  0  0  0  0  0  0  0
    0.6360  -18.0429    4.4020 O   0  0  0  0  0  0  0  0  0  0  0  0
    0.6512  -18.7862    2.3244 O   0  0  0  0  0  0  0  0  0  0  0  0
  1  2  1  0
  3  4  1  0
  2  6  1  0
  5  6  1  0
  3  7  1  0
  7  8  2  3
  8  9  1  0
 10  9  1  1
  6 11  2  0
 10 12  1  0
 13 14  1  0
 10 15  1  0
 14 16  1  0
 15 16  1  0
 15 17  2  0
 13 18  1  6
 18 19  2  0
 18 20  1  0
  1  3  1  0
  4  5  1  0
 12 13  1  0
M  END

$$$$
No_4621-/export/home/yangzhenyu/potential_scad_32_flow//YTHDC2/2024-12-06-03-22-00/
     RDKit          3D

 17 17  0  0  1  0  0  0  0  0999 V2000
    1.1787   -8.0297    3.5154 C   0  0  0  0  0  0  0  0  0  0  0  0
    1.1048   -9.2215    3.2892 C   0  0  0  0  0  0  0  0  0  0  0  0
    1.4683  -10.2314    4.1915 C   0  0  0  0  0  0  0  0  0  0  0  0
    1.9866   -7.4773    4.4979 C   0  0  0  0  0  0  0  0  0  0  0  0
    1.3356  -11.5804    4.0223 C   0  0  0  0  0  0  0  0  0  0  0  0
    0.0905  -11.8489    3.5298 C   0  0  1  0  0  0  0  0  0  0  0  0
   -0.9253  -10.9678    3.5636 N   0  0  0  0  0  0  0  0  0  0  0  0
   -0.0852  -12.9532    2.7100 C   0  0  0  0  0  0  0  0  0  0  0  0
   -1.3001  -13.1206    2.0979 N   0  0  0  0  0  0  0  0  0  0  0  0
    1.0197  -13.8673    2.3247 C   0  0  0  0  0  0  0  0  0  0  0  0
    0.6639  -14.9645    1.7875 C   0  0  0  0  0  0  0  0  0  0  0  0
   -0.5475  -15.1493    1.2714 C   0  0  0  0  0  0  0  0  0  0  0  0
   -0.8205  -16.2927    0.5271 C   0  0  0  0  0  0  0  0  0  0  0  0
   -1.4547  -14.1693    1.3633 C   0  0  0  0  0  0  0  0  0  0  0  0
   -0.4833  -16.2051   -0.8087 C   0  0  0  0  0  0  0  0  0  0  0  0
    0.1528  -17.0863   -1.5279 O   0  0  0  0  0  0  0  0  0  0  0  0
   -0.6927  -15.0976   -1.5467 O   0  0  0  0  0  0  0  0  0  0  0  0
  1  2  2  3
  2  3  1  0
  1  4  1  0
  3  5  1  0
  5  6  1  0
  6  7  1  6
  6  8  1  0
 12 13  1  0
 13 15  1  0
 15 16  1  0
 15 17  2  0
  8  9  2  0
  9 14  1  0
 12 14  2  0
 11 12  1  0
 10 11  2  0
  8 10  1  0
M  END

$$$$
No_4622-/export/home/yangzhenyu/potential_scad_32_flow//YTHDC2/2024-12-06-03-22-00/
     RDKit          3D

 18 19  0  0  1  0  0  0  0  0999 V2000
    1.1787   -8.0297    3.5154 C   0  0  0  0  0  0  0  0  0  0  0  0
    1.0491   -6.8434    2.9820 I   0  0  0  0  0  0  0  0  0  0  0  0
    0.9718   -9.2778    2.6638 C   0  0  0  0  0  0  0  0  0  0  0  0
    0.9442   -9.2977    1.4296 C   0  0  0  0  0  0  0  0  0  0  0  0
    0.6345  -10.5688    0.8482 C   0  0  0  0  0  0  0  0  0  0  0  0
    0.8039  -11.6083    1.4179 C   0  0  0  0  0  0  0  0  0  0  0  0
    1.0291  -11.6795    2.8150 C   0  0  0  0  0  0  0  0  0  0  0  0
    1.1314  -10.4286    3.4728 C   0  0  0  0  0  0  0  0  0  0  0  0
    0.7574  -13.0430    0.6882 C   0  0  1  0  0  0  0  0  0  0  0  0
    1.6490  -13.9371    0.8625 C   0  0  0  0  0  0  0  0  0  0  0  0
    2.8544  -13.6747    1.3814 C   0  0  0  0  0  0  0  0  0  0  0  0
   -0.3550  -13.1943   -0.0469 C   0  0  0  0  0  0  0  0  0  0  0  0
   -0.4531  -14.3532   -0.7470 O   0  0  0  0  0  0  0  0  0  0  0  0
   -1.4103  -12.3041   -0.3364 O   0  0  0  0  0  0  0  0  0  0  0  0
    3.5634  -14.8861    1.7095 C   0  0  0  0  0  0  0  0  0  0  0  0
    2.9584  -16.0070    1.8580 C   0  0  0  0  0  0  0  0  0  0  0  0
    1.6592  -16.2234    1.6885 C   0  0  0  0  0  0  0  0  0  0  0  0
    0.9126  -15.1589    1.1933 C   0  0  0  0  0  0  0  0  0  0  0  0
  1  2  1  0
  1  3  1  0
  6  9  1  0
  9 10  1  0
  9 12  1  1
 12 13  2  0
 12 14  1  0
 10 11  2  0
 11 15  1  0
 15 16  2  0
 16 17  1  0
 17 18  2  0
 10 18  1  0
  3  4  2  0
  4  5  1  0
  5  6  2  0
  6  7  1  0
  7  8  2  0
  3  8  1  0
M  END

$$$$
No_4623-/export/home/yangzhenyu/potential_scad_32_flow//YTHDC2/2024-12-06-03-22-00/
     RDKit          3D

 18 18  0  0  0  0  0  0  0  0999 V2000
    1.1787   -8.0297    3.5154 C   0  0  0  0  0  0  0  0  0  0  0  0
    1.1048   -9.2215    3.2892 C   0  0  0  0  0  0  0  0  0  0  0  0
    1.2339   -9.7611    2.0189 C   0  0  0  0  0  0  0  0  0  0  0  0
    1.4306   -8.9466    1.1170 C   0  0  0  0  0  0  0  0  0  0  0  0
    1.6532   -7.5949    1.1786 C   0  0  0  0  0  0  0  0  0  0  0  0
    1.4973   -7.0739    2.4258 C   0  0  0  0  0  0  0  0  0  0  0  0
    1.6687   -9.4437   -0.3021 C   0  0  0  0  0  0  0  0  0  0  0  0
    2.3503   -8.9872   -1.1111 O   0  0  0  0  0  0  0  0  0  0  0  0
    0.8836  -10.3730   -0.6548 N   0  0  0  0  0  0  0  0  0  0  0  0
    0.9058  -10.2019    4.3882 S   0  0  0  0  0  0  0  0  0  0  0  0
    2.1634  -10.9379    4.6689 N   0  0  0  0  0  0  0  0  0  0  0  0
   -0.0726  -11.4429    3.9731 O   0  0  0  0  0  0  0  0  0  0  0  0
    1.5598   -5.6283    2.6846 C   0  0  0  0  0  0  0  0  0  0  0  0
    0.6794   -4.8438    2.6394 O   0  0  0  0  0  0  0  0  0  0  0  0
    0.8279   -3.4456    2.8706 C   0  0  0  0  0  0  0  0  0  0  0  0
    0.4103   -9.6885    5.5783 O   0  0  0  0  0  0  0  0  0  0  0  0
    2.9775  -11.6947    4.1142 C   0  0  0  0  0  0  0  0  0  0  0  0
    2.3590  -13.0121    4.1076 C   0  0  0  0  0  0  0  0  0  0  0  0
  4  7  1  0
  7  8  2  0
  7  9  1  0
  2 10  1  0
 10 11  1  0
 10 12  2  0
  6 13  1  0
 13 14  1  0
 14 15  1  0
 10 16  2  0
 11 17  1  0
 17 18  1  0
  1  2  2  0
  2  3  1  0
  3  4  2  0
  4  5  1  0
  5  6  2  0
  1  6  1  0
M  END

$$$$
No_4624-/export/home/yangzhenyu/potential_scad_32_flow//YTHDC2/2024-12-06-03-22-00/
     RDKit          3D

 19 19  0  0  0  0  0  0  0  0999 V2000
    1.1787   -8.0297    3.5154 C   0  0  0  0  0  0  0  0  0  0  0  0
    1.0491   -6.8434    2.9820 C   0  0  0  0  0  0  0  0  0  0  0  0
    0.0950   -8.8404    3.2292 C   0  0  0  0  0  0  0  0  0  0  0  0
   -0.9173   -8.4596    2.5152 C   0  0  0  0  0  0  0  0  0  0  0  0
   -1.0331   -7.2162    2.0653 C   0  0  0  0  0  0  0  0  0  0  0  0
   -0.0105   -6.3168    2.3081 C   0  0  0  0  0  0  0  0  0  0  0  0
    0.1150   -4.9910    1.8495 C   0  0  0  0  0  0  0  0  0  0  0  0
    0.9121   -4.1017    2.4010 O   0  0  0  0  0  0  0  0  0  0  0  0
    0.1243  -10.2739    3.6619 C   0  0  0  0  0  0  0  0  0  0  0  0
   -1.1006  -10.9464    3.8069 O   0  0  0  0  0  0  0  0  0  0  0  0
    1.1614  -10.8198    4.3659 N   0  0  0  0  0  0  0  0  0  0  0  0
    2.4543  -10.6051    4.0880 C   0  0  0  0  0  0  0  0  0  0  0  0
   -0.4519   -4.5373    0.8164 O   0  0  0  0  0  0  0  0  0  0  0  0
    3.2537  -11.0564    5.2712 C   0  0  0  0  0  0  0  0  0  0  0  0
    3.0646  -10.4703    6.4569 O   0  0  0  0  0  0  0  0  0  0  0  0
    4.5810  -11.2415    5.0263 O   0  0  0  0  0  0  0  0  0  0  0  0
    0.6630   -3.4465    3.5720 C   0  0  0  0  0  0  0  0  0  0  0  0
   -0.2356   -2.2985    3.3404 C   0  0  0  0  0  0  0  0  0  0  0  0
    0.4508   -1.1457    2.8972 C   0  0  0  0  0  0  0  0  0  0  0  0
  6  7  1  0
  7  8  1  0
  3  9  1  0
  9 10  2  0
  9 11  1  0
 11 12  1  0
  7 13  2  0
 12 14  1  0
 14 15  1  0
 14 16  2  0
  8 17  1  0
 17 18  1  0
 18 19  1  0
  1  2  2  0
  2  6  1  0
  5  6  2  0
  4  5  1  0
  3  4  2  0
  1  3  1  0
M  END

$$$$
No_4625-/export/home/yangzhenyu/potential_scad_32_flow//YTHDC2/2024-12-06-03-22-00/
     RDKit          3D

 18 18  0  0  1  0  0  0  0  0999 V2000
    1.1787   -8.0297    3.5154 C   0  0  0  0  0  0  0  0  0  0  0  0
    1.1048   -9.2215    3.2892 C   0  0  0  0  0  0  0  0  0  0  0  0
    1.2339   -9.7611    2.0189 C   0  0  0  0  0  0  0  0  0  0  0  0
    1.3583   -9.0036    0.9764 C   0  0  0  0  0  0  0  0  0  0  0  0
    1.5996   -7.6362    1.1311 C   0  0  0  0  0  0  0  0  0  0  0  0
    1.4830   -7.0928    2.3626 C   0  0  0  0  0  0  0  0  0  0  0  0
    1.5395   -5.7300    2.6182 C   0  0  0  0  0  0  0  0  0  0  0  0
    1.1969  -11.3760    1.8433 C   0  0  0  0  0  0  0  0  0  0  0  0
    1.7910  -12.1287    2.5491 C   0  0  1  0  0  0  0  0  0  0  0  0
    1.7696  -12.1827    3.6650 C   0  0  0  0  0  0  0  0  0  0  0  0
    1.4528  -13.5823    2.0037 C   0  0  0  0  0  0  0  0  0  0  0  0
    2.5027  -14.3806    1.7834 C   0  0  0  0  0  0  0  0  0  0  0  0
    2.2617  -15.7910    1.7848 O   0  0  0  0  0  0  0  0  0  0  0  0
    1.6761   -5.1706    3.8962 C   0  0  0  0  0  0  0  0  0  0  0  0
    1.4112   -4.8572    1.5454 C   0  0  0  0  0  0  0  0  0  0  0  0
    1.4544   -3.4722    1.7517 C   0  0  0  0  0  0  0  0  0  0  0  0
    1.1817   -2.5845    0.5576 C   0  0  0  0  0  0  0  0  0  0  0  0
    2.8905  -11.7764    4.5356 N   0  0  0  0  0  0  0  0  0  0  0  0
  6  7  1  0
  3  8  1  0
  9  8  1  6
  9 10  1  0
  9 11  1  0
 11 12  1  0
 12 13  1  0
  7 14  1  0
  7 15  1  0
 15 16  2  3
 16 17  1  0
 10 18  1  0
  1  2  2  0
  2  3  1  0
  3  4  2  0
  4  5  1  0
  5  6  2  0
  1  6  1  0
M  END

$$$$
No_4626-/export/home/yangzhenyu/potential_scad_32_flow//YTHDC2/2024-12-06-03-22-00/
     RDKit          3D

 19 20  0  0  1  0  0  0  0  0999 V2000
    1.1787   -8.0297    3.5154 C   0  0  0  0  0  0  0  0  0  0  0  0
    1.0491   -6.8434    2.9820 C   0  0  0  0  0  0  0  0  0  0  0  0
    0.9905   -9.0774    2.6527 C   0  0  0  0  0  0  0  0  0  0  0  0
    0.7897   -8.9519    1.3691 C   0  0  0  0  0  0  0  0  0  0  0  0
    0.7018   -7.7198    0.7892 C   0  0  0  0  0  0  0  0  0  0  0  0
    0.8918   -6.5957    1.6117 C   0  0  0  0  0  0  0  0  0  0  0  0
    1.0998  -10.4710    3.2437 C   0  0  0  0  0  0  0  0  0  0  0  0
    2.1917  -10.8879    3.7399 C   0  0  0  0  0  0  0  0  0  0  0  0
    0.8624   -5.2493    1.2482 C   0  0  0  0  0  0  0  0  0  0  0  0
   -0.0161  -11.2304    3.3728 C   0  0  0  0  0  0  0  0  0  0  0  0
   -0.0818  -12.5026    3.1756 C   0  0  0  0  0  0  0  0  0  0  0  0
    1.2096  -13.1342    2.9620 C   0  0  0  0  0  0  0  0  0  0  0  0
    2.4137  -12.2564    3.3890 C   0  0  0  0  0  0  0  0  0  0  0  0
    1.5794   -4.3359    1.8943 C   0  0  0  0  0  0  0  0  0  0  0  0
    1.4523   -2.9363    1.4406 C   0  0  0  0  0  0  0  0  0  0  0  0
    1.4974  -14.3219    2.5592 C   0  0  2  0  0  0  0  0  0  0  0  0
    2.6985  -14.8923    2.3725 C   0  0  0  0  0  0  0  0  0  0  0  0
    0.4696  -14.8353    1.7462 C   0  0  0  0  0  0  0  0  0  0  0  0
    0.2257  -14.3096    0.6513 C   0  0  0  0  0  0  0  0  0  0  0  0
  3  7  1  0
  6  9  1  0
  9 14  2  3
 14 15  1  0
 12 16  1  0
 16 17  1  6
 16 18  1  0
 18 19  1  0
  7  8  2  0
  8 13  1  0
 12 13  2  0
 11 12  1  0
 10 11  2  0
  7 10  1  0
  1  2  2  0
  2  6  1  0
  5  6  2  0
  4  5  1  0
  3  4  2  0
  1  3  1  0
M  END

$$$$
No_4627-/export/home/yangzhenyu/potential_scad_32_flow//YTHDC2/2024-12-06-03-22-00/
     RDKit          3D

 19 20  0  0  0  0  0  0  0  0999 V2000
    1.1787   -8.0297    3.5154 C   0  0  0  0  0  0  0  0  0  0  0  0
    1.1048   -9.2215    3.2892 C   0  0  0  0  0  0  0  0  0  0  0  0
    1.2339   -9.7611    2.0189 C   0  0  0  0  0  0  0  0  0  0  0  0
    1.3583   -9.0036    0.9764 C   0  0  0  0  0  0  0  0  0  0  0  0
    1.5996   -7.6362    1.1311 C   0  0  0  0  0  0  0  0  0  0  0  0
    1.4830   -7.0928    2.3626 C   0  0  0  0  0  0  0  0  0  0  0  0
    1.4898   -5.7274    2.6199 C   0  0  0  0  0  0  0  0  0  0  0  0
    1.1882  -11.3736    1.8424 C   0  0  0  0  0  0  0  0  0  0  0  0
    0.2883  -11.9819    2.0702 C   0  0  0  0  0  0  0  0  0  0  0  0
    0.3067  -13.4537    1.9657 C   0  0  0  0  0  0  0  0  0  0  0  0
   -0.5756  -14.2117    1.6587 C   0  0  0  0  0  0  0  0  0  0  0  0
   -1.9239  -13.7460    1.6881 N   0  0  0  0  0  0  0  0  0  0  0  0
   -2.1369  -12.4471    1.9261 C   0  0  0  0  0  0  0  0  0  0  0  0
   -1.0887  -11.5452    2.0738 N   0  0  0  0  0  0  0  0  0  0  0  0
   -3.3687  -11.9483    1.8771 C   0  0  0  0  0  0  0  0  0  0  0  0
   -4.3171  -12.5862    1.6650 C   0  0  0  0  0  0  0  0  0  0  0  0
   -3.5026  -10.3713    2.0468 C   0  0  0  0  0  0  0  0  0  0  0  0
   -4.7115   -9.8911    2.2127 C   0  0  0  0  0  0  0  0  0  0  0  0
   -5.7575  -10.6601    2.0128 C   0  0  0  0  0  0  0  0  0  0  0  0
  6  7  1  0
  3  8  1  0
 13 15  1  0
 15 16  2  0
 15 17  1  0
 17 18  2  3
 18 19  1  0
  8  9  1  0
  1  2  2  0
  2  3  1  0
  3  4  2  0
  4  5  1  0
  5  6  2  0
  1  6  1  0
  9 10  2  0
 10 11  1  0
 11 12  2  0
 12 13  1  0
 13 14  2  0
  9 14  1  0
M  END

$$$$
No_4628-/export/home/yangzhenyu/potential_scad_32_flow//YTHDC2/2024-12-06-03-22-00/
     RDKit          3D

 18 18  0  0  0  0  0  0  0  0999 V2000
    1.1787   -8.0297    3.5154 O   0  0  0  0  0  0  0  0  0  0  0  0
    0.6747   -7.4019    2.7838 C   0  0  0  0  0  0  0  0  0  0  0  0
    0.7594   -8.0032    1.4295 C   0  0  0  0  0  0  0  0  0  0  0  0
    0.3459   -9.1500    1.3581 C   0  0  0  0  0  0  0  0  0  0  0  0
   -0.4155   -9.6726    2.0241 C   0  0  0  0  0  0  0  0  0  0  0  0
   -0.3639  -10.4103    2.7363 C   0  0  0  0  0  0  0  0  0  0  0  0
   -1.0606  -10.7879    3.8954 C   0  0  0  0  0  0  0  0  0  0  0  0
   -2.2690  -10.2820    3.8372 C   0  0  0  0  0  0  0  0  0  0  0  0
   -2.6435   -9.3076    3.0066 C   0  0  0  0  0  0  0  0  0  0  0  0
   -1.7685   -8.9679    2.0492 C   0  0  0  0  0  0  0  0  0  0  0  0
    1.0282   -9.8234    0.1124 C   0  0  0  0  0  0  0  0  0  0  0  0
    1.8893   -9.3934   -0.6645 O   0  0  0  0  0  0  0  0  0  0  0  0
    0.7996  -11.2868    0.0559 O   0  0  0  0  0  0  0  0  0  0  0  0
    0.1710   -6.3039    3.0433 O   0  0  0  0  0  0  0  0  0  0  0  0
   -3.3193  -10.5629    4.9081 Cl  0  0  0  0  0  0  0  0  0  0  0  0
   -2.0868   -7.8329    1.1180 C   0  0  0  0  0  0  0  0  0  0  0  0
   -3.1700   -7.6108    0.6400 O   0  0  0  0  0  0  0  0  0  0  0  0
   -1.2786   -7.5171    0.0875 O   0  0  0  0  0  0  0  0  0  0  0  0
  1  2  1  0
  2  3  1  0
  3  4  1  0
  4 11  1  0
 11 12  2  0
 11 13  1  0
  2 14  2  0
  8 15  1  0
 10 16  1  0
 16 17  2  0
 16 18  1  0
  4  5  1  0
  5  6  2  0
  6  7  1  0
  7  8  2  0
  8  9  1  0
  9 10  2  0
  5 10  1  0
M  END

$$$$
No_4629-/export/home/yangzhenyu/potential_scad_32_flow//YTHDC2/2024-12-06-03-22-00/
     RDKit          3D

 18 19  0  0  0  0  0  0  0  0999 V2000
    1.1787   -8.0297    3.5154 C   0  0  0  0  0  0  0  0  0  0  0  0
    1.0491   -6.8434    2.9820 C   0  0  0  0  0  0  0  0  0  0  0  0
    0.0950   -8.8404    3.2292 C   0  0  0  0  0  0  0  0  0  0  0  0
    0.0602  -10.1764    3.8231 C   0  0  0  0  0  0  0  0  0  0  0  0
    0.2248   -6.3830    2.0648 C   0  0  0  0  0  0  0  0  0  0  0  0
   -0.6745   -7.2322    1.6857 C   0  0  0  0  0  0  0  0  0  0  0  0
   -0.7374   -8.4992    2.1291 C   0  0  0  0  0  0  0  0  0  0  0  0
   -0.0634  -11.3436    3.0594 C   0  0  0  0  0  0  0  0  0  0  0  0
    1.1680  -12.2553    3.1335 C   0  0  0  0  0  0  0  0  0  0  0  0
    1.0829  -13.4805    2.5593 C   0  0  0  0  0  0  0  0  0  0  0  0
   -0.0285  -13.9314    2.0450 C   0  0  0  0  0  0  0  0  0  0  0  0
   -1.1302  -13.1818    1.9575 C   0  0  0  0  0  0  0  0  0  0  0  0
   -1.1471  -11.9271    2.5039 C   0  0  0  0  0  0  0  0  0  0  0  0
    0.4774   -4.8900    1.4114 Cl  0  0  0  0  0  0  0  0  0  0  0  0
    2.3022  -14.2631    2.5627 C   0  0  0  0  0  0  0  0  0  0  0  0
   -0.2337  -10.0977    5.1493 O   0  0  0  0  0  0  0  0  0  0  0  0
    2.3755  -15.1520    1.5712 N   0  0  0  0  0  0  0  0  0  0  0  0
    1.6196  -15.2299    0.9059 H   0  0  0  0  0  0  0  0  0  0  0  0
  3  4  1  0
  4  8  1  0
  5 14  1  0
 10 15  1  0
  4 16  2  0
 15 17  2  0
  8  9  2  0
  9 10  1  0
 10 11  2  0
 11 12  1  0
 12 13  2  0
  8 13  1  0
  1  2  2  0
  2  5  1  0
  5  6  2  0
  6  7  1  0
  3  7  2  0
  1  3  1  0
 17 18  1  0
M  END

$$$$
No_4630-/export/home/yangzhenyu/potential_scad_32_flow//YTHDC2/2024-12-06-03-22-00/
     RDKit          3D

 19 19  0  0  1  0  0  0  0  0999 V2000
    1.1787   -8.0297    3.5154 O   0  0  0  0  0  0  0  0  0  0  0  0
    0.6747   -7.4019    2.7838 C   0  0  0  0  0  0  0  0  0  0  0  0
    0.5570   -6.0797    2.8560 C   0  0  0  0  0  0  0  0  0  0  0  0
   -0.2158   -5.3007    2.0284 C   0  0  0  0  0  0  0  0  0  0  0  0
   -0.8260   -5.9169    1.0290 C   0  0  0  0  0  0  0  0  0  0  0  0
   -0.6925   -7.2407    0.8216 C   0  0  0  0  0  0  0  0  0  0  0  0
    0.1645   -8.0156    1.6621 C   0  0  0  0  0  0  0  0  0  0  0  0
    0.4049   -9.3434    1.4877 C   0  0  0  0  0  0  0  0  0  0  0  0
    0.0670  -10.2565    2.0992 C   0  0  0  0  0  0  0  0  0  0  0  0
   -1.0016  -10.2162    2.9606 C   0  0  2  0  0  0  0  0  0  0  0  0
   -0.8697  -10.7305    4.2076 C   0  0  0  0  0  0  0  0  0  0  0  0
    1.3221   -9.5069    0.2434 C   0  0  0  0  0  0  0  0  0  0  0  0
    1.7204   -8.6917   -0.6780 O   0  0  0  0  0  0  0  0  0  0  0  0
    1.9728  -10.6719    0.0887 O   0  0  0  0  0  0  0  0  0  0  0  0
   -2.2994   -9.7725    2.5851 C   0  0  0  0  0  0  0  0  0  0  0  0
   -2.6555   -9.9659    1.2911 C   0  0  0  0  0  0  0  0  0  0  0  0
   -3.0592   -9.1022    3.4863 O   0  0  0  0  0  0  0  0  0  0  0  0
    0.3878  -11.3477    4.5625 C   0  0  0  0  0  0  0  0  0  0  0  0
   -0.2429   -3.8764    2.1260 O   0  0  0  0  0  0  0  0  0  0  0  0
  1  2  1  0
  7  8  1  0
  8  9  1  0
 10  9  1  6
 10 11  1  0
  8 12  1  0
 12 13  1  0
 12 14  2  0
 10 15  1  0
 15 16  1  0
 15 17  2  0
 11 18  1  0
  4 19  1  0
  2  3  2  0
  3  4  1  0
  4  5  2  0
  5  6  1  0
  6  7  2  0
  2  7  1  0
M  END

$$$$
No_4631-/export/home/yangzhenyu/potential_scad_32_flow//YTHDC2/2024-12-06-03-22-00/
     RDKit          3D

 18 18  0  0  0  0  0  0  0  0999 V2000
    1.1787   -8.0297    3.5154 N   0  0  0  0  0  0  0  0  0  0  0  0
    1.0818   -9.0751    3.2053 C   0  0  0  0  0  0  0  0  0  0  0  0
    0.7576   -9.3725    1.9159 C   0  0  0  0  0  0  0  0  0  0  0  0
    1.2780   -8.6457    1.1231 C   0  0  0  0  0  0  0  0  0  0  0  0
    1.8257   -7.4190    1.2668 C   0  0  0  0  0  0  0  0  0  0  0  0
    1.7766   -6.9690    2.5491 C   0  0  0  0  0  0  0  0  0  0  0  0
    1.2133   -8.9577   -0.4035 C   0  0  0  0  0  0  0  0  0  0  0  0
   -0.0624   -9.2407   -0.7816 O   0  0  0  0  0  0  0  0  0  0  0  0
    2.1485   -8.8590   -1.1801 O   0  0  0  0  0  0  0  0  0  0  0  0
    0.5057   -9.9214    4.3033 C   0  0  0  0  0  0  0  0  0  0  0  0
   -0.9274  -10.3003    4.0897 O   0  0  0  0  0  0  0  0  0  0  0  0
    1.2618  -11.1950    4.4142 O   0  0  0  0  0  0  0  0  0  0  0  0
    2.1005   -5.6705    3.0113 C   0  0  0  0  0  0  0  0  0  0  0  0
    1.7393   -4.6366    2.2222 Br  0  0  0  0  0  0  0  0  0  0  0  0
    0.4966  -10.7860    1.5094 C   0  0  0  0  0  0  0  0  0  0  0  0
   -0.7175  -11.3582    1.4913 C   0  0  0  0  0  0  0  0  0  0  0  0
   -0.9247  -12.6434    1.2068 C   0  0  0  0  0  0  0  0  0  0  0  0
   -1.5579  -12.9885    0.1211 C   0  0  0  0  0  0  0  0  0  0  0  0
  4  7  1  0
  7  8  1  0
  7  9  2  0
  2 10  1  0
 10 11  1  0
 10 12  2  0
  6 13  1  0
 13 14  1  0
  3 15  1  0
 15 16  2  3
 16 17  1  0
 17 18  2  0
  1  2  2  0
  2  3  1  0
  3  4  2  0
  4  5  1  0
  5  6  2  0
  1  6  1  0
M  END

$$$$
No_4632-/export/home/yangzhenyu/potential_scad_32_flow//YTHDC2/2024-12-06-03-22-00/
     RDKit          3D

 20 22  0  0  1  0  0  0  0  0999 V2000
    1.1787   -8.0297    3.5154 C   0  0  0  0  0  0  0  0  0  0  0  0
    1.0491   -6.8434    2.9820 C   0  0  0  0  0  0  0  0  0  0  0  0
    0.9905   -9.0774    2.6527 C   0  0  0  0  0  0  0  0  0  0  0  0
    0.9687   -8.6883    1.3634 C   0  0  0  0  0  0  0  0  0  0  0  0
    1.0948   -6.3768    1.7686 C   0  0  0  0  0  0  0  0  0  0  0  0
    0.9504   -7.3975    0.8471 C   0  0  0  0  0  0  0  0  0  0  0  0
    1.0365  -10.4250    2.9992 C   0  0  0  0  0  0  0  0  0  0  0  0
   -0.0815  -11.0912    3.0879 C   0  0  0  0  0  0  0  0  0  0  0  0
   -0.3071  -11.8794    2.3508 C   0  0  0  0  0  0  0  0  0  0  0  0
    0.7087  -12.7458    1.7433 C   0  0  0  0  0  0  0  0  0  0  0  0
    2.0571  -12.1559    1.8220 C   0  0  0  0  0  0  0  0  0  0  0  0
    2.1923  -10.9833    2.4525 N   0  0  0  0  0  0  0  0  0  0  0  0
    0.6622  -13.9415    1.0253 C   0  0  1  0  0  0  0  0  0  0  0  0
    1.1027   -5.0217    1.3113 Br  0  0  0  0  0  0  0  0  0  0  0  0
   -0.0796  -14.6702    1.2113 C   0  0  0  0  0  0  0  0  0  0  0  0
   -0.2109  -15.9355    0.4890 C   0  0  0  0  0  0  0  0  0  0  0  0
   -0.3466  -15.9157   -0.9266 C   0  0  0  0  0  0  0  0  0  0  0  0
   -0.0767  -14.7520   -1.4336 C   0  0  0  0  0  0  0  0  0  0  0  0
    0.4353  -13.6380   -0.5653 C   0  0  0  0  0  0  0  0  0  0  0  0
   -0.0221  -14.3910   -2.7782 O   0  0  0  0  0  0  0  0  0  0  0  0
  3  7  1  0
 13 10  1  1
  5 14  1  0
 15 16  1  0
 17 18  1  0
 13 19  1  0
 18 19  1  0
 18 20  2  0
 16 17  1  0
 13 15  1  0
  1  2  2  0
  2  5  1  0
  5  6  2  0
  4  6  1  0
  3  4  2  0
  1  3  1  0
  7  8  2  0
  8  9  1  0
  9 10  2  0
 10 11  1  0
 11 12  2  0
  7 12  1  0
M  END

$$$$
No_4633-/export/home/yangzhenyu/potential_scad_32_flow//YTHDC2/2024-12-06-03-22-00/
     RDKit          3D

 17 17  0  0  1  0  0  0  0  0999 V2000
    1.1787   -8.0297    3.5154 C   0  0  0  0  0  0  0  0  0  0  0  0
    1.1048   -9.2215    3.2892 C   0  0  0  0  0  0  0  0  0  0  0  0
    1.2339   -9.7611    2.0189 C   0  0  0  0  0  0  0  0  0  0  0  0
    1.3583   -9.0036    0.9764 C   0  0  0  0  0  0  0  0  0  0  0  0
    1.5996   -7.6362    1.1311 C   0  0  0  0  0  0  0  0  0  0  0  0
    1.4830   -7.0928    2.3626 C   0  0  0  0  0  0  0  0  0  0  0  0
    1.4898   -5.7274    2.6199 C   0  0  0  0  0  0  0  0  0  0  0  0
    1.1681  -11.2222    1.8390 C   0  0  2  0  0  0  0  0  0  0  0  0
    0.7145  -11.5870    0.5424 C   0  0  0  0  0  0  0  0  0  0  0  0
   -0.1922  -10.9837   -0.0791 C   0  0  0  0  0  0  0  0  0  0  0  0
    1.2328  -12.1195    2.8070 C   0  0  0  0  0  0  0  0  0  0  0  0
    0.3229  -12.9972    2.8981 C   0  0  0  0  0  0  0  0  0  0  0  0
    0.8035  -14.3825    3.1939 C   0  0  0  0  0  0  0  0  0  0  0  0
    2.1886  -14.6909    2.6328 Cl  0  0  0  0  0  0  0  0  0  0  0  0
    0.0119  -15.4924    3.0435 O   0  0  0  0  0  0  0  0  0  0  0  0
    1.6665   -5.1851    3.8501 O   0  0  0  0  0  0  0  0  0  0  0  0
    1.3552   -4.8356    1.6628 O   0  0  0  0  0  0  0  0  0  0  0  0
  6  7  1  0
  3  8  1  0
  8  9  1  0
  9 10  2  0
  8 11  1  1
 11 12  1  0
 12 13  1  0
 13 14  1  0
 13 15  2  0
  7 16  1  0
  7 17  2  0
  1  2  2  0
  2  3  1  0
  3  4  2  0
  4  5  1  0
  5  6  2  0
  1  6  1  0
M  END

$$$$
No_4634-/export/home/yangzhenyu/potential_scad_32_flow//YTHDC2/2024-12-06-03-22-00/
     RDKit          3D

 18 19  0  0  0  0  0  0  0  0999 V2000
    1.1787   -8.0297    3.5154 C   0  0  0  0  0  0  0  0  0  0  0  0
    1.1048   -9.2215    3.2892 C   0  0  0  0  0  0  0  0  0  0  0  0
    1.2339   -9.7611    2.0189 C   0  0  0  0  0  0  0  0  0  0  0  0
    1.3583   -9.0036    0.9764 C   0  0  0  0  0  0  0  0  0  0  0  0
    1.5996   -7.6362    1.1311 C   0  0  0  0  0  0  0  0  0  0  0  0
    1.4830   -7.0928    2.3626 C   0  0  0  0  0  0  0  0  0  0  0  0
    1.1008  -11.2372    1.8542 C   0  0  0  0  0  0  0  0  0  0  0  0
    1.9749  -12.0938    2.2342 C   0  0  0  0  0  0  0  0  0  0  0  0
    1.7533  -13.4231    1.8956 C   0  0  0  0  0  0  0  0  0  0  0  0
    0.8624  -13.8318    1.1071 C   0  0  0  0  0  0  0  0  0  0  0  0
   -0.0624  -12.9093    0.5581 C   0  0  0  0  0  0  0  0  0  0  0  0
    0.1157  -11.5285    0.9404 C   0  0  0  0  0  0  0  0  0  0  0  0
    1.5746   -5.4311    2.6997 Cl  0  0  0  0  0  0  0  0  0  0  0  0
   -0.8050  -10.6461    0.4284 C   0  0  0  0  0  0  0  0  0  0  0  0
   -1.9475  -10.3979    1.1018 C   0  0  0  0  0  0  0  0  0  0  0  0
   -2.3876  -11.1241    2.1513 C   0  0  0  0  0  0  0  0  0  0  0  0
   -3.6047  -10.8966    2.7774 C   0  0  0  0  0  0  0  0  0  0  0  0
   -4.3525   -9.8656    2.3748 C   0  0  0  0  0  0  0  0  0  0  0  0
  3  7  1  0
  6 13  1  0
 12 14  1  0
 14 15  1  0
 15 16  1  0
 16 17  2  3
 17 18  1  0
  1  2  2  0
  2  3  1  0
  3  4  2  0
  4  5  1  0
  5  6  2  0
  1  6  1  0
  7  8  2  0
  8  9  1  0
  9 10  2  0
 10 11  1  0
 11 12  2  0
  7 12  1  0
M  END

$$$$
No_4635-/export/home/yangzhenyu/potential_scad_32_flow//YTHDC2/2024-12-06-03-22-00/
     RDKit          3D

 19 19  0  0  1  0  0  0  0  0999 V2000
    1.1787   -8.0297    3.5154 O   0  0  0  0  0  0  0  0  0  0  0  0
    0.6747   -7.4019    2.7838 C   0  0  0  0  0  0  0  0  0  0  0  0
    0.7594   -8.0032    1.4295 C   0  0  0  0  0  0  0  0  0  0  0  0
    0.3459   -9.1500    1.3581 C   0  0  2  0  0  0  0  0  0  0  0  0
    0.9462   -9.9230    0.3351 C   0  0  0  0  0  0  0  0  0  0  0  0
    0.6395  -11.0790    0.1456 O   0  0  0  0  0  0  0  0  0  0  0  0
    2.1368   -9.4357   -0.2374 O   0  0  0  0  0  0  0  0  0  0  0  0
    1.1195   -5.9537    2.8635 O   0  0  0  0  0  0  0  0  0  0  0  0
   -1.0863   -9.3989    1.3464 C   0  0  2  0  0  0  0  0  0  0  0  0
   -1.5711  -10.0384    2.4233 C   0  0  0  0  0  0  0  0  0  0  0  0
   -2.3064   -9.4839    3.3976 C   0  0  0  0  0  0  0  0  0  0  0  0
   -2.8831  -10.0058    4.2904 C   0  0  0  0  0  0  0  0  0  0  0  0
   -2.7985  -11.3639    4.5104 C   0  0  0  0  0  0  0  0  0  0  0  0
   -2.1544  -12.1074    3.6275 C   0  0  0  0  0  0  0  0  0  0  0  0
   -1.5080  -11.4710    2.5209 C   0  0  0  0  0  0  0  0  0  0  0  0
   -1.8261   -9.1056    0.1703 C   0  0  0  0  0  0  0  0  0  0  0  0
   -1.6104   -8.1258   -0.6711 O   0  0  0  0  0  0  0  0  0  0  0  0
   -2.9474   -9.9427   -0.0364 O   0  0  0  0  0  0  0  0  0  0  0  0
   -3.7164   -9.0922    5.5001 Cl  0  0  0  0  0  0  0  0  0  0  0  0
  1  2  1  0
  2  3  1  0
  4  3  1  6
  4  5  1  0
  5  6  1  0
  5  7  2  0
  2  8  2  0
  4  9  1  0
  9 10  1  0
  9 16  1  6
 16 17  2  0
 16 18  1  0
 12 19  1  0
 10 11  2  0
 11 12  1  0
 12 13  2  0
 13 14  1  0
 14 15  2  0
 10 15  1  0
M  END

$$$$
No_4636-/export/home/yangzhenyu/potential_scad_32_flow//YTHDC2/2024-12-06-03-22-00/
     RDKit          3D

 17 18  0  0  1  0  0  0  0  0999 V2000
    1.1787   -8.0297    3.5154 Cl  0  0  0  0  0  0  0  0  0  0  0  0
    0.7279   -9.0023    2.8722 C   0  0  2  0  0  0  0  0  0  0  0  0
    1.3852  -10.2194    3.0621 C   0  0  0  0  0  0  0  0  0  0  0  0
    1.9070  -10.5856    4.2215 C   0  0  0  0  0  0  0  0  0  0  0  0
    2.1875  -11.9005    4.4959 C   0  0  0  0  0  0  0  0  0  0  0  0
    1.4636  -11.1287    2.0150 C   0  0  0  0  0  0  0  0  0  0  0  0
    1.9591  -12.4380    2.1468 C   0  0  0  0  0  0  0  0  0  0  0  0
    2.2486  -12.8787    3.3806 C   0  0  0  0  0  0  0  0  0  0  0  0
    0.3704   -8.7431    1.4137 C   0  0  0  0  0  0  0  0  0  0  0  0
   -0.1575   -7.9235    1.0896 C   0  0  0  0  0  0  0  0  0  0  0  0
   -0.8282   -7.6983   -0.2055 C   0  0  0  0  0  0  0  0  0  0  0  0
   -0.6397   -8.7974   -0.9900 C   0  0  0  0  0  0  0  0  0  0  0  0
   -0.0409   -9.9240   -0.5934 C   0  0  0  0  0  0  0  0  0  0  0  0
    0.4634  -10.0161    0.7233 C   0  0  0  0  0  0  0  0  0  0  0  0
   -1.2515   -8.7607   -2.3122 O   0  0  0  0  0  0  0  0  0  0  0  0
    2.0042  -13.3656    1.1110 Cl  0  0  0  0  0  0  0  0  0  0  0  0
   -1.3162   -7.6271   -2.9839 C   0  0  0  0  0  0  0  0  0  0  0  0
  2  1  1  6
  2  3  1  0
  2  9  1  0
 12 15  1  0
  7 16  1  0
 15 17  1  0
  9 10  2  0
 10 11  1  0
 11 12  2  0
 12 13  1  0
 13 14  2  0
  9 14  1  0
  3  4  2  0
  4  5  1  0
  5  8  2  0
  7  8  1  0
  6  7  2  0
  3  6  1  0
M  END

$$$$
No_4637-/export/home/yangzhenyu/potential_scad_32_flow//YTHDC2/2024-12-06-03-22-00/
     RDKit          3D

 18 19  0  0  1  0  0  0  0  0999 V2000
    1.1787   -8.0297    3.5154 C   0  0  0  0  0  0  0  0  0  0  0  0
    1.0491   -6.8434    2.9820 C   0  0  0  0  0  0  0  0  0  0  0  0
    0.9905   -9.0774    2.6527 C   0  0  0  0  0  0  0  0  0  0  0  0
    0.7897   -8.9519    1.3691 C   0  0  0  0  0  0  0  0  0  0  0  0
    0.7018   -7.7198    0.7892 C   0  0  0  0  0  0  0  0  0  0  0  0
    0.8918   -6.5957    1.6117 C   0  0  0  0  0  0  0  0  0  0  0  0
    1.0998  -10.4710    3.2437 C   0  0  0  0  0  0  0  0  0  0  0  0
    0.0472  -11.2546    3.3963 C   0  0  2  0  0  0  0  0  0  0  0  0
   -1.1989  -10.6161    3.7011 C   0  0  0  0  0  0  0  0  0  0  0  0
    0.8603   -5.2612    1.2139 C   0  0  0  0  0  0  0  0  0  0  0  0
   -1.3482   -9.7365    4.8109 C   0  0  0  0  0  0  0  0  0  0  0  0
   -2.4223   -9.0519    5.0617 C   0  0  0  0  0  0  0  0  0  0  0  0
   -3.5043   -9.2373    4.3112 C   0  0  0  0  0  0  0  0  0  0  0  0
   -3.5009  -10.0861    3.2832 C   0  0  0  0  0  0  0  0  0  0  0  0
   -2.3713  -10.8408    2.9632 C   0  0  0  0  0  0  0  0  0  0  0  0
    0.2127  -12.5366    3.4266 C   0  0  0  0  0  0  0  0  0  0  0  0
    1.4693  -13.1279    3.4841 C   0  0  0  0  0  0  0  0  0  0  0  0
    1.7131  -14.1716    2.3746 C   0  0  0  0  0  0  0  0  0  0  0  0
  3  7  1  0
  8  7  1  1
  8  9  1  0
  6 10  1  0
  8 16  1  0
 16 17  1  0
 17 18  1  0
  1  2  2  0
  2  6  1  0
  5  6  2  0
  4  5  1  0
  3  4  2  0
  1  3  1  0
  9 11  2  0
 11 12  1  0
 12 13  2  0
 13 14  1  0
 14 15  2  0
  9 15  1  0
M  END

$$$$
No_4638-/export/home/yangzhenyu/potential_scad_32_flow//YTHDC2/2024-12-06-03-22-00/
     RDKit          3D

 18 18  0  0  1  0  0  0  0  0999 V2000
    1.1787   -8.0297    3.5154 C   0  0  0  0  0  0  0  0  0  0  0  0
    1.0491   -6.8434    2.9820 C   0  0  0  0  0  0  0  0  0  0  0  0
    1.9985   -8.9840    2.8958 C   0  0  0  0  0  0  0  0  0  0  0  0
    1.7297   -9.2108    1.6335 C   0  0  2  0  0  0  0  0  0  0  0  0
    2.1788  -10.5482    1.1239 C   0  0  0  0  0  0  0  0  0  0  0  0
    0.8226   -6.9903    1.4377 C   0  0  0  0  0  0  0  0  0  0  0  0
    1.5914   -8.1153    0.8208 C   0  0  0  0  0  0  0  0  0  0  0  0
    2.3898  -10.7430   -0.0922 O   0  0  0  0  0  0  0  0  0  0  0  0
    2.4602  -11.5984    1.9045 N   0  0  0  0  0  0  0  0  0  0  0  0
    2.3190  -12.8972    1.5097 C   0  0  0  0  0  0  0  0  0  0  0  0
    1.4413  -13.7507    2.3336 C   0  0  1  0  0  0  0  0  0  0  0  0
    1.7006  -15.1969    2.1113 C   0  0  0  0  0  0  0  0  0  0  0  0
    2.7770  -15.7082    1.7526 O   0  0  0  0  0  0  0  0  0  0  0  0
    0.5836  -15.9258    2.2105 O   0  0  0  0  0  0  0  0  0  0  0  0
   -0.3048   -6.6040    0.9973 O   0  0  0  0  0  0  0  0  0  0  0  0
    1.7207  -13.4251    3.7514 C   0  0  0  0  0  0  0  0  0  0  0  0
    0.2338  -12.9626    4.1892 C   0  0  0  0  0  0  0  0  0  0  0  0
    0.3137  -11.4199    4.4242 C   0  0  0  0  0  0  0  0  0  0  0  0
  1  2  1  0
  1  3  1  0
  3  4  1  0
  4  5  1  6
  2  6  1  0
  4  7  1  0
  6  7  1  0
  5  8  2  0
  5  9  1  0
  9 10  1  0
 11 10  1  6
 11 12  1  0
 12 13  2  0
 12 14  1  0
  6 15  2  0
 11 16  1  0
 16 17  1  0
 17 18  1  0
M  END

$$$$
No_4639-/export/home/yangzhenyu/potential_scad_32_flow//YTHDC2/2024-12-06-03-22-00/
     RDKit          3D

 17 17  0  0  1  0  0  0  0  0999 V2000
    1.1787   -8.0297    3.5154 N   0  0  0  0  0  0  0  0  0  0  0  0
    1.0818   -9.0751    3.2053 C   0  0  0  0  0  0  0  0  0  0  0  0
    0.7576   -9.3725    1.9159 C   0  0  0  0  0  0  0  0  0  0  0  0
    0.8823   -8.4917    1.0547 C   0  0  0  0  0  0  0  0  0  0  0  0
    1.4631   -7.3107    1.2451 C   0  0  0  0  0  0  0  0  0  0  0  0
    1.6470   -6.9326    2.5669 C   0  0  0  0  0  0  0  0  0  0  0  0
    0.8237  -10.1305    4.2407 C   0  0  1  0  0  0  0  0  0  0  0  0
   -0.4178  -10.6899    4.4426 C   0  0  0  0  0  0  0  0  0  0  0  0
    1.9668  -10.7581    4.7665 C   0  0  0  0  0  0  0  0  0  0  0  0
    3.1824  -10.5853    4.2568 O   0  0  0  0  0  0  0  0  0  0  0  0
    0.8367   -8.8611   -0.3981 C   0  0  0  0  0  0  0  0  0  0  0  0
    1.7295   -8.7959   -1.2387 O   0  0  0  0  0  0  0  0  0  0  0  0
   -0.4620   -8.8270   -0.9172 O   0  0  0  0  0  0  0  0  0  0  0  0
   -0.7109  -11.8453    4.0248 C   0  0  0  0  0  0  0  0  0  0  0  0
    0.1971  -12.5788    3.1642 C   0  0  0  0  0  0  0  0  0  0  0  0
   -0.1406  -13.6578    2.4786 C   0  0  0  0  0  0  0  0  0  0  0  0
    0.9559  -14.3278    1.7464 C   0  0  0  0  0  0  0  0  0  0  0  0
  2  7  1  0
  7  8  1  0
  7  9  1  6
  9 10  2  0
  4 11  1  0
 11 12  2  0
 11 13  1  0
  8 14  2  3
 14 15  1  0
 15 16  2  3
 16 17  1  0
  1  2  2  0
  2  3  1  0
  3  4  2  0
  4  5  1  0
  5  6  2  0
  1  6  1  0
M  END

$$$$
No_4640-/export/home/yangzhenyu/potential_scad_32_flow//YTHDC2/2024-12-06-03-22-00/
     RDKit          3D

 18 19  0  0  1  0  0  0  0  0999 V2000
    1.1787   -8.0297    3.5154 C   0  0  0  0  0  0  0  0  0  0  0  0
    1.1048   -9.2215    3.2892 C   0  0  0  0  0  0  0  0  0  0  0  0
    1.2339   -9.7611    2.0189 C   0  0  0  0  0  0  0  0  0  0  0  0
    1.1954  -11.2312    1.8661 C   0  0  2  0  0  0  0  0  0  0  0  0
    1.5546  -12.1691    2.7931 C   0  0  0  0  0  0  0  0  0  0  0  0
    0.9527   -7.0669    2.3918 C   0  0  0  0  0  0  0  0  0  0  0  0
    1.0618   -7.6392    1.0692 C   0  0  0  0  0  0  0  0  0  0  0  0
    1.2060   -8.9530    0.8578 C   0  0  0  0  0  0  0  0  0  0  0  0
    1.5110  -13.5006    2.3856 C   0  0  0  0  0  0  0  0  0  0  0  0
    1.1461  -13.9087    1.2014 C   0  0  0  0  0  0  0  0  0  0  0  0
    0.9324  -13.0660    0.2177 C   0  0  0  0  0  0  0  0  0  0  0  0
    0.9275  -11.6786    0.5224 C   0  0  0  0  0  0  0  0  0  0  0  0
    1.0094   -5.6129    2.4729 Cl  0  0  0  0  0  0  0  0  0  0  0  0
    1.9079  -14.4151    3.4322 O   0  0  0  0  0  0  0  0  0  0  0  0
    0.4802  -10.8176   -0.3721 O   0  0  0  0  0  0  0  0  0  0  0  0
    1.6331  -15.7318    3.0766 C   0  0  0  0  0  0  0  0  0  0  0  0
    2.7016  -16.4939    2.6979 O   0  0  0  0  0  0  0  0  0  0  0  0
    0.5420  -16.3857    3.5715 C   0  0  0  0  0  0  0  0  0  0  0  0
  4  3  1  6
  4  5  1  0
  9 10  1  0
  4 12  1  0
 11 12  1  0
  6 13  1  0
  9 14  1  0
 12 15  2  0
 14 16  1  0
 16 17  2  0
 16 18  1  0
  5  9  1  0
 10 11  1  0
  1  2  2  0
  2  3  1  0
  3  8  2  0
  7  8  1  0
  6  7  2  0
  1  6  1  0
M  END

$$$$
No_4641-/export/home/yangzhenyu/potential_scad_32_flow//YTHDC2/2024-12-06-03-22-00/
     RDKit          3D

 19 19  0  0  0  0  0  0  0  0999 V2000
    1.1787   -8.0297    3.5154 C   0  0  0  0  0  0  0  0  0  0  0  0
    1.1048   -9.2215    3.2892 C   0  0  0  0  0  0  0  0  0  0  0  0
    1.2339   -9.7611    2.0189 C   0  0  0  0  0  0  0  0  0  0  0  0
    1.1954  -11.2312    1.8661 C   0  0  0  0  0  0  0  0  0  0  0  0
    1.5546  -12.1691    2.7931 C   0  0  0  0  0  0  0  0  0  0  0  0
    0.5849   -7.0929    2.5729 C   0  0  0  0  0  0  0  0  0  0  0  0
    0.5567   -7.6699    1.1955 C   0  0  0  0  0  0  0  0  0  0  0  0
    0.7903   -8.9699    0.9209 C   0  0  0  0  0  0  0  0  0  0  0  0
    0.7585  -13.2773    2.9106 C   0  0  0  0  0  0  0  0  0  0  0  0
    1.3821  -14.5517    2.8039 C   0  0  0  0  0  0  0  0  0  0  0  0
    0.5134  -15.6902    3.0759 O   0  0  0  0  0  0  0  0  0  0  0  0
    1.3198   -9.1590   -0.2942 C   0  0  0  0  0  0  0  0  0  0  0  0
    0.6033   -9.4657   -1.3502 O   0  0  0  0  0  0  0  0  0  0  0  0
    2.6823   -9.5510   -0.5593 O   0  0  0  0  0  0  0  0  0  0  0  0
    2.6157  -14.7759    2.5854 O   0  0  0  0  0  0  0  0  0  0  0  0
    0.5219   -5.6714    2.7360 Br  0  0  0  0  0  0  0  0  0  0  0  0
    0.9794  -11.8135    0.6351 O   0  0  0  0  0  0  0  0  0  0  0  0
    0.8542  -16.8658    2.4263 C   0  0  0  0  0  0  0  0  0  0  0  0
    0.4231  -17.1265    1.2373 C   0  0  0  0  0  0  0  0  0  0  0  0
  3  4  1  0
  4  5  1  0
  5  9  1  0
  9 10  1  0
 10 11  1  0
  8 12  1  0
 12 13  2  0
 12 14  1  0
 10 15  2  0
  6 16  1  0
  4 17  2  0
 11 18  1  0
 18 19  1  0
  1  2  2  0
  2  3  1  0
  3  8  2  0
  7  8  1  0
  6  7  2  0
  1  6  1  0
M  END

$$$$
No_4642-/export/home/yangzhenyu/potential_scad_32_flow//YTHDC2/2024-12-06-03-22-00/
     RDKit          3D

 18 18  0  0  1  0  0  0  0  0999 V2000
    1.1787   -8.0297    3.5154 C   0  0  0  0  0  0  0  0  0  0  0  0
    1.0491   -6.8434    2.9820 C   0  0  0  0  0  0  0  0  0  0  0  0
    0.9905   -9.0774    2.6527 C   0  0  0  0  0  0  0  0  0  0  0  0
    0.7897   -8.9519    1.3691 C   0  0  0  0  0  0  0  0  0  0  0  0
    0.7018   -7.7198    0.7892 C   0  0  0  0  0  0  0  0  0  0  0  0
    0.8918   -6.5957    1.6117 C   0  0  0  0  0  0  0  0  0  0  0  0
    1.0998  -10.4710    3.2437 C   0  0  1  0  0  0  0  0  0  0  0  0
    2.1917  -10.8879    3.7399 C   0  0  0  0  0  0  0  0  0  0  0  0
    0.8983   -5.2566    1.2088 C   0  0  0  0  0  0  0  0  0  0  0  0
   -0.0775  -10.6645    4.2505 C   0  0  0  0  0  0  0  0  0  0  0  0
    1.6025   -4.3593    1.8767 O   0  0  0  0  0  0  0  0  0  0  0  0
   -0.0671   -4.7748    0.5011 O   0  0  0  0  0  0  0  0  0  0  0  0
    2.3668  -12.2115    4.0300 N   0  0  0  0  0  0  0  0  0  0  0  0
   -1.3120  -10.5053    3.6919 C   0  0  0  0  0  0  0  0  0  0  0  0
   -2.2215   -9.6748    4.1795 C   0  0  0  0  0  0  0  0  0  0  0  0
   -3.2835   -9.2666    3.6482 C   0  0  0  0  0  0  0  0  0  0  0  0
   -3.7487  -10.0408    2.6555 C   0  0  0  0  0  0  0  0  0  0  0  0
    1.6230  -12.8706    3.8500 H   0  0  0  0  0  0  0  0  0  0  0  0
  3  7  1  0
  7  8  1  0
  6  9  1  0
  7 10  1  1
  9 11  1  0
  9 12  2  0
  8 13  2  0
 10 14  1  0
 14 15  1  0
 15 16  2  3
 16 17  1  0
  1  2  2  0
  2  6  1  0
  5  6  2  0
  4  5  1  0
  3  4  2  0
  1  3  1  0
 13 18  1  0
M  END

$$$$
No_4643-/export/home/yangzhenyu/potential_scad_32_flow//YTHDC2/2024-12-06-03-22-00/
     RDKit          3D

 17 17  0  0  1  0  0  0  0  0999 V2000
    1.1787   -8.0297    3.5154 O   0  0  0  0  0  0  0  0  0  0  0  0
    0.9969   -8.9689    3.0048 C   0  0  1  0  0  0  0  0  0  0  0  0
    1.3055  -10.1056    3.6616 C   0  0  0  0  0  0  0  0  0  0  0  0
    2.1315  -10.4529    4.2438 C   0  0  0  0  0  0  0  0  0  0  0  0
   -0.0205   -8.7946    1.9507 C   0  0  0  0  0  0  0  0  0  0  0  0
    0.0572   -9.7213    0.9974 C   0  0  2  0  0  0  0  0  0  0  0  0
    1.2251   -9.8784    0.1789 O   0  0  0  0  0  0  0  0  0  0  0  0
   -1.0374   -9.3525   -0.0715 C   0  0  0  0  0  0  0  0  0  0  0  0
   -1.1270   -8.3302   -0.6812 C   0  0  0  0  0  0  0  0  0  0  0  0
   -2.2287   -8.1988   -1.3590 C   0  0  0  0  0  0  0  0  0  0  0  0
   -3.0605   -9.0434   -1.6908 C   0  0  0  0  0  0  0  0  0  0  0  0
   -2.4939  -10.3247   -1.1869 C   0  0  0  0  0  0  0  0  0  0  0  0
   -1.6304  -10.5382   -0.3864 C   0  0  0  0  0  0  0  0  0  0  0  0
    2.4545  -11.8258    4.8195 C   0  0  0  0  0  0  0  0  0  0  0  0
   -1.1608   -8.3247    2.4252 O   0  0  0  0  0  0  0  0  0  0  0  0
    0.3914  -11.3645    3.3401 C   0  0  0  0  0  0  0  0  0  0  0  0
    0.5439  -12.6127    3.7583 C   0  0  0  0  0  0  0  0  0  0  0  0
  2  1  1  1
  2  3  1  0
  3  4  2  3
  2  5  1  0
  5  6  1  0
  6  7  1  6
  6  8  1  0
  4 14  1  0
  5 15  2  0
  3 16  1  0
 16 17  2  0
  8  9  2  0
  9 10  1  0
 10 11  2  0
 11 12  1  0
 12 13  2  0
  8 13  1  0
M  END

$$$$
No_4644-/export/home/yangzhenyu/potential_scad_32_flow//YTHDC2/2024-12-06-03-22-00/
     RDKit          3D

 19 20  0  0  1  0  0  0  0  0999 V2000
    1.1787   -8.0297    3.5154 C   0  0  0  0  0  0  0  0  0  0  0  0
    1.1048   -9.2215    3.2892 C   0  0  0  0  0  0  0  0  0  0  0  0
    1.4683  -10.2314    4.1915 C   0  0  2  0  0  0  0  0  0  0  0  0
    0.8445   -6.9865    2.5175 C   0  0  0  0  0  0  0  0  0  0  0  0
    0.3587   -7.3973    1.3953 C   0  0  0  0  0  0  0  0  0  0  0  0
    0.1901   -8.6971    1.0711 C   0  0  0  0  0  0  0  0  0  0  0  0
    0.5759   -9.6647    1.9442 C   0  0  0  0  0  0  0  0  0  0  0  0
    2.7321  -10.4989    4.4285 C   0  0  0  0  0  0  0  0  0  0  0  0
   -0.0926   -6.3974    0.3403 Cl  0  0  0  0  0  0  0  0  0  0  0  0
    0.5497  -11.4590    3.9962 C   0  0  0  0  0  0  0  0  0  0  0  0
    1.3589  -12.6342    3.8845 O   0  0  0  0  0  0  0  0  0  0  0  0
    0.7078  -13.7086    3.1488 C   0  0  0  0  0  0  0  0  0  0  0  0
    1.4465  -14.8203    3.1486 C   0  0  0  0  0  0  0  0  0  0  0  0
    2.6234  -15.0526    2.6065 C   0  0  0  0  0  0  0  0  0  0  0  0
    2.9849  -16.3803    2.3619 C   0  0  0  0  0  0  0  0  0  0  0  0
    2.2697  -17.4703    2.6694 C   0  0  0  0  0  0  0  0  0  0  0  0
    1.0748  -17.3101    3.2688 C   0  0  0  0  0  0  0  0  0  0  0  0
    0.6134  -15.9640    3.5076 C   0  0  0  0  0  0  0  0  0  0  0  0
   -0.2712  -13.4391    2.4767 O   0  0  0  0  0  0  0  0  0  0  0  0
  2  3  1  0
  3  8  1  6
  5  9  1  0
  3 10  1  0
 10 11  1  0
 11 12  1  0
 12 13  1  0
 12 19  2  0
 13 14  2  0
 14 15  1  0
 15 16  2  0
 16 17  1  0
 17 18  2  0
 13 18  1  0
  1  2  2  0
  2  7  1  0
  6  7  2  0
  5  6  1  0
  4  5  2  0
  1  4  1  0
M  END

$$$$
No_4645-/export/home/yangzhenyu/potential_scad_32_flow//YTHDC2/2024-12-06-03-22-00/
     RDKit          3D

 19 20  0  0  1  0  0  0  0  0999 V2000
    1.1787   -8.0297    3.5154 C   0  0  0  0  0  0  0  0  0  0  0  0
    1.1048   -9.2215    3.2892 C   0  0  0  0  0  0  0  0  0  0  0  0
    1.3627  -10.1721    4.3044 C   0  0  0  0  0  0  0  0  0  0  0  0
    1.7354  -11.4730    3.9023 C   0  0  0  0  0  0  0  0  0  0  0  0
    1.8080  -11.8127    2.7216 C   0  0  0  0  0  0  0  0  0  0  0  0
    1.4028  -10.9289    1.8117 C   0  0  0  0  0  0  0  0  0  0  0  0
    1.2324   -9.6663    1.9861 C   0  0  0  0  0  0  0  0  0  0  0  0
    1.1223   -8.7716    0.9645 C   0  0  0  0  0  0  0  0  0  0  0  0
    0.6910   -7.5259    1.1890 C   0  0  0  0  0  0  0  0  0  0  0  0
    0.8699   -6.9773    2.4690 C   0  0  0  0  0  0  0  0  0  0  0  0
    0.7725   -5.5968    2.6775 C   0  0  2  0  0  0  0  0  0  0  0  0
    1.9775  -13.2469    2.4170 C   0  0  0  0  0  0  0  0  0  0  0  0
    1.5587  -14.1836    3.2271 C   0  0  0  0  0  0  0  0  0  0  0  0
    1.5636  -15.5725    2.9304 O   0  0  0  0  0  0  0  0  0  0  0  0
    1.7036   -4.9552    3.3015 C   0  0  0  0  0  0  0  0  0  0  0  0
    2.4504  -13.6193    1.3355 O   0  0  0  0  0  0  0  0  0  0  0  0
    1.4442   -3.5051    3.3699 O   0  0  0  0  0  0  0  0  0  0  0  0
   -0.4126   -4.9552    2.4141 C   0  0  0  0  0  0  0  0  0  0  0  0
   -1.4462   -5.6598    1.8365 C   0  0  0  0  0  0  0  0  0  0  0  0
 10 11  1  0
  5 12  1  0
 12 13  1  0
 13 14  1  0
 11 15  1  1
 12 16  2  0
 15 17  1  0
 11 18  1  0
 18 19  2  0
  1  2  2  0
  7  8  2  0
  8  9  1  0
  9 10  2  0
  1 10  1  0
  2  3  1  0
  3  4  2  0
  4  5  1  0
  5  6  2  0
  6  7  1  0
  2  7  1  0
M  END

$$$$
No_4646-/export/home/yangzhenyu/potential_scad_32_flow//YTHDC2/2024-12-06-03-22-00/
     RDKit          3D

 18 18  0  0  0  0  0  0  0  0999 V2000
    1.1787   -8.0297    3.5154 C   0  0  0  0  0  0  0  0  0  0  0  0
    1.0491   -6.8434    2.9820 C   0  0  0  0  0  0  0  0  0  0  0  0
    0.9905   -9.0774    2.6527 C   0  0  0  0  0  0  0  0  0  0  0  0
    0.9687   -8.6883    1.3634 C   0  0  0  0  0  0  0  0  0  0  0  0
    1.0948   -6.3768    1.7686 C   0  0  0  0  0  0  0  0  0  0  0  0
    0.9504   -7.3975    0.8471 C   0  0  0  0  0  0  0  0  0  0  0  0
    0.9617   -9.7173    0.3352 C   0  0  0  0  0  0  0  0  0  0  0  0
    0.7096   -9.5224   -0.9434 O   0  0  0  0  0  0  0  0  0  0  0  0
    0.8303  -11.0897    0.6285 O   0  0  0  0  0  0  0  0  0  0  0  0
    1.0841   -4.8444    1.3244 Cl  0  0  0  0  0  0  0  0  0  0  0  0
    1.1345  -10.5984    3.1142 C   0  0  0  0  0  0  0  0  0  0  0  0
    2.3045  -11.1730    3.0279 C   0  0  0  0  0  0  0  0  0  0  0  0
    2.1629  -12.5190    3.5178 C   0  0  0  0  0  0  0  0  0  0  0  0
    1.7717  -13.5342    2.4297 O   0  0  0  0  0  0  0  0  0  0  0  0
    0.7898  -14.3738    2.7120 C   0  0  0  0  0  0  0  0  0  0  0  0
    0.8005  -15.4743    1.8869 C   0  0  0  0  0  0  0  0  0  0  0  0
    0.8296  -16.3798    2.3763 C   0  0  0  0  0  0  0  0  0  0  0  0
    0.2938  -16.7903    3.6443 C   0  0  0  0  0  0  0  0  0  0  0  0
  4  7  1  0
  7  8  2  0
  7  9  1  0
  5 10  1  0
  3 11  1  0
 11 12  1  0
 12 13  1  0
 13 14  1  0
 14 15  1  0
 15 16  1  0
 16 17  2  3
 17 18  1  0
  1  2  2  0
  2  5  1  0
  5  6  2  0
  4  6  1  0
  3  4  2  0
  1  3  1  0
M  END

$$$$
No_4647-/export/home/yangzhenyu/potential_scad_32_flow//YTHDC2/2024-12-06-03-22-00/
     RDKit          3D

 17 19  0  0  1  0  0  0  0  0999 V2000
    1.1787   -8.0297    3.5154 C   0  0  0  0  0  0  0  0  0  0  0  0
    1.0491   -6.8434    2.9820 C   0  0  0  0  0  0  0  0  0  0  0  0
    0.9905   -9.0774    2.6527 C   0  0  0  0  0  0  0  0  0  0  0  0
    1.1655  -10.4663    3.1286 C   0  0  0  0  0  0  0  0  0  0  0  0
    1.2197  -11.4898    2.5831 C   0  0  0  0  0  0  0  0  0  0  0  0
    1.0589  -11.4458    1.1293 C   0  0  0  0  0  0  0  0  0  0  0  0
    0.9638  -10.3069    0.4651 C   0  0  0  0  0  0  0  0  0  0  0  0
    0.9191   -9.0789    1.1942 C   0  0  0  0  0  0  0  0  0  0  0  0
    0.9198   -7.8339    0.6158 C   0  0  0  0  0  0  0  0  0  0  0  0
    1.0184   -6.6904    1.4953 C   0  0  0  0  0  0  0  0  0  0  0  0
    1.3841  -13.0355    3.2102 C   0  0  0  0  0  0  0  0  0  0  0  0
    0.2061  -13.8297    3.0631 C   0  0  1  0  0  0  0  0  0  0  0  0
    0.6200  -15.2225    3.2878 N   0  0  0  0  0  0  0  0  0  0  0  0
   -0.2056  -16.1413    3.2721 C   0  0  0  0  0  0  0  0  0  0  0  0
   -1.4315  -15.4137    2.9497 C   0  0  0  0  0  0  0  0  0  0  0  0
   -2.5904  -16.0469    2.8850 C   0  0  0  0  0  0  0  0  0  0  0  0
   -1.1235  -14.0809    2.9057 O   0  0  0  0  0  0  0  0  0  0  0  0
  5 11  1  0
 12 11  1  1
 12 13  1  0
 13 14  2  0
 14 15  1  0
 15 16  2  0
 12 17  1  0
 15 17  1  0
  1  2  2  0
  2 10  1  0
  9 10  2  0
  8  9  1  0
  1  3  1  0
  3  4  2  0
  4  5  1  0
  5  6  2  0
  6  7  1  0
  7  8  2  0
  3  8  1  0
M  END

$$$$
No_4648-/export/home/yangzhenyu/potential_scad_32_flow//YTHDC2/2024-12-06-03-22-00/
     RDKit          3D

 19 20  0  0  1  0  0  0  0  0999 V2000
    1.1787   -8.0297    3.5154 N   0  0  0  0  0  0  0  0  0  0  0  0
    0.8669   -7.0905    2.8589 C   0  0  1  0  0  0  0  0  0  0  0  0
    0.8842   -5.8387    3.2677 C   0  0  0  0  0  0  0  0  0  0  0  0
    1.2819   -9.4050    3.1259 C   0  0  0  0  0  0  0  0  0  0  0  0
    1.6244  -10.3514    4.1878 N   0  0  0  0  0  0  0  0  0  0  0  0
    1.1156   -9.8531    1.9825 C   0  0  0  0  0  0  0  0  0  0  0  0
    1.2037  -11.2729    1.6823 C   0  0  0  0  0  0  0  0  0  0  0  0
    1.5208  -12.1467    2.6131 C   0  0  0  0  0  0  0  0  0  0  0  0
    1.7317  -11.7212    3.8672 C   0  0  0  0  0  0  0  0  0  0  0  0
    0.4156   -4.8178    2.3329 C   0  0  0  0  0  0  0  0  0  0  0  0
    0.1495   -5.1845    1.0520 C   0  0  0  0  0  0  0  0  0  0  0  0
    0.5329   -6.9325    1.4070 C   0  0  0  0  0  0  0  0  0  0  0  0
    1.7447  -13.5175    2.2212 C   0  0  0  0  0  0  0  0  0  0  0  0
    0.7627  -14.2386    2.0947 O   0  0  0  0  0  0  0  0  0  0  0  0
    2.8819  -13.9356    1.8317 O   0  0  0  0  0  0  0  0  0  0  0  0
    0.2976   -3.3367    2.6901 C   0  0  0  0  0  0  0  0  0  0  0  0
    1.3128   -2.6607    2.3253 C   0  0  0  0  0  0  0  0  0  0  0  0
    1.2220   -1.1917    2.6710 C   0  0  0  0  0  0  0  0  0  0  0  0
    0.1743   -0.8069    3.4967 C   0  0  0  0  0  0  0  0  0  0  0  0
  2  1  1  6
  2  3  1  0
  1  4  1  0
  3 10  2  0
 10 11  1  0
  2 12  1  0
 11 12  1  0
  8 13  1  0
 13 14  1  0
 13 15  2  0
 10 16  1  0
 16 17  2  3
 17 18  1  0
 18 19  2  0
  4  5  2  0
  5  9  1  0
  8  9  2  0
  7  8  1  0
  6  7  2  0
  4  6  1  0
M  END

$$$$
No_4649-/export/home/yangzhenyu/potential_scad_32_flow//YTHDC2/2024-12-06-03-22-00/
     RDKit          3D

 18 18  0  0  1  0  0  0  0  0999 V2000
    1.1787   -8.0297    3.5154 C   0  0  0  0  0  0  0  0  0  0  0  0
    1.1048   -9.2215    3.2892 C   0  0  0  0  0  0  0  0  0  0  0  0
    1.2339   -9.7611    2.0189 C   0  0  0  0  0  0  0  0  0  0  0  0
    1.1954  -11.2312    1.8661 C   0  0  2  0  0  0  0  0  0  0  0  0
    1.2996  -11.5815    0.5387 C   0  0  0  0  0  0  0  0  0  0  0  0
    1.3263   -7.1208    2.3229 C   0  0  0  0  0  0  0  0  0  0  0  0
    1.3693   -7.6408    1.0625 C   0  0  0  0  0  0  0  0  0  0  0  0
    1.4358   -8.9950    0.8622 C   0  0  0  0  0  0  0  0  0  0  0  0
    0.9078  -11.9576    2.8785 C   0  0  0  0  0  0  0  0  0  0  0  0
    1.6858  -12.5424    3.4975 C   0  0  0  0  0  0  0  0  0  0  0  0
    1.3633   -5.6351    2.5603 Cl  0  0  0  0  0  0  0  0  0  0  0  0
    1.4983  -12.8789    0.3854 O   0  0  0  0  0  0  0  0  0  0  0  0
   -0.4107  -11.5078    3.5675 C   0  0  0  0  0  0  0  0  0  0  0  0
    0.7610  -11.0580   -0.4423 O   0  0  0  0  0  0  0  0  0  0  0  0
   -1.5454  -11.7482    2.7760 C   0  0  0  0  0  0  0  0  0  0  0  0
   -2.5292  -11.8636    3.2510 O   0  0  0  0  0  0  0  0  0  0  0  0
   -3.0521  -10.7453    4.0034 C   0  0  0  0  0  0  0  0  0  0  0  0
   -2.9031   -9.5940    3.5245 C   0  0  0  0  0  0  0  0  0  0  0  0
  3  4  1  0
  4  5  1  6
  4  9  1  0
  9 10  2  0
  6 11  1  0
  5 12  2  0
  9 13  1  0
  5 14  1  0
 13 15  1  0
 15 16  1  0
 16 17  1  0
 17 18  1  0
  1  2  2  0
  2  3  1  0
  3  8  2  0
  7  8  1  0
  6  7  2  0
  1  6  1  0
M  END

$$$$
No_4650-/export/home/yangzhenyu/potential_scad_32_flow//YTHDC2/2024-12-06-03-22-00/
     RDKit          3D

 19 19  0  0  0  0  0  0  0  0999 V2000
    1.1787   -8.0297    3.5154 C   0  0  0  0  0  0  0  0  0  0  0  0
    1.1048   -9.2215    3.2892 C   0  0  0  0  0  0  0  0  0  0  0  0
    1.2339   -9.7611    2.0189 C   0  0  0  0  0  0  0  0  0  0  0  0
    1.4306   -8.9466    1.1170 C   0  0  0  0  0  0  0  0  0  0  0  0
    1.6532   -7.5949    1.1786 C   0  0  0  0  0  0  0  0  0  0  0  0
    1.4973   -7.0739    2.4258 C   0  0  0  0  0  0  0  0  0  0  0  0
    1.4438   -5.6890    2.7316 C   0  0  0  0  0  0  0  0  0  0  0  0
    1.2604  -11.3384    1.8135 C   0  0  0  0  0  0  0  0  0  0  0  0
    1.2587  -11.6332    0.5247 O   0  0  0  0  0  0  0  0  0  0  0  0
    1.1130  -12.0475    2.8021 O   0  0  0  0  0  0  0  0  0  0  0  0
    1.6722   -5.1567    3.9714 O   0  0  0  0  0  0  0  0  0  0  0  0
    1.2851   -4.8041    1.7395 O   0  0  0  0  0  0  0  0  0  0  0  0
    1.7462   -9.4007   -0.2835 C   0  0  0  0  0  0  0  0  0  0  0  0
    2.9241   -9.7434   -0.6081 O   0  0  0  0  0  0  0  0  0  0  0  0
    0.8694   -9.2484   -1.1800 O   0  0  0  0  0  0  0  0  0  0  0  0
    0.8038  -10.1264    4.4270 C   0  0  0  0  0  0  0  0  0  0  0  0
   -0.6799  -10.3527    4.5919 C   0  0  0  0  0  0  0  0  0  0  0  0
   -1.5800   -9.3552    4.6335 C   0  0  0  0  0  0  0  0  0  0  0  0
   -2.6667   -9.4649    4.6214 C   0  0  0  0  0  0  0  0  0  0  0  0
  6  7  1  0
  3  8  1  0
  8  9  1  0
  8 10  2  0
  7 11  1  0
  7 12  2  0
  4 13  1  0
 13 14  1  0
 13 15  2  0
  2 16  1  0
 16 17  1  0
 17 18  1  0
 18 19  2  0
  1  2  2  0
  2  3  1  0
  3  4  2  0
  4  5  1  0
  5  6  2  0
  1  6  1  0
M  END

$$$$
No_4651-/export/home/yangzhenyu/potential_scad_32_flow//YTHDC2/2024-12-06-03-22-00/
     RDKit          3D

 19 21  0  0  0  0  0  0  0  0999 V2000
    1.1787   -8.0297    3.5154 C   0  0  0  0  0  0  0  0  0  0  0  0
    1.1048   -9.2215    3.2892 C   0  0  0  0  0  0  0  0  0  0  0  0
    1.3627  -10.1721    4.3044 C   0  0  0  0  0  0  0  0  0  0  0  0
    1.0682  -11.5187    4.0618 C   0  0  0  0  0  0  0  0  0  0  0  0
    0.6332  -11.9655    2.9682 C   0  0  0  0  0  0  0  0  0  0  0  0
    0.4776  -11.1308    1.9203 C   0  0  0  0  0  0  0  0  0  0  0  0
    0.7470   -9.8274    2.0368 C   0  0  0  0  0  0  0  0  0  0  0  0
    1.0387   -7.0301    2.5175 C   0  0  0  0  0  0  0  0  0  0  0  0
    1.1486   -5.5562    2.7651 C   0  0  0  0  0  0  0  0  0  0  0  0
    0.4339  -13.5730    2.7982 C   0  0  0  0  0  0  0  0  0  0  0  0
    1.3385  -14.2847    3.3434 C   0  0  0  0  0  0  0  0  0  0  0  0
    1.1786  -15.7122    3.1287 C   0  0  0  0  0  0  0  0  0  0  0  0
    0.1078  -16.1799    2.5341 C   0  0  0  0  0  0  0  0  0  0  0  0
   -0.7771  -15.3387    1.9694 C   0  0  0  0  0  0  0  0  0  0  0  0
   -0.5693  -13.9998    2.0869 C   0  0  0  0  0  0  0  0  0  0  0  0
    0.8387   -4.6488    1.9246 C   0  0  0  0  0  0  0  0  0  0  0  0
    0.2498   -4.8956    0.8951 C   0  0  0  0  0  0  0  0  0  0  0  0
   -0.0461   -6.1108    0.5119 C   0  0  0  0  0  0  0  0  0  0  0  0
    0.3206   -7.2049    1.2686 C   0  0  0  0  0  0  0  0  0  0  0  0
  1  2  1  0
  5 10  1  0
  1  8  1  0
  8  9  2  0
  9 16  1  0
 16 17  2  0
 17 18  1  0
 18 19  2  0
  8 19  1  0
  2  3  2  0
  3  4  1  0
  4  5  2  0
  5  6  1  0
  6  7  2  0
  2  7  1  0
 10 11  2  0
 11 12  1  0
 12 13  2  0
 13 14  1  0
 14 15  2  0
 10 15  1  0
M  END

$$$$
No_4652-/export/home/yangzhenyu/potential_scad_32_flow//YTHDC2/2024-12-06-03-22-00/
     RDKit          3D

 18 19  0  0  1  0  0  0  0  0999 V2000
    1.1787   -8.0297    3.5154 N   0  0  0  0  0  0  0  0  0  0  0  0
    0.8669   -7.0905    2.8589 C   0  0  1  0  0  0  0  0  0  0  0  0
    0.8842   -5.8387    3.2677 C   0  0  0  0  0  0  0  0  0  0  0  0
    1.2819   -9.4050    3.1259 C   0  0  0  0  0  0  0  0  0  0  0  0
    1.6244  -10.3514    4.1878 C   0  0  0  0  0  0  0  0  0  0  0  0
    1.6237  -11.7221    3.9802 C   0  0  0  0  0  0  0  0  0  0  0  0
    1.2204  -12.1882    2.7068 C   0  0  0  0  0  0  0  0  0  0  0  0
    1.0191  -11.2853    1.7108 C   0  0  0  0  0  0  0  0  0  0  0  0
    1.0929   -9.9210    1.9465 C   0  0  0  0  0  0  0  0  0  0  0  0
    1.7264   -5.2646    3.9608 C   0  0  0  0  0  0  0  0  0  0  0  0
    1.3547  -13.7524    2.4232 C   0  0  0  0  0  0  0  0  0  0  0  0
    2.1439  -14.1330    1.5128 N   0  0  0  0  0  0  0  0  0  0  0  0
    0.6478  -14.4905    3.1023 O   0  0  0  0  0  0  0  0  0  0  0  0
    0.7979   -7.2628    1.4864 C   0  0  0  0  0  0  0  0  0  0  0  0
    0.8123   -8.7571    0.9704 C   0  0  0  0  0  0  0  0  0  0  0  0
    0.7015   -9.0731   -0.2917 O   0  0  0  0  0  0  0  0  0  0  0  0
    0.4840   -6.5303    0.5300 O   0  0  0  0  0  0  0  0  0  0  0  0
    2.3231  -15.4311    1.2966 C   0  0  0  0  0  0  0  0  0  0  0  0
  1  2  1  0
  2  3  1  6
  1  4  1  0
  3 10  1  0
  7 11  1  0
 11 12  1  0
 11 13  2  0
  2 14  1  0
  9 15  1  0
 14 15  1  0
 15 16  2  0
 14 17  2  0
 12 18  1  0
  4  5  2  0
  5  6  1  0
  6  7  2  0
  7  8  1  0
  8  9  2  0
  4  9  1  0
M  END

$$$$
No_4653-/export/home/yangzhenyu/potential_scad_32_flow//YTHDC2/2024-12-06-03-22-00/
     RDKit          3D

 18 19  0  0  0  0  0  0  0  0999 V2000
    1.1787   -8.0297    3.5154 C   0  0  0  0  0  0  0  0  0  0  0  0
    1.0491   -6.8434    2.9820 C   0  0  0  0  0  0  0  0  0  0  0  0
    0.2462   -8.9560    3.0873 C   0  0  0  0  0  0  0  0  0  0  0  0
    0.3295   -6.5187    1.9069 C   0  0  0  0  0  0  0  0  0  0  0  0
   -0.5260   -8.7862    2.1368 C   0  0  0  0  0  0  0  0  0  0  0  0
   -1.4132   -9.8266    1.7693 C   0  0  0  0  0  0  0  0  0  0  0  0
   -0.5153   -7.5320    1.5099 C   0  0  0  0  0  0  0  0  0  0  0  0
   -1.1605  -11.0344    1.9581 C   0  0  0  0  0  0  0  0  0  0  0  0
   -2.0639  -12.0852    1.6555 C   0  0  0  0  0  0  0  0  0  0  0  0
   -3.1839  -11.7085    0.9147 C   0  0  0  0  0  0  0  0  0  0  0  0
   -3.4823  -10.4793    0.6301 C   0  0  0  0  0  0  0  0  0  0  0  0
   -2.5558   -9.4508    0.9967 C   0  0  0  0  0  0  0  0  0  0  0  0
    0.4218   -5.2673    1.3339 O   0  0  0  0  0  0  0  0  0  0  0  0
   -1.7597  -13.4432    1.8711 C   0  0  0  0  0  0  0  0  0  0  0  0
   -2.7827  -14.2135    2.4368 C   0  0  0  0  0  0  0  0  0  0  0  0
   -2.5496  -15.5571    2.7684 C   0  0  0  0  0  0  0  0  0  0  0  0
   -1.3341  -16.0919    2.4518 C   0  0  0  0  0  0  0  0  0  0  0  0
   -0.2636  -15.3275    1.9991 C   0  0  0  0  0  0  0  0  0  0  0  0
  1  3  1  0
  2  4  1  0
  5  6  1  0
  4  7  1  0
  5  7  1  0
  4 13  2  0
  9 14  1  0
 14 15  1  0
 15 16  2  3
 16 17  1  0
 17 18  2  0
  1  2  1  0
  3  5  1  0
  6  8  2  0
  8  9  1  0
  9 10  2  0
 10 11  1  0
 11 12  2  0
  6 12  1  0
M  END

$$$$
No_4654-/export/home/yangzhenyu/potential_scad_32_flow//YTHDC2/2024-12-06-03-22-00/
     RDKit          3D

 18 18  0  0  1  0  0  0  0  0999 V2000
    1.1787   -8.0297    3.5154 C   0  0  0  0  0  0  0  0  0  0  0  0
    1.0491   -6.8434    2.9820 C   0  0  0  0  0  0  0  0  0  0  0  0
    0.9905   -9.0774    2.6527 C   0  0  0  0  0  0  0  0  0  0  0  0
    0.7897   -8.9519    1.3691 C   0  0  0  0  0  0  0  0  0  0  0  0
    0.7018   -7.7198    0.7892 C   0  0  0  0  0  0  0  0  0  0  0  0
    0.8918   -6.5957    1.6117 C   0  0  0  0  0  0  0  0  0  0  0  0
    1.0998  -10.4710    3.2437 C   0  0  1  0  0  0  0  0  0  0  0  0
    2.1917  -10.8879    3.7399 C   0  0  0  0  0  0  0  0  0  0  0  0
    0.8624   -5.2493    1.2482 C   0  0  0  0  0  0  0  0  0  0  0  0
   -0.0161  -11.2304    3.3728 C   0  0  0  0  0  0  0  0  0  0  0  0
   -1.1393  -10.5491    3.9487 O   0  0  0  0  0  0  0  0  0  0  0  0
   -0.2534  -12.3729    2.9094 O   0  0  0  0  0  0  0  0  0  0  0  0
   -0.2257   -4.7361    0.7808 O   0  0  0  0  0  0  0  0  0  0  0  0
    2.2322  -11.5683    5.0291 C   0  0  0  0  0  0  0  0  0  0  0  0
    1.7408   -4.3029    1.7474 O   0  0  0  0  0  0  0  0  0  0  0  0
    2.4220  -10.4809    6.0829 O   0  0  0  0  0  0  0  0  0  0  0  0
    0.6224  -10.0233    0.3662 C   0  0  0  0  0  0  0  0  0  0  0  0
   -0.4729  -10.3704   -0.0093 O   0  0  0  0  0  0  0  0  0  0  0  0
  3  7  1  0
  7  8  1  1
  6  9  1  0
  7 10  1  0
 10 11  1  0
 10 12  2  0
  9 13  1  0
  8 14  1  0
  9 15  2  0
 14 16  1  0
  4 17  1  0
 17 18  2  0
  1  2  2  0
  2  6  1  0
  5  6  2  0
  4  5  1  0
  3  4  2  0
  1  3  1  0
M  END

$$$$
No_4655-/export/home/yangzhenyu/potential_scad_32_flow//YTHDC2/2024-12-06-03-22-00/
     RDKit          3D

 19 21  0  0  0  0  0  0  0  0999 V2000
    1.1787   -8.0297    3.5154 C   0  0  0  0  0  0  0  0  0  0  0  0
    1.0491   -6.8434    2.9820 C   0  0  0  0  0  0  0  0  0  0  0  0
    0.9905   -9.0774    2.6527 C   0  0  0  0  0  0  0  0  0  0  0  0
    0.7897   -8.9519    1.3691 C   0  0  0  0  0  0  0  0  0  0  0  0
    0.7018   -7.7198    0.7892 C   0  0  0  0  0  0  0  0  0  0  0  0
    0.8918   -6.5957    1.6117 C   0  0  0  0  0  0  0  0  0  0  0  0
    1.0998  -10.4710    3.2437 C   0  0  0  0  0  0  0  0  0  0  0  0
    0.0472  -11.2546    3.3963 C   0  0  0  0  0  0  0  0  0  0  0  0
    0.1622  -12.5732    3.4140 C   0  0  0  0  0  0  0  0  0  0  0  0
    1.4182  -13.1957    3.4048 C   0  0  0  0  0  0  0  0  0  0  0  0
    2.5550  -12.3947    3.0877 C   0  0  0  0  0  0  0  0  0  0  0  0
    2.4166  -11.0849    2.9699 C   0  0  0  0  0  0  0  0  0  0  0  0
    0.8666   -5.2662    1.1708 N   0  0  0  0  0  0  0  0  0  0  0  0
    1.4107  -14.5585    3.3690 F   0  0  0  0  0  0  0  0  0  0  0  0
    1.3553   -5.6428    3.7698 C   0  0  0  0  0  0  0  0  0  0  0  0
    1.7050   -4.5030    3.4541 C   0  0  0  0  0  0  0  0  0  0  0  0
    1.2206   -4.1352    1.9337 C   0  0  0  0  0  0  0  0  0  0  0  0
    1.2807   -2.9285    1.4241 C   0  0  0  0  0  0  0  0  0  0  0  0
    1.8388   -2.1849    1.8357 C   0  0  0  0  0  0  0  0  0  0  0  0
  3  7  1  0
 10 14  1  0
 17 18  1  0
 18 19  2  0
  1  2  2  0
  5  6  2  0
  4  5  1  0
  3  4  2  0
  1  3  1  0
  7  8  2  0
  8  9  1  0
  9 10  2  0
 10 11  1  0
 11 12  2  0
  7 12  1  0
  2  6  1  0
  6 13  1  0
 13 17  2  0
 16 17  1  0
 15 16  2  0
  2 15  1  0
M  END

$$$$
No_4656-/export/home/yangzhenyu/potential_scad_32_flow//YTHDC2/2024-12-06-03-22-00/
     RDKit          3D

 18 18  0  0  0  0  0  0  0  0999 V2000
    1.1787   -8.0297    3.5154 C   0  0  0  0  0  0  0  0  0  0  0  0
    1.0491   -6.8434    2.9820 C   0  0  0  0  0  0  0  0  0  0  0  0
    1.9985   -8.9840    2.8958 C   0  0  0  0  0  0  0  0  0  0  0  0
    1.1814  -10.1889    2.5497 C   0  0  0  0  0  0  0  0  0  0  0  0
    0.3496  -10.1352    1.6536 C   0  0  0  0  0  0  0  0  0  0  0  0
   -0.8355  -10.5689    1.8958 C   0  0  0  0  0  0  0  0  0  0  0  0
   -1.0417  -11.4150    2.9972 C   0  0  0  0  0  0  0  0  0  0  0  0
    0.0974  -11.7237    3.8799 C   0  0  0  0  0  0  0  0  0  0  0  0
    1.2333  -10.9395    3.7501 C   0  0  0  0  0  0  0  0  0  0  0  0
    1.7731   -5.7931    3.0567 O   0  0  0  0  0  0  0  0  0  0  0  0
    0.1792   -6.6547    1.9107 O   0  0  0  0  0  0  0  0  0  0  0  0
    2.3276  -11.1329    4.4447 C   0  0  0  0  0  0  0  0  0  0  0  0
    0.4552   -9.3341    0.4253 C   0  0  0  0  0  0  0  0  0  0  0  0
    1.6828   -9.1898   -0.1936 C   0  0  0  0  0  0  0  0  0  0  0  0
    2.6874   -9.8815   -0.0419 O   0  0  0  0  0  0  0  0  0  0  0  0
    1.8553   -8.1374   -1.0795 N   0  0  0  0  0  0  0  0  0  0  0  0
    2.7358  -10.1088    5.2828 O   0  0  0  0  0  0  0  0  0  0  0  0
    3.0195  -12.1558    4.4731 O   0  0  0  0  0  0  0  0  0  0  0  0
  1  2  1  0
  1  3  1  0
  3  4  1  0
  2 10  1  0
  2 11  2  0
  9 12  1  0
  5 13  1  0
 13 14  1  0
 14 15  2  0
 14 16  1  0
 12 17  1  0
 12 18  2  0
  4  5  2  0
  5  6  1  0
  6  7  2  0
  7  8  1  0
  8  9  2  0
  4  9  1  0
M  END

$$$$
No_4657-/export/home/yangzhenyu/potential_scad_32_flow//YTHDC2/2024-12-06-03-22-00/
     RDKit          3D

 19 20  0  0  1  0  0  0  0  0999 V2000
    1.1787   -8.0297    3.5154 C   0  0  0  0  0  0  0  0  0  0  0  0
    1.1048   -9.2215    3.2892 C   0  0  0  0  0  0  0  0  0  0  0  0
    1.2339   -9.7611    2.0189 C   0  0  0  0  0  0  0  0  0  0  0  0
    1.3583   -9.0036    0.9764 C   0  0  0  0  0  0  0  0  0  0  0  0
    1.5996   -7.6362    1.1311 C   0  0  0  0  0  0  0  0  0  0  0  0
    1.4830   -7.0928    2.3626 C   0  0  0  0  0  0  0  0  0  0  0  0
    1.1008  -11.2372    1.8542 C   0  0  1  0  0  0  0  0  0  0  0  0
    0.4812  -11.6084    0.6459 C   0  0  0  0  0  0  0  0  0  0  0  0
   -0.3691  -10.9312    0.0124 C   0  0  0  0  0  0  0  0  0  0  0  0
   -1.0102  -11.3797   -1.1447 C   0  0  0  0  0  0  0  0  0  0  0  0
   -1.7633  -10.5197   -1.9537 C   0  0  0  0  0  0  0  0  0  0  0  0
   -1.9771   -9.1740   -1.3689 C   0  0  0  0  0  0  0  0  0  0  0  0
   -1.3247   -8.7110   -0.3076 C   0  0  0  0  0  0  0  0  0  0  0  0
   -0.5493   -9.5562    0.4453 C   0  0  0  0  0  0  0  0  0  0  0  0
    1.4672   -5.6529    2.6249 Cl  0  0  0  0  0  0  0  0  0  0  0  0
    1.9816  -12.0631    2.4920 C   0  0  0  0  0  0  0  0  0  0  0  0
    1.8062  -13.3987    2.2977 C   0  0  0  0  0  0  0  0  0  0  0  0
    2.5605  -14.3269    3.1801 C   0  0  0  0  0  0  0  0  0  0  0  0
    2.3943  -15.7119    2.9399 O   0  0  0  0  0  0  0  0  0  0  0  0
  3  7  1  0
  7  8  1  6
  6 15  1  0
  7 16  1  0
 16 17  2  3
 17 18  1  0
 18 19  2  0
  8  9  1  0
  1  2  2  0
  2  3  1  0
  3  4  2  0
  4  5  1  0
  5  6  2  0
  1  6  1  0
  9 10  2  0
 10 11  1  0
 11 12  2  0
 12 13  1  0
 13 14  2  0
  9 14  1  0
M  END

$$$$
No_4658-/export/home/yangzhenyu/potential_scad_32_flow//YTHDC2/2024-12-06-03-22-00/
     RDKit          3D

 19 20  0  0  0  0  0  0  0  0999 V2000
    1.1787   -8.0297    3.5154 C   0  0  0  0  0  0  0  0  0  0  0  0
    1.1048   -9.2215    3.2892 C   0  0  0  0  0  0  0  0  0  0  0  0
    1.2339   -9.7611    2.0189 C   0  0  0  0  0  0  0  0  0  0  0  0
    1.3583   -9.0036    0.9764 C   0  0  0  0  0  0  0  0  0  0  0  0
    1.5996   -7.6362    1.1311 C   0  0  0  0  0  0  0  0  0  0  0  0
    1.4830   -7.0928    2.3626 C   0  0  0  0  0  0  0  0  0  0  0  0
    1.1008  -11.2372    1.8542 C   0  0  0  0  0  0  0  0  0  0  0  0
    1.9749  -12.0938    2.2342 C   0  0  0  0  0  0  0  0  0  0  0  0
    1.5180  -13.3509    2.5910 C   0  0  0  0  0  0  0  0  0  0  0  0
    0.4120  -13.9272    2.2191 C   0  0  0  0  0  0  0  0  0  0  0  0
   -0.5860  -13.0563    1.8308 C   0  0  0  0  0  0  0  0  0  0  0  0
   -0.2264  -11.7453    1.4928 C   0  0  0  0  0  0  0  0  0  0  0  0
    1.5759   -5.6593    2.6277 Br  0  0  0  0  0  0  0  0  0  0  0  0
    0.0981  -15.2161    2.5396 C   0  0  0  0  0  0  0  0  0  0  0  0
   -1.1264  -15.7337    2.5351 C   0  0  0  0  0  0  0  0  0  0  0  0
   -1.8129  -16.3089    3.1499 C   0  0  0  0  0  0  0  0  0  0  0  0
   -3.1335  -16.5518    3.0469 C   0  0  0  0  0  0  0  0  0  0  0  0
   -3.5482  -16.1693    1.8158 C   0  0  0  0  0  0  0  0  0  0  0  0
   -2.8000  -15.5794    0.9586 C   0  0  0  0  0  0  0  0  0  0  0  0
  3  7  1  0
  6 13  1  0
 10 14  1  0
 14 15  2  3
 15 16  1  0
 16 17  2  3
 17 18  1  0
 18 19  2  0
  1  2  2  0
  2  3  1  0
  3  4  2  0
  4  5  1  0
  5  6  2  0
  1  6  1  0
  7  8  2  0
  8  9  1  0
  9 10  2  0
 10 11  1  0
 11 12  2  0
  7 12  1  0
M  END

$$$$
No_4659-/export/home/yangzhenyu/potential_scad_32_flow//YTHDC2/2024-12-06-03-22-00/
     RDKit          3D

 21 22  0  0  0  0  0  0  0  0999 V2000
    1.1787   -8.0297    3.5154 C   0  0  0  0  0  0  0  0  0  0  0  0
    1.1048   -9.2215    3.2892 C   0  0  0  0  0  0  0  0  0  0  0  0
    1.3627  -10.1721    4.3044 C   0  0  0  0  0  0  0  0  0  0  0  0
    1.7354  -11.4730    3.9023 C   0  0  0  0  0  0  0  0  0  0  0  0
    1.8080  -11.8127    2.7216 C   0  0  0  0  0  0  0  0  0  0  0  0
    1.5854  -11.0021    1.7249 C   0  0  0  0  0  0  0  0  0  0  0  0
    1.3573   -9.7389    1.9287 C   0  0  0  0  0  0  0  0  0  0  0  0
    1.2865   -8.8078    0.9161 C   0  0  0  0  0  0  0  0  0  0  0  0
    1.6845   -9.1638   -0.2896 C   0  0  0  0  0  0  0  0  0  0  0  0
    2.0917  -13.3473    2.3482 O   0  0  0  0  0  0  0  0  0  0  0  0
    1.6805   -8.1271   -1.3859 O   0  0  0  0  0  0  0  0  0  0  0  0
    0.1044   -7.2181    3.3605 O   0  0  0  0  0  0  0  0  0  0  0  0
    1.7446  -13.8338    1.1423 C   0  0  0  0  0  0  0  0  0  0  0  0
    0.7099  -14.7090    1.3147 C   0  0  0  0  0  0  0  0  0  0  0  0
    0.9196  -15.5955    2.2740 C   0  0  0  0  0  0  0  0  0  0  0  0
   -0.0194  -15.8505    3.2317 C   0  0  0  0  0  0  0  0  0  0  0  0
    0.2305  -16.8357    4.2904 C   0  0  0  0  0  0  0  0  0  0  0  0
    1.2534  -17.6117    4.2541 C   0  0  0  0  0  0  0  0  0  0  0  0
    2.2395  -17.4337    3.2982 C   0  0  0  0  0  0  0  0  0  0  0  0
    2.0815  -16.5015    2.2276 C   0  0  0  0  0  0  0  0  0  0  0  0
   -0.1939  -14.6397    0.5148 O   0  0  0  0  0  0  0  0  0  0  0  0
  1  2  1  0
  7  8  1  0
  8  9  2  3
  5 10  1  0
  9 11  1  0
  1 12  1  0
 10 13  1  0
 13 14  1  0
 14 15  1  0
 14 21  2  0
 15 16  2  0
 16 17  1  0
 17 18  2  0
 18 19  1  0
 19 20  2  0
 15 20  1  0
  2  3  2  0
  3  4  1  0
  4  5  2  0
  5  6  1  0
  6  7  2  0
  2  7  1  0
M  END

$$$$
No_4660-/export/home/yangzhenyu/potential_scad_32_flow//YTHDC2/2024-12-06-03-22-00/
     RDKit          3D

 18 19  0  0  0  0  0  0  0  0999 V2000
    1.1787   -8.0297    3.5154 C   0  0  0  0  0  0  0  0  0  0  0  0
    1.0491   -6.8434    2.9820 C   0  0  0  0  0  0  0  0  0  0  0  0
    0.0950   -8.8404    3.2292 C   0  0  0  0  0  0  0  0  0  0  0  0
   -0.9173   -8.4596    2.5152 C   0  0  0  0  0  0  0  0  0  0  0  0
   -1.0331   -7.2162    2.0653 C   0  0  0  0  0  0  0  0  0  0  0  0
   -0.0105   -6.3168    2.3081 C   0  0  0  0  0  0  0  0  0  0  0  0
    0.1465  -10.2446    3.6981 C   0  0  0  0  0  0  0  0  0  0  0  0
    0.1907  -11.3369    2.8651 N   0  0  0  0  0  0  0  0  0  0  0  0
    1.0148  -11.9904    2.6557 C   0  0  0  0  0  0  0  0  0  0  0  0
    1.3691  -12.9335    2.6877 C   0  0  0  0  0  0  0  0  0  0  0  0
    0.2243  -13.9084    2.8456 C   0  0  0  0  0  0  0  0  0  0  0  0
   -0.9656  -13.4170    2.9650 C   0  0  0  0  0  0  0  0  0  0  0  0
   -1.0805  -12.0576    3.0649 C   0  0  0  0  0  0  0  0  0  0  0  0
    0.4230  -15.4161    2.7472 C   0  0  0  0  0  0  0  0  0  0  0  0
    1.7309  -15.8951    2.5681 C   0  0  0  0  0  0  0  0  0  0  0  0
    1.8694  -17.3057    2.7990 C   0  0  0  0  0  0  0  0  0  0  0  0
    0.9285  -18.0916    3.0945 C   0  0  0  0  0  0  0  0  0  0  0  0
   -0.2798  -17.6500    3.3024 C   0  0  0  0  0  0  0  0  0  0  0  0
  3  7  1  0
  7  8  1  0
  8  9  1  0
 10 11  1  0
  8 13  1  0
 12 13  1  0
 11 14  1  0
 14 15  1  0
 15 16  2  3
 16 17  1  0
 17 18  2  0
  9 10  1  0
 11 12  1  0
  1  2  2  0
  2  6  1  0
  5  6  2  0
  4  5  1  0
  3  4  2  0
  1  3  1  0
M  END

$$$$
No_4661-/export/home/yangzhenyu/potential_scad_32_flow//YTHDC2/2024-12-06-03-22-00/
     RDKit          3D

 18 19  0  0  1  0  0  0  0  0999 V2000
    1.1787   -8.0297    3.5154 C   0  0  0  0  0  0  0  0  0  0  0  0
    1.0491   -6.8434    2.9820 C   0  0  0  0  0  0  0  0  0  0  0  0
    0.0950   -8.8404    3.2292 C   0  0  0  0  0  0  0  0  0  0  0  0
   -0.9173   -8.4596    2.5152 C   0  0  0  0  0  0  0  0  0  0  0  0
   -1.0331   -7.2162    2.0653 C   0  0  0  0  0  0  0  0  0  0  0  0
   -0.0105   -6.3168    2.3081 C   0  0  0  0  0  0  0  0  0  0  0  0
    0.0485   -4.9783    1.8782 C   0  0  0  0  0  0  0  0  0  0  0  0
    0.9625   -4.1072    2.3252 O   0  0  0  0  0  0  0  0  0  0  0  0
   -0.9023   -4.3813    1.1355 O   0  0  0  0  0  0  0  0  0  0  0  0
    0.2146  -10.5029    3.9362 C   0  0  0  0  0  0  0  0  0  0  0  0
    1.3752  -11.0513    4.0889 C   0  0  0  0  0  0  0  0  0  0  0  0
    1.8721  -11.7587    2.9293 C   0  0  0  0  0  0  0  0  0  0  0  0
    0.7966  -12.2187    2.2367 C   0  0  0  0  0  0  0  0  0  0  0  0
    0.6594  -13.7331    2.2611 C   0  0  1  0  0  0  0  0  0  0  0  0
    1.8134  -14.4312    2.8710 C   0  0  0  0  0  0  0  0  0  0  0  0
    1.5914  -15.8867    2.8635 C   0  0  0  0  0  0  0  0  0  0  0  0
    0.3106  -16.1352    2.3068 C   0  0  0  0  0  0  0  0  0  0  0  0
   -0.1645  -14.7429    2.0388 C   0  0  0  0  0  0  0  0  0  0  0  0
  6  7  1  0
  7  8  2  0
  7  9  1  0
  3 10  1  0
 10 11  1  0
 11 12  1  0
 12 13  1  0
 14 13  1  1
 14 15  1  0
 15 16  2  0
 16 17  1  0
 14 18  1  0
 17 18  1  0
  1  2  2  0
  2  6  1  0
  5  6  2  0
  4  5  1  0
  3  4  2  0
  1  3  1  0
M  END

$$$$
No_4662-/export/home/yangzhenyu/potential_scad_32_flow//YTHDC2/2024-12-06-03-22-00/
     RDKit          3D

 19 19  0  0  1  0  0  0  0  0999 V2000
    1.1787   -8.0297    3.5154 C   0  0  0  0  0  0  0  0  0  0  0  0
    1.0491   -6.8434    2.9820 C   0  0  0  0  0  0  0  0  0  0  0  0
    1.9985   -8.9840    2.8958 C   0  0  0  0  0  0  0  0  0  0  0  0
    1.9135  -10.3404    3.6266 C   0  0  0  0  0  0  0  0  0  0  0  0
    0.7479  -10.9191    3.7202 C   0  0  0  0  0  0  0  0  0  0  0  0
    1.8085   -5.7988    3.2380 O   0  0  0  0  0  0  0  0  0  0  0  0
    0.5684   -6.8510    1.6493 O   0  0  0  0  0  0  0  0  0  0  0  0
    0.3050  -11.6362    2.5680 O   0  0  0  0  0  0  0  0  0  0  0  0
    1.1461  -12.4435    2.0071 C   0  0  2  0  0  0  0  0  0  0  0  0
    1.5104  -12.1231    0.8461 C   0  0  0  0  0  0  0  0  0  0  0  0
    1.2485  -10.7679    0.4262 O   0  0  0  0  0  0  0  0  0  0  0  0
    0.9342  -13.8796    2.0778 C   0  0  0  0  0  0  0  0  0  0  0  0
   -0.0465  -14.2934    1.6477 C   0  0  0  0  0  0  0  0  0  0  0  0
   -0.0135  -15.7729    1.5277 C   0  0  0  0  0  0  0  0  0  0  0  0
    0.7611  -16.5288    2.2339 C   0  0  0  0  0  0  0  0  0  0  0  0
    1.8852  -15.9938    2.8498 C   0  0  0  0  0  0  0  0  0  0  0  0
    2.0386  -14.5596    2.7833 C   0  0  0  0  0  0  0  0  0  0  0  0
    2.3869  -12.5581    0.1395 O   0  0  0  0  0  0  0  0  0  0  0  0
    0.7969  -18.1691    2.2932 Cl  0  0  0  0  0  0  0  0  0  0  0  0
  1  2  1  0
  1  3  1  0
  3  4  1  0
  4  5  1  0
  2  6  2  0
  2  7  1  0
  5  8  1  0
  9  8  1  6
  9 10  1  0
 10 11  1  0
  9 12  1  0
 10 18  2  0
 15 19  1  0
 12 13  2  0
 13 14  1  0
 14 15  2  0
 15 16  1  0
 16 17  2  0
 12 17  1  0
M  END

$$$$
No_4663-/export/home/yangzhenyu/potential_scad_32_flow//YTHDC2/2024-12-06-03-22-00/
     RDKit          3D

 12 12  0  0  0  0  0  0  0  0999 V2000
    1.1787   -8.0297    3.5154 C   0  0  0  0  0  0  0  0  0  0  0  0
    1.1048   -9.2215    3.2892 C   0  0  0  0  0  0  0  0  0  0  0  0
    1.2339   -9.7611    2.0189 C   0  0  0  0  0  0  0  0  0  0  0  0
    1.4306   -8.9466    1.1170 C   0  0  0  0  0  0  0  0  0  0  0  0
    1.6532   -7.5949    1.1786 C   0  0  0  0  0  0  0  0  0  0  0  0
    1.4973   -7.0739    2.4258 C   0  0  0  0  0  0  0  0  0  0  0  0
    1.5178   -5.6803    2.7303 C   0  0  0  0  0  0  0  0  0  0  0  0
    1.2507  -11.3384    1.8133 C   0  0  0  0  0  0  0  0  0  0  0  0
    1.2473  -11.6326    0.5245 C   0  0  0  0  0  0  0  0  0  0  0  0
    1.2586  -13.0874    0.5650 F   0  0  0  0  0  0  0  0  0  0  0  0
    1.3064   -4.7752    1.7455 O   0  0  0  0  0  0  0  0  0  0  0  0
    1.4809   -5.2211    3.9971 O   0  0  0  0  0  0  0  0  0  0  0  0
  6  7  1  0
  3  8  1  0
  8  9  1  0
  9 10  1  0
  7 11  2  0
  7 12  1  0
  1  2  2  0
  2  3  1  0
  3  4  2  0
  4  5  1  0
  5  6  2  0
  1  6  1  0
M  END

$$$$
No_4664-/export/home/yangzhenyu/potential_scad_32_flow//YTHDC2/2024-12-06-03-22-00/
     RDKit          3D

 19 21  0  0  0  0  0  0  0  0999 V2000
    1.1787   -8.0297    3.5154 N   0  0  0  0  0  0  0  0  0  0  0  0
    1.0818   -9.0751    3.2053 C   0  0  0  0  0  0  0  0  0  0  0  0
    0.7576   -9.3725    1.9159 C   0  0  0  0  0  0  0  0  0  0  0  0
    0.7445  -10.8746    1.6491 C   0  0  0  0  0  0  0  0  0  0  0  0
    0.9910  -11.7526    2.6067 C   0  0  0  0  0  0  0  0  0  0  0  0
    1.4405  -11.4331    3.8064 C   0  0  0  0  0  0  0  0  0  0  0  0
    1.4304  -10.0463    4.1669 C   0  0  0  0  0  0  0  0  0  0  0  0
    1.1303   -6.7964    2.6709 C   0  0  0  0  0  0  0  0  0  0  0  0
    0.9712   -7.2207    1.3238 N   0  0  0  0  0  0  0  0  0  0  0  0
    0.8820   -8.4265    0.9434 C   0  0  0  0  0  0  0  0  0  0  0  0
    0.7124   -8.6580   -0.3382 C   0  0  0  0  0  0  0  0  0  0  0  0
    1.5504   -8.8565   -1.2110 O   0  0  0  0  0  0  0  0  0  0  0  0
   -0.5731   -8.7975   -0.8993 N   0  0  0  0  0  0  0  0  0  0  0  0
    0.9249  -13.1514    2.2456 C   0  0  0  0  0  0  0  0  0  0  0  0
   -0.2708  -13.7219    2.3401 C   0  0  0  0  0  0  0  0  0  0  0  0
   -0.4240  -14.6565    1.8927 C   0  0  0  0  0  0  0  0  0  0  0  0
    0.4621  -15.6179    1.2822 C   0  0  0  0  0  0  0  0  0  0  0  0
    1.8279  -15.1091    1.3055 C   0  0  0  0  0  0  0  0  0  0  0  0
    1.9964  -13.7783    1.7417 C   0  0  0  0  0  0  0  0  0  0  0  0
 10 11  1  0
 11 12  2  0
 11 13  1  0
  5 14  1  0
  3  4  1  0
  4  5  2  0
  5  6  1  0
  6  7  2  0
  2  7  1  0
  1  2  2  0
  2  3  1  0
  3 10  2  0
  9 10  1  0
  8  9  2  0
  1  8  1  0
 14 15  2  0
 15 16  1  0
 16 17  2  0
 17 18  1  0
 18 19  2  0
 14 19  1  0
M  END

$$$$
No_4665-/export/home/yangzhenyu/potential_scad_32_flow//YTHDC2/2024-12-06-03-22-00/
     RDKit          3D

 20 21  0  0  0  0  0  0  0  0999 V2000
    1.1787   -8.0297    3.5154 O   0  0  0  0  0  0  0  0  0  0  0  0
    0.6747   -7.4019    2.7838 C   0  0  0  0  0  0  0  0  0  0  0  0
    0.7594   -8.0032    1.4295 C   0  0  0  0  0  0  0  0  0  0  0  0
    0.3459   -9.1500    1.3581 C   0  0  0  0  0  0  0  0  0  0  0  0
   -0.4155   -9.6726    2.0241 C   0  0  0  0  0  0  0  0  0  0  0  0
   -0.6245  -11.1539    1.8966 C   0  0  0  0  0  0  0  0  0  0  0  0
    0.1125  -11.8282    0.9857 C   0  0  0  0  0  0  0  0  0  0  0  0
    1.0109  -11.2152    0.1796 C   0  0  0  0  0  0  0  0  0  0  0  0
    1.3330   -9.9204    0.3294 C   0  0  0  0  0  0  0  0  0  0  0  0
    0.5166   -6.1587    3.0837 O   0  0  0  0  0  0  0  0  0  0  0  0
    2.1177   -9.3174   -0.6186 O   0  0  0  0  0  0  0  0  0  0  0  0
   -1.5966  -11.8689    2.7485 C   0  0  0  0  0  0  0  0  0  0  0  0
   -2.3992  -11.2181    3.4441 C   0  0  0  0  0  0  0  0  0  0  0  0
   -1.5085  -13.3019    2.6937 C   0  0  0  0  0  0  0  0  0  0  0  0
   -2.6548  -13.8881    3.1335 C   0  0  0  0  0  0  0  0  0  0  0  0
   -3.4819  -11.8187    4.1067 C   0  0  0  0  0  0  0  0  0  0  0  0
   -3.5665  -13.2240    3.8897 C   0  0  0  0  0  0  0  0  0  0  0  0
   -4.6562  -13.9229    4.4418 Br  0  0  0  0  0  0  0  0  0  0  0  0
    1.0627   -6.8991    0.5711 O   0  0  0  0  0  0  0  0  0  0  0  0
   -4.5291  -10.8953    4.9551 Cl  0  0  0  0  0  0  0  0  0  0  0  0
  1  2  1  0
  2  3  1  0
  3  4  1  0
  2 10  2  0
  9 11  1  0
  6 12  1  0
 17 18  1  0
  3 19  2  0
 16 20  1  0
 12 13  2  0
 13 16  1  0
 16 17  2  0
 15 17  1  0
 14 15  2  0
 12 14  1  0
  4  5  2  0
  5  6  1  0
  6  7  2  0
  7  8  1  0
  8  9  2  0
  4  9  1  0
M  END

$$$$
No_4666-/export/home/yangzhenyu/potential_scad_32_flow//YTHDC2/2024-12-06-03-22-00/
     RDKit          3D

 18 19  0  0  0  0  0  0  0  0999 V2000
    1.1787   -8.0297    3.5154 C   0  0  0  0  0  0  0  0  0  0  0  0
    1.1048   -9.2215    3.2892 C   0  0  0  0  0  0  0  0  0  0  0  0
    1.3627  -10.1721    4.3044 C   0  0  0  0  0  0  0  0  0  0  0  0
    1.7354  -11.4730    3.9023 C   0  0  0  0  0  0  0  0  0  0  0  0
    1.8080  -11.8127    2.7216 C   0  0  0  0  0  0  0  0  0  0  0  0
    2.0797  -13.2205    2.4264 C   0  0  0  0  0  0  0  0  0  0  0  0
    1.0424   -7.1607    2.3029 C   0  0  0  0  0  0  0  0  0  0  0  0
    1.1066   -7.6297    1.0940 C   0  0  0  0  0  0  0  0  0  0  0  0
    1.2742   -8.8824    0.8244 C   0  0  0  0  0  0  0  0  0  0  0  0
    1.2734   -9.8055    1.8891 C   0  0  0  0  0  0  0  0  0  0  0  0
    1.6366  -11.0387    1.6628 C   0  0  0  0  0  0  0  0  0  0  0  0
    2.3320  -13.7470    1.2146 O   0  0  0  0  0  0  0  0  0  0  0  0
    1.7993  -14.2485    3.2789 O   0  0  0  0  0  0  0  0  0  0  0  0
    0.8860   -5.4199    2.5512 N   0  0  0  0  0  0  0  0  0  0  0  0
    1.4550   -9.2641   -0.4547 C   0  0  0  0  0  0  0  0  0  0  0  0
    2.2396  -10.1286   -0.7586 O   0  0  0  0  0  0  0  0  0  0  0  0
    0.6510   -8.8820   -1.4212 O   0  0  0  0  0  0  0  0  0  0  0  0
   -0.1538   -4.8917    2.0713 C   0  0  0  0  0  0  0  0  0  0  0  0
  5  6  1  0
  6 12  2  0
  6 13  1  0
  7 14  1  0
  9 15  1  0
 15 16  2  0
 15 17  1  0
 14 18  1  0
  1  2  2  0
  9 10  2  0
  8  9  1  0
  7  8  2  0
  1  7  1  0
  2  3  1  0
  3  4  2  0
  4  5  1  0
  5 11  2  0
 10 11  1  0
  2 10  1  0
M  END

$$$$
No_4667-/export/home/yangzhenyu/potential_scad_32_flow//YTHDC2/2024-12-06-03-22-00/
     RDKit          3D

 19 21  0  0  1  0  0  0  0  0999 V2000
    1.1787   -8.0297    3.5154 C   0  0  0  0  0  0  0  0  0  0  0  0
    1.0491   -6.8434    2.9820 C   0  0  0  0  0  0  0  0  0  0  0  0
    0.0950   -8.8404    3.2292 C   0  0  0  0  0  0  0  0  0  0  0  0
    0.0602  -10.1764    3.8231 C   0  0  0  0  0  0  0  0  0  0  0  0
    0.3808   -6.2771    2.2009 C   0  0  2  0  0  0  0  0  0  0  0  0
    0.4312   -4.8774    1.7640 C   0  0  0  0  0  0  0  0  0  0  0  0
   -1.1073  -10.7828    3.8735 C   0  0  0  0  0  0  0  0  0  0  0  0
   -2.1876  -10.3472    3.1429 C   0  0  0  0  0  0  0  0  0  0  0  0
   -2.1030   -9.0921    2.5973 C   0  0  0  0  0  0  0  0  0  0  0  0
   -0.9575   -8.3618    2.6739 C   0  0  0  0  0  0  0  0  0  0  0  0
   -0.8909   -6.9027    2.0343 C   0  0  0  0  0  0  0  0  0  0  0  0
   -1.9470   -6.4028    1.5834 O   0  0  0  0  0  0  0  0  0  0  0  0
    0.1670   -4.6096    0.4382 C   0  0  0  0  0  0  0  0  0  0  0  0
   -0.5061   -3.3425    0.3134 C   0  0  0  0  0  0  0  0  0  0  0  0
   -0.1082   -2.3361    1.0949 C   0  0  0  0  0  0  0  0  0  0  0  0
    0.3363   -2.5319    2.2833 C   0  0  0  0  0  0  0  0  0  0  0  0
    0.5782   -3.7978    2.7142 C   0  0  0  0  0  0  0  0  0  0  0  0
    1.1502  -10.6746    4.6036 C   0  0  0  0  0  0  0  0  0  0  0  0
    1.5910  -11.9857    4.1407 C   0  0  0  0  0  0  0  0  0  0  0  0
  1  2  1  0
  5  6  1  1
  5 11  1  0
 10 11  1  0
 11 12  2  0
  4 18  1  0
 18 19  1  0
  2  5  1  0
  1  3  1  0
  3  4  2  0
  4  7  1  0
  7  8  2  0
  8  9  1  0
  9 10  2  0
  3 10  1  0
  6 13  2  0
 13 14  1  0
 14 15  2  0
 15 16  1  0
 16 17  2  0
  6 17  1  0
M  END

$$$$
No_4668-/export/home/yangzhenyu/potential_scad_32_flow//YTHDC2/2024-12-06-03-22-00/
     RDKit          3D

 18 18  0  0  1  0  0  0  0  0999 V2000
    1.1787   -8.0297    3.5154 C   0  0  0  0  0  0  0  0  0  0  0  0
    1.0491   -6.8434    2.9820 C   0  0  0  0  0  0  0  0  0  0  0  0
    1.9985   -8.9840    2.8958 C   0  0  1  0  0  0  0  0  0  0  0  0
    1.9135  -10.3404    3.6266 C   0  0  1  0  0  0  0  0  0  0  0  0
    1.3291  -11.3908    3.0222 Cl  0  0  0  0  0  0  0  0  0  0  0  0
    1.7859   -5.7547    3.3113 C   0  0  0  0  0  0  0  0  0  0  0  0
    1.4419   -4.5319    2.6791 C   0  0  2  0  0  0  0  0  0  0  0  0
    1.2125   -4.6209    1.3856 C   0  0  0  0  0  0  0  0  0  0  0  0
    0.6683   -3.2361    0.9082 C   0  0  0  0  0  0  0  0  0  0  0  0
    0.9314   -2.1095    1.5263 C   0  0  0  0  0  0  0  0  0  0  0  0
    1.3181   -2.0660    2.7811 C   0  0  0  0  0  0  0  0  0  0  0  0
    1.6151   -3.3010    3.4022 C   0  0  0  0  0  0  0  0  0  0  0  0
    2.8352  -10.4034    4.8042 C   0  0  0  0  0  0  0  0  0  0  0  0
    3.7046  -11.1895    4.9702 O   0  0  0  0  0  0  0  0  0  0  0  0
    0.1552   -6.7520    1.9511 O   0  0  0  0  0  0  0  0  0  0  0  0
    2.4206   -9.8158    5.8500 O   0  0  0  0  0  0  0  0  0  0  0  0
    1.8383   -3.3070    4.7516 O   0  0  0  0  0  0  0  0  0  0  0  0
    2.3460   -9.0089    1.6723 C   0  0  0  0  0  0  0  0  0  0  0  0
  1  2  1  0
  1  3  1  0
  3  4  1  0
  4  5  1  6
  2  6  1  0
  7  6  1  6
  7  8  1  0
  9 10  1  0
  7 12  1  0
 11 12  1  0
  4 13  1  0
 13 14  2  0
  2 15  2  0
 13 16  1  0
 12 17  2  0
  3 18  1  6
  8  9  1  0
 10 11  1  0
M  END

$$$$
No_4669-/export/home/yangzhenyu/potential_scad_32_flow//YTHDC2/2024-12-06-03-22-00/
     RDKit          3D

 18 19  0  0  1  0  0  0  0  0999 V2000
    1.1787   -8.0297    3.5154 C   0  0  0  0  0  0  0  0  0  0  0  0
    1.1048   -9.2215    3.2892 C   0  0  0  0  0  0  0  0  0  0  0  0
    1.2339   -9.7611    2.0189 C   0  0  0  0  0  0  0  0  0  0  0  0
    1.3583   -9.0036    0.9764 C   0  0  0  0  0  0  0  0  0  0  0  0
    1.5996   -7.6362    1.1311 C   0  0  0  0  0  0  0  0  0  0  0  0
    1.4830   -7.0928    2.3626 C   0  0  0  0  0  0  0  0  0  0  0  0
    1.1008  -11.2372    1.8542 C   0  0  1  0  0  0  0  0  0  0  0  0
    0.4812  -11.6084    0.6459 C   0  0  0  0  0  0  0  0  0  0  0  0
    0.5134  -13.0269    0.4830 C   0  0  0  0  0  0  0  0  0  0  0  0
    1.2057  -13.8685    1.2734 C   0  0  2  0  0  0  0  0  0  0  0  0
    1.9819  -13.3990    2.3594 C   0  0  1  0  0  0  0  0  0  0  0  0
    1.8610  -12.0988    2.6716 C   0  0  0  0  0  0  0  0  0  0  0  0
    2.5653  -11.6133    3.6969 O   0  0  0  0  0  0  0  0  0  0  0  0
    1.5569   -5.6491    2.6439 Cl  0  0  0  0  0  0  0  0  0  0  0  0
    1.5745   -9.5103   -0.5801 O   0  0  0  0  0  0  0  0  0  0  0  0
    2.5752  -14.3274    3.1381 F   0  0  0  0  0  0  0  0  0  0  0  0
    1.2590  -15.2357    0.9884 Cl  0  0  0  0  0  0  0  0  0  0  0  0
   -0.3277  -13.6017   -0.7209 O   0  0  0  0  0  0  0  0  0  0  0  0
  7  3  1  6
  7  8  1  0
  9 10  1  0
  7 12  1  0
 11 12  1  0
 12 13  2  0
  6 14  1  0
  4 15  1  0
 11 16  1  1
 10 17  1  6
  9 18  1  0
  8  9  1  0
 10 11  1  0
  1  2  2  0
  2  3  1  0
  3  4  2  0
  4  5  1  0
  5  6  2  0
  1  6  1  0
M  END

$$$$
No_4670-/export/home/yangzhenyu/potential_scad_32_flow//YTHDC2/2024-12-06-03-22-00/
     RDKit          3D

 18 19  0  0  0  0  0  0  0  0999 V2000
    1.1787   -8.0297    3.5154 C   0  0  0  0  0  0  0  0  0  0  0  0
    1.1048   -9.2215    3.2892 C   0  0  0  0  0  0  0  0  0  0  0  0
    1.2339   -9.7611    2.0189 C   0  0  0  0  0  0  0  0  0  0  0  0
    1.3583   -9.0036    0.9764 C   0  0  0  0  0  0  0  0  0  0  0  0
    1.5996   -7.6362    1.1311 C   0  0  0  0  0  0  0  0  0  0  0  0
    1.4830   -7.0928    2.3626 C   0  0  0  0  0  0  0  0  0  0  0  0
    1.1008  -11.2372    1.8542 C   0  0  0  0  0  0  0  0  0  0  0  0
    1.9749  -12.0938    2.2342 C   0  0  0  0  0  0  0  0  0  0  0  0
    1.5180  -13.3509    2.5910 C   0  0  0  0  0  0  0  0  0  0  0  0
    0.4120  -13.9272    2.2191 C   0  0  0  0  0  0  0  0  0  0  0  0
   -0.5860  -13.0563    1.8308 C   0  0  0  0  0  0  0  0  0  0  0  0
   -0.2264  -11.7453    1.4928 C   0  0  0  0  0  0  0  0  0  0  0  0
    1.5759   -5.6593    2.6277 C   0  0  0  0  0  0  0  0  0  0  0  0
    0.0857  -15.3777    2.5868 C   0  0  0  0  0  0  0  0  0  0  0  0
    1.0344  -16.0472    3.2267 C   0  0  0  0  0  0  0  0  0  0  0  0
    0.8870  -17.3913    3.5564 C   0  0  0  0  0  0  0  0  0  0  0  0
    1.7287  -18.3166    3.1346 C   0  0  0  0  0  0  0  0  0  0  0  0
    3.0010  -17.8920    2.3868 C   0  0  0  0  0  0  0  0  0  0  0  0
  3  7  1  0
  6 13  1  0
 10 14  1  0
 14 15  2  3
 15 16  1  0
 16 17  2  3
 17 18  1  0
  1  2  2  0
  2  3  1  0
  3  4  2  0
  4  5  1  0
  5  6  2  0
  1  6  1  0
  7  8  2  0
  8  9  1  0
  9 10  2  0
 10 11  1  0
 11 12  2  0
  7 12  1  0
M  END

$$$$
No_4671-/export/home/yangzhenyu/potential_scad_32_flow//YTHDC2/2024-12-06-03-22-00/
     RDKit          3D

 19 21  0  0  0  0  0  0  0  0999 V2000
    1.1787   -8.0297    3.5154 C   0  0  0  0  0  0  0  0  0  0  0  0
    1.1048   -9.2215    3.2892 C   0  0  0  0  0  0  0  0  0  0  0  0
    1.3627  -10.1721    4.3044 C   0  0  0  0  0  0  0  0  0  0  0  0
    1.0682  -11.5187    4.0618 C   0  0  0  0  0  0  0  0  0  0  0  0
    0.6332  -11.9655    2.9682 C   0  0  0  0  0  0  0  0  0  0  0  0
    0.4776  -11.1308    1.9203 C   0  0  0  0  0  0  0  0  0  0  0  0
    0.7470   -9.8274    2.0368 C   0  0  0  0  0  0  0  0  0  0  0  0
    0.5535   -7.1314    2.6861 C   0  0  0  0  0  0  0  0  0  0  0  0
    0.2950   -7.6000    1.3275 C   0  0  0  0  0  0  0  0  0  0  0  0
    0.2692   -8.8631    1.0973 C   0  0  0  0  0  0  0  0  0  0  0  0
   -0.0069   -6.7080    0.3888 C   0  0  0  0  0  0  0  0  0  0  0  0
   -0.6284   -7.1406   -0.6609 C   0  0  0  0  0  0  0  0  0  0  0  0
   -0.7064   -8.4236   -1.0185 C   0  0  0  0  0  0  0  0  0  0  0  0
   -0.2614   -9.2888   -0.1569 C   0  0  0  0  0  0  0  0  0  0  0  0
   -1.1957   -8.8119   -2.2263 O   0  0  0  0  0  0  0  0  0  0  0  0
    0.5329  -13.6226    2.7009 C   0  0  0  0  0  0  0  0  0  0  0  0
   -0.5837  -13.9588    2.3542 C   0  0  0  0  0  0  0  0  0  0  0  0
    1.6202  -14.3538    2.9106 C   0  0  0  0  0  0  0  0  0  0  0  0
    1.5804  -15.6752    2.8045 C   0  0  0  0  0  0  0  0  0  0  0  0
  9 11  1  0
 12 13  1  0
 10 14  1  0
 13 14  1  0
 13 15  2  0
  5 16  1  0
 16 17  2  0
 16 18  1  0
 18 19  2  0
 11 12  1  0
  2  3  1  0
  3  4  2  0
  4  5  1  0
  5  6  2  0
  6  7  1  0
  1  2  2  0
  2  7  1  0
  7 10  2  0
  9 10  1  0
  8  9  2  0
  1  8  1  0
M  END

$$$$
No_4672-/export/home/yangzhenyu/potential_scad_32_flow//YTHDC2/2024-12-06-03-22-00/
     RDKit          3D

 19 21  0  0  1  0  0  0  0  0999 V2000
    1.1787   -8.0297    3.5154 C   0  0  0  0  0  0  0  0  0  0  0  0
    1.1048   -9.2215    3.2892 C   0  0  0  0  0  0  0  0  0  0  0  0
    1.2339   -9.7611    2.0189 C   0  0  1  0  0  0  0  0  0  0  0  0
    1.1954  -11.2312    1.8661 C   0  0  0  0  0  0  0  0  0  0  0  0
    1.2996  -11.5815    0.5387 C   0  0  0  0  0  0  0  0  0  0  0  0
    0.9270   -7.0442    2.4967 C   0  0  2  0  0  0  0  0  0  0  0  0
    0.9803   -7.6034    1.0978 C   0  0  0  0  0  0  0  0  0  0  0  0
    1.1096   -8.9244    0.8670 C   0  0  0  0  0  0  0  0  0  0  0  0
    1.2480  -13.0632    0.5980 C   0  0  0  0  0  0  0  0  0  0  0  0
    1.1408  -12.1811    2.5984 C   0  0  0  0  0  0  0  0  0  0  0  0
    1.1087  -13.4491    1.9460 C   0  0  2  0  0  0  0  0  0  0  0  0
    1.0060   -5.4722    2.6489 C   0  0  0  0  0  0  0  0  0  0  0  0
    1.0975  -14.6314    2.5382 C   0  0  0  0  0  0  0  0  0  0  0  0
    2.0909  -15.4053    2.7439 N   0  0  0  0  0  0  0  0  0  0  0  0
    0.0000  -15.2185    3.1380 N   0  0  0  0  0  0  0  0  0  0  0  0
    1.8468  -16.6908    3.1678 C   0  0  0  0  0  0  0  0  0  0  0  0
    0.4493  -16.4690    3.5318 C   0  0  1  0  0  0  0  0  0  0  0  0
    0.8806   -6.8245    0.1444 O   0  0  0  0  0  0  0  0  0  0  0  0
   -0.3397  -17.3384    4.2461 C   0  0  0  0  0  0  0  0  0  0  0  0
  1  2  1  0
  3  4  1  6
  4  5  1  0
  6  7  1  0
  3  8  1  0
  7  8  1  0
  5  9  2  0
  4 10  1  0
  9 11  1  0
 10 11  1  0
  6 12  1  6
 11 13  1  1
 13 14  2  0
 13 15  1  0
 14 16  1  0
 15 17  1  0
 16 17  1  0
  7 18  2  0
 17 19  1  1
  1  6  1  0
  2  3  1  0
M  END

$$$$
No_4673-/export/home/yangzhenyu/potential_scad_32_flow//YTHDC2/2024-12-06-03-22-00/
     RDKit          3D

 18 18  0  0  1  0  0  0  0  0999 V2000
    1.1787   -8.0297    3.5154 O   0  0  0  0  0  0  0  0  0  0  0  0
    0.9969   -8.9689    3.0048 C   0  0  0  0  0  0  0  0  0  0  0  0
    1.3055  -10.1056    3.6616 C   0  0  0  0  0  0  0  0  0  0  0  0
    1.1249  -11.3503    3.0941 C   0  0  0  0  0  0  0  0  0  0  0  0
    0.6932  -11.4484    1.8586 C   0  0  0  0  0  0  0  0  0  0  0  0
    0.5498  -10.3736    1.0579 C   0  0  0  0  0  0  0  0  0  0  0  0
    0.7643   -9.1185    1.6383 C   0  0  0  0  0  0  0  0  0  0  0  0
    0.5937   -7.8467    1.0482 C   0  0  0  0  0  0  0  0  0  0  0  0
    1.5294   -7.0230    1.0749 O   0  0  0  0  0  0  0  0  0  0  0  0
   -0.3798   -7.6033    0.1974 O   0  0  0  0  0  0  0  0  0  0  0  0
    1.1836  -12.6460    3.8341 C   0  0  0  0  0  0  0  0  0  0  0  0
    2.1207  -13.3550    3.6533 O   0  0  0  0  0  0  0  0  0  0  0  0
    0.1843  -13.2027    4.2465 O   0  0  0  0  0  0  0  0  0  0  0  0
    0.4470  -12.6543    1.0782 C   0  0  2  0  0  0  0  0  0  0  0  0
    1.5331  -13.5626    0.7540 C   0  0  0  0  0  0  0  0  0  0  0  0
    2.8837  -13.1213    0.6951 O   0  0  0  0  0  0  0  0  0  0  0  0
    1.3346  -14.7369    0.4235 O   0  0  0  0  0  0  0  0  0  0  0  0
   -0.6927  -12.9106    0.5622 C   0  0  0  0  0  0  0  0  0  0  0  0
  1  2  1  0
  7  8  1  0
  8  9  2  0
  8 10  1  0
  4 11  1  0
 11 12  2  0
 11 13  1  0
  5 14  1  0
 14 15  1  0
 15 16  1  0
 15 17  2  0
 14 18  1  6
  2  3  2  0
  3  4  1  0
  4  5  2  0
  5  6  1  0
  6  7  2  0
  2  7  1  0
M  END

$$$$
No_4674-/export/home/yangzhenyu/potential_scad_32_flow//YTHDC2/2024-12-06-03-22-00/
     RDKit          3D

 19 20  0  0  0  0  0  0  0  0999 V2000
    1.1787   -8.0297    3.5154 C   0  0  0  0  0  0  0  0  0  0  0  0
    1.1048   -9.2215    3.2892 C   0  0  0  0  0  0  0  0  0  0  0  0
    1.3627  -10.1721    4.3044 C   0  0  0  0  0  0  0  0  0  0  0  0
    1.0682  -11.5187    4.0618 C   0  0  0  0  0  0  0  0  0  0  0  0
    0.6332  -11.9655    2.9682 C   0  0  0  0  0  0  0  0  0  0  0  0
    0.4776  -11.1308    1.9203 C   0  0  0  0  0  0  0  0  0  0  0  0
    0.7470   -9.8274    2.0368 C   0  0  0  0  0  0  0  0  0  0  0  0
    1.0387   -7.0301    2.5175 C   0  0  0  0  0  0  0  0  0  0  0  0
    0.9130   -7.5288    1.2013 C   0  0  0  0  0  0  0  0  0  0  0  0
    0.7893   -8.7979    0.9542 C   0  0  0  0  0  0  0  0  0  0  0  0
    0.3998  -13.3695    2.7114 C   0  0  0  0  0  0  0  0  0  0  0  0
    0.8304  -14.0169    1.7689 N   0  0  0  0  0  0  0  0  0  0  0  0
    2.1210  -13.8157    1.2840 C   0  0  0  0  0  0  0  0  0  0  0  0
    0.3405  -15.0574    1.0602 C   0  0  0  0  0  0  0  0  0  0  0  0
   -0.1505  -16.1855    1.8250 C   0  0  0  0  0  0  0  0  0  0  0  0
    0.8174  -16.8014    2.6604 C   0  0  0  0  0  0  0  0  0  0  0  0
    1.9242  -17.0935    2.2896 C   0  0  0  0  0  0  0  0  0  0  0  0
    0.4967   -9.3254   -0.4999 O   0  0  0  0  0  0  0  0  0  0  0  0
    2.6787  -17.9570    2.5294 O   0  0  0  0  0  0  0  0  0  0  0  0
  5 11  1  0
 11 12  1  0
 12 13  1  0
 12 14  1  0
 14 15  1  0
 15 16  1  0
 16 17  1  0
 10 18  1  0
 17 19  2  0
  2  3  1  0
  3  4  2  0
  4  5  1  0
  5  6  2  0
  6  7  1  0
  1  2  2  0
  2  7  1  0
  7 10  2  0
  9 10  1  0
  8  9  2  0
  1  8  1  0
M  END

$$$$
No_4675-/export/home/yangzhenyu/potential_scad_32_flow//YTHDC2/2024-12-06-03-22-00/
     RDKit          3D

 20 21  0  0  0  0  0  0  0  0999 V2000
    1.1787   -8.0297    3.5154 C   0  0  0  0  0  0  0  0  0  0  0  0
    1.1048   -9.2215    3.2892 C   0  0  0  0  0  0  0  0  0  0  0  0
    1.2339   -9.7611    2.0189 C   0  0  0  0  0  0  0  0  0  0  0  0
    1.3583   -9.0036    0.9764 C   0  0  0  0  0  0  0  0  0  0  0  0
    1.5996   -7.6362    1.1311 C   0  0  0  0  0  0  0  0  0  0  0  0
    1.4830   -7.0928    2.3626 C   0  0  0  0  0  0  0  0  0  0  0  0
    1.1008  -11.2372    1.8542 C   0  0  0  0  0  0  0  0  0  0  0  0
    1.9749  -12.0938    2.2342 C   0  0  0  0  0  0  0  0  0  0  0  0
    1.7533  -13.4231    1.8956 C   0  0  0  0  0  0  0  0  0  0  0  0
    0.8624  -13.8318    1.1071 C   0  0  0  0  0  0  0  0  0  0  0  0
   -0.0624  -12.9093    0.5581 C   0  0  0  0  0  0  0  0  0  0  0  0
    0.1157  -11.5285    0.9404 C   0  0  0  0  0  0  0  0  0  0  0  0
    1.5561   -5.6354    2.6426 Cl  0  0  0  0  0  0  0  0  0  0  0  0
   -0.8099  -10.6546    0.4318 C   0  0  0  0  0  0  0  0  0  0  0  0
   -0.8725  -10.3168   -0.8774 O   0  0  0  0  0  0  0  0  0  0  0  0
   -2.0517  -10.4985    1.0931 O   0  0  0  0  0  0  0  0  0  0  0  0
    2.7261  -14.4450    2.3830 Cl  0  0  0  0  0  0  0  0  0  0  0  0
    0.8310  -10.1565    4.3926 Cl  0  0  0  0  0  0  0  0  0  0  0  0
   -2.6780   -9.2139    1.0186 C   0  0  0  0  0  0  0  0  0  0  0  0
   -3.5968   -9.1453    0.0741 C   0  0  0  0  0  0  0  0  0  0  0  0
  3  7  1  0
  6 13  1  0
 12 14  1  0
 14 15  2  0
 14 16  1  0
  9 17  1  0
  2 18  1  0
 16 19  1  0
 19 20  1  0
  1  2  2  0
  2  3  1  0
  3  4  2  0
  4  5  1  0
  5  6  2  0
  1  6  1  0
  7  8  2  0
  8  9  1  0
  9 10  2  0
 10 11  1  0
 11 12  2  0
  7 12  1  0
M  END

$$$$
No_4676-/export/home/yangzhenyu/potential_scad_32_flow//YTHDC2/2024-12-06-03-22-00/
     RDKit          3D

 20 21  0  0  1  0  0  0  0  0999 V2000
    1.1787   -8.0297    3.5154 C   0  0  0  0  0  0  0  0  0  0  0  0
    1.1048   -9.2215    3.2892 C   0  0  0  0  0  0  0  0  0  0  0  0
    1.3627  -10.1721    4.3044 C   0  0  0  0  0  0  0  0  0  0  0  0
    2.3720  -10.8948    4.2468 C   0  0  0  0  0  0  0  0  0  0  0  0
    2.9262  -11.1926    3.1170 C   0  0  0  0  0  0  0  0  0  0  0  0
    2.5807  -10.4593    1.9550 C   0  0  0  0  0  0  0  0  0  0  0  0
    1.7065   -9.4353    2.0233 C   0  0  0  0  0  0  0  0  0  0  0  0
    1.3623   -8.6610    1.0017 C   0  0  2  0  0  0  0  0  0  0  0  0
    0.6938   -7.5136    1.2430 C   0  0  1  0  0  0  0  0  0  0  0  0
    0.6151   -7.0124    2.4820 C   0  0  0  0  0  0  0  0  0  0  0  0
    1.5937   -9.0426   -0.3865 C   0  0  0  0  0  0  0  0  0  0  0  0
    2.8223   -9.3437   -0.7164 O   0  0  0  0  0  0  0  0  0  0  0  0
    0.7229   -9.0487   -1.2075 O   0  0  0  0  0  0  0  0  0  0  0  0
    0.1621   -5.7717    2.7377 O   0  0  0  0  0  0  0  0  0  0  0  0
    2.6637  -11.8482    5.4163 O   0  0  0  0  0  0  0  0  0  0  0  0
    0.3471   -6.6194    0.2496 O   0  0  0  0  0  0  0  0  0  0  0  0
   -0.9877   -6.5494    0.0189 C   0  0  0  0  0  0  0  0  0  0  0  0
   -1.6197   -5.3824   -0.2505 C   0  0  0  0  0  0  0  0  0  0  0  0
   -1.1587   -4.3372    0.3709 O   0  0  0  0  0  0  0  0  0  0  0  0
   -2.3237   -5.1281   -1.2496 O   0  0  0  0  0  0  0  0  0  0  0  0
  1  2  1  0
  7  8  1  0
  1 10  1  0
  9 10  1  0
  8 11  1  6
 11 12  1  0
 11 13  2  0
 10 14  2  0
  4 15  1  0
  9 16  1  6
 16 17  1  0
 17 18  1  0
 18 19  1  0
 18 20  2  0
  8  9  1  0
  2  3  2  0
  3  4  1  0
  4  5  2  0
  5  6  1  0
  6  7  2  0
  2  7  1  0
M  END

$$$$
No_4677-/export/home/yangzhenyu/potential_scad_32_flow//YTHDC2/2024-12-06-03-22-00/
     RDKit          3D

 18 19  0  0  0  0  0  0  0  0999 V2000
    1.1787   -8.0297    3.5154 C   0  0  0  0  0  0  0  0  0  0  0  0
    1.1048   -9.2215    3.2892 C   0  0  0  0  0  0  0  0  0  0  0  0
    1.2339   -9.7611    2.0189 C   0  0  0  0  0  0  0  0  0  0  0  0
    1.1954  -11.2312    1.8661 C   0  0  0  0  0  0  0  0  0  0  0  0
    1.2996  -11.5815    0.5387 C   0  0  0  0  0  0  0  0  0  0  0  0
    1.3263   -7.1208    2.3229 C   0  0  0  0  0  0  0  0  0  0  0  0
    1.3693   -7.6408    1.0625 C   0  0  0  0  0  0  0  0  0  0  0  0
    1.4358   -8.9950    0.8622 C   0  0  0  0  0  0  0  0  0  0  0  0
    0.9078  -11.9576    2.8785 C   0  0  0  0  0  0  0  0  0  0  0  0
    1.1744  -13.3847    2.6330 C   0  0  0  0  0  0  0  0  0  0  0  0
    0.9873  -13.8958    1.5961 C   0  0  0  0  0  0  0  0  0  0  0  0
    1.2542  -13.1067    0.3815 C   0  0  0  0  0  0  0  0  0  0  0  0
    1.3388   -5.4714    2.6188 Cl  0  0  0  0  0  0  0  0  0  0  0  0
    1.1919  -15.3038    1.4206 C   0  0  0  0  0  0  0  0  0  0  0  0
    0.3944  -16.0232    0.6502 C   0  0  0  0  0  0  0  0  0  0  0  0
    0.8557  -17.2259    0.1578 C   0  0  0  0  0  0  0  0  0  0  0  0
    0.1097  -17.9347   -0.8017 C   0  0  0  0  0  0  0  0  0  0  0  0
   -0.9894  -17.3218   -1.3500 C   0  0  0  0  0  0  0  0  0  0  0  0
  3  4  1  0
  6 13  1  0
 11 14  1  0
 14 15  1  0
 15 16  2  3
 16 17  1  0
 17 18  2  0
  4  5  2  0
  5 12  1  0
 11 12  2  0
 10 11  1  0
  9 10  2  0
  4  9  1  0
  1  2  2  0
  2  3  1  0
  3  8  2  0
  7  8  1  0
  6  7  2  0
  1  6  1  0
M  END

$$$$
No_4678-/export/home/yangzhenyu/potential_scad_32_flow//YTHDC2/2024-12-06-03-22-00/
     RDKit          3D

 20 21  0  0  0  0  0  0  0  0999 V2000
    1.1787   -8.0297    3.5154 C   0  0  0  0  0  0  0  0  0  0  0  0
    1.1048   -9.2215    3.2892 C   0  0  0  0  0  0  0  0  0  0  0  0
    1.2339   -9.7611    2.0189 C   0  0  0  0  0  0  0  0  0  0  0  0
    1.3583   -9.0036    0.9764 C   0  0  0  0  0  0  0  0  0  0  0  0
    1.5996   -7.6362    1.1311 C   0  0  0  0  0  0  0  0  0  0  0  0
    1.4830   -7.0928    2.3626 C   0  0  0  0  0  0  0  0  0  0  0  0
    1.1171  -11.3311    1.8661 C   0  0  0  0  0  0  0  0  0  0  0  0
    0.5042  -11.9974    2.3631 C   0  0  0  0  0  0  0  0  0  0  0  0
    0.4547  -13.3874    2.1599 C   0  0  0  0  0  0  0  0  0  0  0  0
    1.6053  -14.2337    2.6336 C   0  0  0  0  0  0  0  0  0  0  0  0
    1.6405  -15.5635    2.4226 C   0  0  0  0  0  0  0  0  0  0  0  0
    0.5328  -16.1828    1.9320 C   0  0  0  0  0  0  0  0  0  0  0  0
   -0.4545  -15.5158    1.3547 C   0  0  0  0  0  0  0  0  0  0  0  0
   -0.5125  -14.1019    1.5567 C   0  0  0  0  0  0  0  0  0  0  0  0
    1.5911   -5.4738    2.6984 C   0  0  0  0  0  0  0  0  0  0  0  0
    1.7626   -5.1005    3.7994 O   0  0  0  0  0  0  0  0  0  0  0  0
    1.0637   -4.7498    1.6713 O   0  0  0  0  0  0  0  0  0  0  0  0
   -1.5687  -13.4918    0.9968 C   0  0  0  0  0  0  0  0  0  0  0  0
   -1.8584  -13.3150   -0.2873 C   0  0  0  0  0  0  0  0  0  0  0  0
   -1.3741  -13.9722   -1.0786 C   0  0  0  0  0  0  0  0  0  0  0  0
  3  7  1  0
  7  8  2  3
  8  9  1  0
  6 15  1  0
 15 16  1  0
 15 17  2  0
 14 18  1  0
 18 19  1  0
 19 20  2  0
  1  2  2  0
  2  3  1  0
  3  4  2  0
  4  5  1  0
  5  6  2  0
  1  6  1  0
  9 10  2  0
 10 11  1  0
 11 12  2  0
 12 13  1  0
 13 14  2  0
  9 14  1  0
M  END

$$$$
No_4679-/export/home/yangzhenyu/potential_scad_32_flow//YTHDC2/2024-12-06-03-22-00/
     RDKit          3D

 19 20  0  0  1  0  0  0  0  0999 V2000
    1.1787   -8.0297    3.5154 O   0  0  0  0  0  0  0  0  0  0  0  0
    0.9969   -8.9689    3.0048 C   0  0  0  0  0  0  0  0  0  0  0  0
    1.3055  -10.1056    3.6616 C   0  0  0  0  0  0  0  0  0  0  0  0
    2.1315  -10.4529    4.2438 C   0  0  0  0  0  0  0  0  0  0  0  0
    0.4484   -8.8156    1.7225 C   0  0  1  0  0  0  0  0  0  0  0  0
    0.5531   -9.6870    0.8856 C   0  0  0  0  0  0  0  0  0  0  0  0
    0.7278   -9.2920   -0.4701 C   0  0  0  0  0  0  0  0  0  0  0  0
   -0.4905   -9.1537   -1.1514 O   0  0  0  0  0  0  0  0  0  0  0  0
    1.7511   -8.9895   -1.1091 O   0  0  0  0  0  0  0  0  0  0  0  0
    1.2389   -6.7412    3.0063 C   0  0  0  0  0  0  0  0  0  0  0  0
    0.2949  -11.3335    3.4061 C   0  0  0  0  0  0  0  0  0  0  0  0
    0.6956  -12.6032    3.6953 C   0  0  0  0  0  0  0  0  0  0  0  0
    1.9893  -12.7802    4.2534 C   0  0  0  0  0  0  0  0  0  0  0  0
    2.7004  -11.7347    4.5683 C   0  0  0  0  0  0  0  0  0  0  0  0
   -0.2585   -7.6672    1.5412 C   0  0  0  0  0  0  0  0  0  0  0  0
    1.7809   -5.6181    3.6564 C   0  0  0  0  0  0  0  0  0  0  0  0
    0.6293   -6.6194    1.7345 C   0  0  0  0  0  0  0  0  0  0  0  0
    1.6379   -4.3494    3.0364 N   0  0  0  0  0  0  0  0  0  0  0  0
   -0.1449  -13.5907    3.4001 O   0  0  0  0  0  0  0  0  0  0  0  0
  1  2  1  0
  2  3  1  0
  2  5  1  0
  5  6  1  1
  6  7  1  0
  7  8  1  0
  7  9  2  0
  1 10  1  0
  5 15  1  0
 10 16  1  0
 10 17  1  0
 15 17  2  0
 16 18  1  0
 12 19  1  0
  3  4  2  0
  4 14  1  0
 13 14  2  0
 12 13  1  0
 11 12  2  0
  3 11  1  0
M  END

$$$$
No_4680-/export/home/yangzhenyu/potential_scad_32_flow//YTHDC2/2024-12-06-03-22-00/
     RDKit          3D

 16 17  0  0  0  0  0  0  0  0999 V2000
    1.1787   -8.0297    3.5154 C   0  0  0  0  0  0  0  0  0  0  0  0
    1.0491   -6.8434    2.9820 C   0  0  0  0  0  0  0  0  0  0  0  0
    0.0950   -8.8404    3.2292 C   0  0  0  0  0  0  0  0  0  0  0  0
   -0.9173   -8.4596    2.5152 C   0  0  0  0  0  0  0  0  0  0  0  0
   -1.0331   -7.2162    2.0653 C   0  0  0  0  0  0  0  0  0  0  0  0
   -0.0105   -6.3168    2.3081 C   0  0  0  0  0  0  0  0  0  0  0  0
    0.1150   -4.9910    1.8495 C   0  0  0  0  0  0  0  0  0  0  0  0
    0.9121   -4.1017    2.4010 Cl  0  0  0  0  0  0  0  0  0  0  0  0
    0.1307  -10.2791    3.6694 C   0  0  0  0  0  0  0  0  0  0  0  0
    1.1810  -10.9316    4.1176 C   0  0  0  0  0  0  0  0  0  0  0  0
    1.6912  -11.8404    3.2457 C   0  0  0  0  0  0  0  0  0  0  0  0
    1.4630  -11.6380    1.9588 C   0  0  0  0  0  0  0  0  0  0  0  0
    1.2695  -12.8679    1.2021 C   0  0  0  0  0  0  0  0  0  0  0  0
    1.1339  -14.0556    1.6084 C   0  0  0  0  0  0  0  0  0  0  0  0
    1.3005  -14.2203    3.0239 C   0  0  0  0  0  0  0  0  0  0  0  0
    1.5197  -13.1298    3.8872 C   0  0  0  0  0  0  0  0  0  0  0  0
  6  7  1  0
  7  8  1  0
  3  9  1  0
  9 10  1  0
 10 11  1  0
 11 12  2  0
 12 13  1  0
 13 14  2  0
 14 15  1  0
 15 16  2  0
 11 16  1  0
  1  2  2  0
  2  6  1  0
  5  6  2  0
  4  5  1  0
  3  4  2  0
  1  3  1  0
M  END

$$$$
No_4681-/export/home/yangzhenyu/potential_scad_32_flow//YTHDC2/2024-12-06-03-22-00/
     RDKit          3D

 18 19  0  0  0  0  0  0  0  0999 V2000
    1.1787   -8.0297    3.5154 C   0  0  0  0  0  0  0  0  0  0  0  0
    1.0491   -6.8434    2.9820 C   0  0  0  0  0  0  0  0  0  0  0  0
    1.0690   -9.1150    2.7206 C   0  0  0  0  0  0  0  0  0  0  0  0
    0.9689   -6.6391    1.6260 C   0  0  0  0  0  0  0  0  0  0  0  0
    0.9670   -9.0334    1.3824 C   0  0  0  0  0  0  0  0  0  0  0  0
    0.8189   -7.7113    0.8022 C   0  0  0  0  0  0  0  0  0  0  0  0
    1.2122  -10.5176    3.2445 C   0  0  0  0  0  0  0  0  0  0  0  0
    0.3325  -11.3891    3.1392 C   0  0  0  0  0  0  0  0  0  0  0  0
    0.4343  -12.2544    2.3856 C   0  0  0  0  0  0  0  0  0  0  0  0
    1.6562  -12.8232    2.0155 C   0  0  0  0  0  0  0  0  0  0  0  0
    2.8171  -12.0311    2.3937 C   0  0  0  0  0  0  0  0  0  0  0  0
    2.5861  -10.8949    2.9132 C   0  0  0  0  0  0  0  0  0  0  0  0
    1.9394  -14.3265    1.3112 Cl  0  0  0  0  0  0  0  0  0  0  0  0
    0.9179   -5.3398    1.0692 O   0  0  0  0  0  0  0  0  0  0  0  0
   -0.6448  -13.2723    2.2919 C   0  0  0  0  0  0  0  0  0  0  0  0
   -0.7186  -14.4683    2.9827 C   0  0  0  0  0  0  0  0  0  0  0  0
   -1.6422  -15.4127    2.7773 C   0  0  0  0  0  0  0  0  0  0  0  0
   -2.6129  -15.1447    1.8508 C   0  0  0  0  0  0  0  0  0  0  0  0
  1  3  1  0
  2  4  1  0
  4  6  1  0
  5  6  1  0
  3  7  1  0
 10 13  1  0
  4 14  2  0
  9 15  1  0
 15 16  1  0
 16 17  2  3
 17 18  1  0
  1  2  1  0
  3  5  1  0
  7  8  2  0
  8  9  1  0
  9 10  2  0
 10 11  1  0
 11 12  2  0
  7 12  1  0
M  END

$$$$
No_4682-/export/home/yangzhenyu/potential_scad_32_flow//YTHDC2/2024-12-06-03-22-00/
     RDKit          3D

 18 19  0  0  1  0  0  0  0  0999 V2000
    1.1787   -8.0297    3.5154 C   0  0  0  0  0  0  0  0  0  0  0  0
    1.1048   -9.2215    3.2892 C   0  0  0  0  0  0  0  0  0  0  0  0
    1.2339   -9.7611    2.0189 C   0  0  0  0  0  0  0  0  0  0  0  0
    1.3583   -9.0036    0.9764 C   0  0  0  0  0  0  0  0  0  0  0  0
    1.5996   -7.6362    1.1311 C   0  0  0  0  0  0  0  0  0  0  0  0
    1.4830   -7.0928    2.3626 C   0  0  0  0  0  0  0  0  0  0  0  0
    1.1008  -11.2372    1.8542 C   0  0  1  0  0  0  0  0  0  0  0  0
    0.4812  -11.6084    0.6459 C   0  0  0  0  0  0  0  0  0  0  0  0
   -0.3691  -10.9312    0.0124 C   0  0  0  0  0  0  0  0  0  0  0  0
   -1.0102  -11.3797   -1.1447 C   0  0  0  0  0  0  0  0  0  0  0  0
   -1.7633  -10.5197   -1.9537 C   0  0  0  0  0  0  0  0  0  0  0  0
   -1.9770   -9.1740   -1.3689 C   0  0  0  0  0  0  0  0  0  0  0  0
   -1.3247   -8.7110   -0.3076 C   0  0  0  0  0  0  0  0  0  0  0  0
   -0.5493   -9.5562    0.4453 C   0  0  0  0  0  0  0  0  0  0  0  0
    1.4672   -5.6529    2.6249 Cl  0  0  0  0  0  0  0  0  0  0  0  0
    2.2059  -12.0117    2.2447 C   0  0  0  0  0  0  0  0  0  0  0  0
    1.7452  -13.2226    2.9086 C   0  0  0  0  0  0  0  0  0  0  0  0
    0.5405  -13.2519    3.4566 C   0  0  0  0  0  0  0  0  0  0  0  0
  3  7  1  0
  7  8  1  6
  6 15  1  0
  7 16  1  0
 16 17  1  0
 17 18  1  0
  8  9  1  0
  1  2  2  0
  2  3  1  0
  3  4  2  0
  4  5  1  0
  5  6  2  0
  1  6  1  0
  9 10  2  0
 10 11  1  0
 11 12  2  0
 12 13  1  0
 13 14  2  0
  9 14  1  0
M  END

$$$$
No_4683-/export/home/yangzhenyu/potential_scad_32_flow//YTHDC2/2024-12-06-03-22-00/
     RDKit          3D

 19 20  0  0  1  0  0  0  0  0999 V2000
    1.1787   -8.0297    3.5154 C   0  0  0  0  0  0  0  0  0  0  0  0
    1.0491   -6.8434    2.9820 C   0  0  0  0  0  0  0  0  0  0  0  0
    0.0950   -8.8404    3.2292 C   0  0  0  0  0  0  0  0  0  0  0  0
   -0.9173   -8.4596    2.5152 C   0  0  0  0  0  0  0  0  0  0  0  0
   -1.0331   -7.2162    2.0653 C   0  0  0  0  0  0  0  0  0  0  0  0
   -0.0105   -6.3168    2.3081 C   0  0  0  0  0  0  0  0  0  0  0  0
    0.1150   -4.9910    1.8495 C   0  0  2  0  0  0  0  0  0  0  0  0
   -0.1376   -4.7952    0.5550 C   0  0  0  0  0  0  0  0  0  0  0  0
   -0.2146   -3.3857    0.2341 C   0  0  0  0  0  0  0  0  0  0  0  0
    0.5012   -2.6512    1.3246 N   0  0  0  0  0  0  0  0  0  0  0  0
    0.5534   -3.6687    2.1904 C   0  0  2  0  0  0  0  0  0  0  0  0
    0.1842  -10.2482    3.7395 C   0  0  0  0  0  0  0  0  0  0  0  0
    1.2618  -10.8086    4.0846 N   0  0  0  0  0  0  0  0  0  0  0  0
   -1.0011  -10.8511    4.0417 O   0  0  0  0  0  0  0  0  0  0  0  0
    2.4955  -10.6044    3.8404 C   0  0  0  0  0  0  0  0  0  0  0  0
    3.3902  -10.6986    4.9278 C   0  0  0  0  0  0  0  0  0  0  0  0
    4.6431  -11.1366    4.8505 O   0  0  0  0  0  0  0  0  0  0  0  0
    1.1373   -3.4357    3.4713 C   0  0  0  0  0  0  0  0  0  0  0  0
    3.0967  -10.2580    6.1935 O   0  0  0  0  0  0  0  0  0  0  0  0
  7  6  1  6
  7  8  1  0
  8  9  2  0
  9 10  1  0
  7 11  1  0
 10 11  1  0
  3 12  1  0
 12 13  1  0
 12 14  2  0
 13 15  1  0
 15 16  1  0
 16 17  2  0
 11 18  1  6
 16 19  1  0
  1  2  2  0
  2  6  1  0
  5  6  2  0
  4  5  1  0
  3  4  2  0
  1  3  1  0
M  END

$$$$
No_4684-/export/home/yangzhenyu/potential_scad_32_flow//YTHDC2/2024-12-06-03-22-00/
     RDKit          3D

 20 22  0  0  0  0  0  0  0  0999 V2000
    1.1787   -8.0297    3.5154 C   0  0  0  0  0  0  0  0  0  0  0  0
    1.1048   -9.2215    3.2892 C   0  0  0  0  0  0  0  0  0  0  0  0
    1.3627  -10.1721    4.3044 C   0  0  0  0  0  0  0  0  0  0  0  0
    1.0682  -11.5187    4.0618 C   0  0  0  0  0  0  0  0  0  0  0  0
    0.6332  -11.9655    2.9682 C   0  0  0  0  0  0  0  0  0  0  0  0
    0.4776  -11.1308    1.9203 C   0  0  0  0  0  0  0  0  0  0  0  0
    0.7470   -9.8274    2.0368 C   0  0  0  0  0  0  0  0  0  0  0  0
    1.0387   -7.0301    2.5175 C   0  0  0  0  0  0  0  0  0  0  0  0
    0.9130   -7.5288    1.2013 C   0  0  0  0  0  0  0  0  0  0  0  0
    0.7893   -8.7979    0.9542 C   0  0  0  0  0  0  0  0  0  0  0  0
    0.3998  -13.3695    2.7114 C   0  0  0  0  0  0  0  0  0  0  0  0
   -0.8069  -13.8090    2.3159 C   0  0  0  0  0  0  0  0  0  0  0  0
   -1.0012  -15.1954    2.1657 C   0  0  0  0  0  0  0  0  0  0  0  0
   -0.0060  -16.1116    2.2775 C   0  0  0  0  0  0  0  0  0  0  0  0
    1.3310  -15.6885    2.7363 C   0  0  0  0  0  0  0  0  0  0  0  0
    1.5390  -14.2972    2.9647 C   0  0  0  0  0  0  0  0  0  0  0  0
    0.4415   -9.2683   -0.3642 C   0  0  0  0  0  0  0  0  0  0  0  0
   -0.8758   -9.5142   -0.6272 O   0  0  0  0  0  0  0  0  0  0  0  0
    1.2803   -9.3489   -1.2482 O   0  0  0  0  0  0  0  0  0  0  0  0
    1.3360   -5.6235    2.6606 Cl  0  0  0  0  0  0  0  0  0  0  0  0
  5 11  1  0
 10 17  1  0
 17 18  2  0
 17 19  1  0
  8 20  1  0
 11 12  2  0
 12 13  1  0
 13 14  2  0
 14 15  1  0
 15 16  2  0
 11 16  1  0
  2  3  1  0
  3  4  2  0
  4  5  1  0
  5  6  2  0
  6  7  1  0
  1  2  2  0
  2  7  1  0
  7 10  2  0
  9 10  1  0
  8  9  2  0
  1  8  1  0
M  END

$$$$
No_4685-/export/home/yangzhenyu/potential_scad_32_flow//YTHDC2/2024-12-06-03-22-00/
     RDKit          3D

 17 18  0  0  0  0  0  0  0  0999 V2000
    1.1787   -8.0297    3.5154 C   0  0  0  0  0  0  0  0  0  0  0  0
    1.1048   -9.2215    3.2892 C   0  0  0  0  0  0  0  0  0  0  0  0
    1.3627  -10.1721    4.3044 C   0  0  0  0  0  0  0  0  0  0  0  0
    1.0682  -11.5187    4.0618 C   0  0  0  0  0  0  0  0  0  0  0  0
    0.6332  -11.9655    2.9682 C   0  0  0  0  0  0  0  0  0  0  0  0
    0.4776  -11.1308    1.9203 C   0  0  0  0  0  0  0  0  0  0  0  0
    0.7470   -9.8274    2.0368 C   0  0  0  0  0  0  0  0  0  0  0  0
    1.0387   -7.0301    2.5175 C   0  0  0  0  0  0  0  0  0  0  0  0
    0.9130   -7.5288    1.2013 C   0  0  0  0  0  0  0  0  0  0  0  0
    0.7893   -8.7979    0.9542 C   0  0  0  0  0  0  0  0  0  0  0  0
    1.3508   -9.2321   -0.2427 C   0  0  0  0  0  0  0  0  0  0  0  0
    2.2107  -10.1993   -0.3673 O   0  0  0  0  0  0  0  0  0  0  0  0
    0.6340   -9.1289   -1.2962 O   0  0  0  0  0  0  0  0  0  0  0  0
    0.5069  -13.3805    2.7471 C   0  0  0  0  0  0  0  0  0  0  0  0
   -0.5964  -13.8880    2.4141 C   0  0  0  0  0  0  0  0  0  0  0  0
   -0.6732  -15.3754    2.3768 N   0  0  0  0  0  0  0  0  0  0  0  0
    0.1380  -15.9290    2.6126 H   0  0  0  0  0  0  0  0  0  0  0  0
 10 11  1  0
 11 12  1  0
 11 13  2  0
  5 14  1  0
 14 15  1  0
 15 16  2  0
  2  3  1  0
  3  4  2  0
  4  5  1  0
  5  6  2  0
  6  7  1  0
  1  2  2  0
  2  7  1  0
  7 10  2  0
  9 10  1  0
  8  9  2  0
  1  8  1  0
 16 17  1  0
M  END

$$$$
No_4686-/export/home/yangzhenyu/potential_scad_32_flow//YTHDC2/2024-12-06-03-22-00/
     RDKit          3D

 18 20  0  0  0  0  0  0  0  0999 V2000
    1.1787   -8.0297    3.5154 C   0  0  0  0  0  0  0  0  0  0  0  0
    1.1048   -9.2215    3.2892 C   0  0  0  0  0  0  0  0  0  0  0  0
    1.3627  -10.1721    4.3044 C   0  0  0  0  0  0  0  0  0  0  0  0
    1.7354  -11.4730    3.9023 C   0  0  0  0  0  0  0  0  0  0  0  0
    1.8080  -11.8127    2.7216 C   0  0  0  0  0  0  0  0  0  0  0  0
    1.5854  -11.0021    1.7249 C   0  0  0  0  0  0  0  0  0  0  0  0
    1.3573   -9.7389    1.9287 C   0  0  0  0  0  0  0  0  0  0  0  0
    1.1102   -8.8712    0.9017 C   0  0  0  0  0  0  0  0  0  0  0  0
    0.5299   -7.6926    1.0325 C   0  0  0  0  0  0  0  0  0  0  0  0
    0.3222   -6.8161   -0.0979 C   0  0  0  0  0  0  0  0  0  0  0  0
   -0.4666   -5.7274    0.2824 C   0  0  0  0  0  0  0  0  0  0  0  0
   -0.6963   -5.5202    1.6987 C   0  0  0  0  0  0  0  0  0  0  0  0
   -1.4236   -4.1803    2.0869 C   0  0  0  0  0  0  0  0  0  0  0  0
    2.1135  -13.2322    2.3952 C   0  0  0  0  0  0  0  0  0  0  0  0
    2.4600  -13.6932    1.1672 O   0  0  0  0  0  0  0  0  0  0  0  0
    2.3488  -14.1670    3.3625 O   0  0  0  0  0  0  0  0  0  0  0  0
    0.7265   -7.1692    2.3472 C   0  0  0  0  0  0  0  0  0  0  0  0
    0.1265   -6.1064    2.6280 N   0  0  0  0  0  0  0  0  0  0  0  0
 12 13  1  0
  5 14  1  0
 14 15  2  0
 14 16  1  0
  2  3  1  0
  3  4  2  0
  4  5  1  0
  5  6  2  0
  6  7  1  0
  1  2  2  0
  2  7  1  0
  7  8  2  0
  8  9  1  0
  1 17  1  0
  9 10  2  0
 10 11  1  0
 11 12  2  0
 12 18  1  0
 17 18  2  0
  9 17  1  0
M  END

$$$$
No_4687-/export/home/yangzhenyu/potential_scad_32_flow//YTHDC2/2024-12-06-03-22-00/
     RDKit          3D

 18 18  0  0  0  0  0  0  0  0999 V2000
    1.1787   -8.0297    3.5154 C   0  0  0  0  0  0  0  0  0  0  0  0
    1.1048   -9.2215    3.2892 C   0  0  0  0  0  0  0  0  0  0  0  0
    1.2339   -9.7611    2.0189 C   0  0  0  0  0  0  0  0  0  0  0  0
    1.3583   -9.0036    0.9764 C   0  0  0  0  0  0  0  0  0  0  0  0
    1.7077   -9.6100   -0.3011 C   0  0  0  0  0  0  0  0  0  0  0  0
    1.3637   -7.1087    2.3226 C   0  0  0  0  0  0  0  0  0  0  0  0
    1.4257   -7.6645    1.0231 C   0  0  0  0  0  0  0  0  0  0  0  0
    1.9364   -8.8976   -1.3212 O   0  0  0  0  0  0  0  0  0  0  0  0
    1.5161  -10.9175   -0.4592 O   0  0  0  0  0  0  0  0  0  0  0  0
    1.1228  -10.1701    4.3932 C   0  0  0  0  0  0  0  0  0  0  0  0
    0.9494  -11.6877    4.0226 C   0  0  0  0  0  0  0  0  0  0  0  0
   -0.3424  -12.1178    3.8162 C   0  0  0  0  0  0  0  0  0  0  0  0
   -0.4883  -13.2345    3.0337 C   0  0  0  0  0  0  0  0  0  0  0  0
    0.6116  -13.9470    2.6422 C   0  0  0  0  0  0  0  0  0  0  0  0
    1.8685  -13.5284    2.8124 Cl  0  0  0  0  0  0  0  0  0  0  0  0
    0.2201  -15.1887    1.9708 C   0  0  0  0  0  0  0  0  0  0  0  0
   -0.5150  -15.1304    0.8788 C   0  0  0  0  0  0  0  0  0  0  0  0
   -0.8449  -16.3087    0.1735 C   0  0  0  0  0  0  0  0  0  0  0  0
  4  5  1  0
  5  8  2  0
  5  9  1  0
  2 10  1  0
 10 11  1  0
 11 12  1  0
 12 13  2  3
 13 14  1  0
 14 15  1  0
 14 16  1  0
 16 17  2  3
 17 18  1  0
  1  2  2  0
  2  3  1  0
  3  4  2  0
  4  7  1  0
  6  7  2  0
  1  6  1  0
M  END

$$$$
No_4688-/export/home/yangzhenyu/potential_scad_32_flow//YTHDC2/2024-12-06-03-22-00/
     RDKit          3D

 18 19  0  0  0  0  0  0  0  0999 V2000
    1.1787   -8.0297    3.5154 C   0  0  0  0  0  0  0  0  0  0  0  0
    1.1048   -9.2215    3.2892 C   0  0  0  0  0  0  0  0  0  0  0  0
    1.2339   -9.7611    2.0189 C   0  0  0  0  0  0  0  0  0  0  0  0
    1.3583   -9.0036    0.9764 C   0  0  0  0  0  0  0  0  0  0  0  0
    1.5996   -7.6362    1.1311 C   0  0  0  0  0  0  0  0  0  0  0  0
    1.4830   -7.0928    2.3626 C   0  0  0  0  0  0  0  0  0  0  0  0
    1.1008  -11.2372    1.8542 C   0  0  0  0  0  0  0  0  0  0  0  0
    0.5178  -11.9759    2.3445 C   0  0  0  0  0  0  0  0  0  0  0  0
    0.4575  -13.3705    2.1281 C   0  0  0  0  0  0  0  0  0  0  0  0
    1.1632  -14.1013    2.0451 C   0  0  0  0  0  0  0  0  0  0  0  0
    2.4646  -13.5566    1.4445 C   0  0  0  0  0  0  0  0  0  0  0  0
    1.0647  -15.5680    1.9364 N   0  0  0  0  0  0  0  0  0  0  0  0
    0.0396  -16.0486    1.8732 C   0  0  0  0  0  0  0  0  0  0  0  0
   -0.0429  -17.1927    1.8617 C   0  0  0  0  0  0  0  0  0  0  0  0
    0.6542  -18.0377    2.1986 C   0  0  0  0  0  0  0  0  0  0  0  0
    1.5528   -5.6544    2.6263 C   0  0  0  0  0  0  0  0  0  0  0  0
    1.9594  -17.6993    2.7559 C   0  0  0  0  0  0  0  0  0  0  0  0
    2.2542  -16.2301    2.5946 C   0  0  0  0  0  0  0  0  0  0  0  0
  3  7  1  0
  7  8  2  3
  8  9  1  0
  9 10  2  3
 10 11  1  0
 10 12  1  0
 12 13  1  0
 14 15  1  0
  6 16  1  0
 15 17  1  0
 12 18  1  0
 17 18  1  0
 13 14  1  0
  1  2  2  0
  2  3  1  0
  3  4  2  0
  4  5  1  0
  5  6  2  0
  1  6  1  0
M  END

$$$$
No_4689-/export/home/yangzhenyu/potential_scad_32_flow//YTHDC2/2024-12-06-03-22-00/
     RDKit          3D

 19 19  0  0  0  0  0  0  0  0999 V2000
    1.1787   -8.0297    3.5154 C   0  0  0  0  0  0  0  0  0  0  0  0
    1.1048   -9.2215    3.2892 C   0  0  0  0  0  0  0  0  0  0  0  0
    1.2339   -9.7611    2.0189 C   0  0  0  0  0  0  0  0  0  0  0  0
    1.3583   -9.0036    0.9764 C   0  0  0  0  0  0  0  0  0  0  0  0
    1.5996   -7.6362    1.1311 C   0  0  0  0  0  0  0  0  0  0  0  0
    1.4830   -7.0928    2.3626 C   0  0  0  0  0  0  0  0  0  0  0  0
    1.4898   -5.7274    2.6199 C   0  0  0  0  0  0  0  0  0  0  0  0
    1.1681  -11.2222    1.8390 C   0  0  0  0  0  0  0  0  0  0  0  0
    1.9047  -12.1147    2.3357 C   0  0  0  0  0  0  0  0  0  0  0  0
    1.2927  -13.3233    2.7474 C   0  0  0  0  0  0  0  0  0  0  0  0
    1.7756  -14.5591    2.3026 C   0  0  0  0  0  0  0  0  0  0  0  0
    2.8951  -14.5908    1.5996 N   0  0  0  0  0  0  0  0  0  0  0  0
    1.7532  -15.6552    3.2659 O   0  0  0  0  0  0  0  0  0  0  0  0
    1.7037   -5.1757    3.8648 O   0  0  0  0  0  0  0  0  0  0  0  0
    1.2550   -4.8323    1.6832 O   0  0  0  0  0  0  0  0  0  0  0  0
    1.6279   -9.4611   -0.3144 C   0  0  0  0  0  0  0  0  0  0  0  0
    2.6579   -9.7760   -0.8151 O   0  0  0  0  0  0  0  0  0  0  0  0
    0.4720   -9.9049   -0.8790 Cl  0  0  0  0  0  0  0  0  0  0  0  0
    0.7468  -10.2181    4.5287 Cl  0  0  0  0  0  0  0  0  0  0  0  0
  6  7  1  0
  3  8  1  0
  8  9  1  0
  9 10  1  0
 10 11  1  0
 11 12  1  0
 11 13  2  0
  7 14  1  0
  7 15  2  0
  4 16  1  0
 16 17  2  0
 16 18  1  0
  2 19  1  0
  1  2  2  0
  2  3  1  0
  3  4  2  0
  4  5  1  0
  5  6  2  0
  1  6  1  0
M  END

$$$$
No_4690-/export/home/yangzhenyu/potential_scad_32_flow//YTHDC2/2024-12-06-03-22-00/
     RDKit          3D

 19 19  0  0  0  0  0  0  0  0999 V2000
    1.1787   -8.0297    3.5154 O   0  0  0  0  0  0  0  0  0  0  0  0
    0.9969   -8.9689    3.0048 C   0  0  0  0  0  0  0  0  0  0  0  0
    1.3055  -10.1056    3.6616 C   0  0  0  0  0  0  0  0  0  0  0  0
    1.1249  -11.3503    3.0941 C   0  0  0  0  0  0  0  0  0  0  0  0
    0.6932  -11.4484    1.8586 C   0  0  0  0  0  0  0  0  0  0  0  0
    0.5498  -10.3736    1.0579 C   0  0  0  0  0  0  0  0  0  0  0  0
    0.7643   -9.1185    1.6383 C   0  0  0  0  0  0  0  0  0  0  0  0
    0.5937   -7.8467    1.0482 C   0  0  0  0  0  0  0  0  0  0  0  0
   -0.4358   -7.6746    0.4159 O   0  0  0  0  0  0  0  0  0  0  0  0
    1.6386   -7.1686    0.4707 O   0  0  0  0  0  0  0  0  0  0  0  0
    1.1671  -12.6321    3.8527 C   0  0  0  0  0  0  0  0  0  0  0  0
    1.4214  -13.7310    2.9776 O   0  0  0  0  0  0  0  0  0  0  0  0
    0.6100  -14.8691    3.1780 C   0  0  0  0  0  0  0  0  0  0  0  0
    0.9940  -15.7417    2.0195 C   0  0  0  0  0  0  0  0  0  0  0  0
    1.4819  -15.2589    0.9888 O   0  0  0  0  0  0  0  0  0  0  0  0
    0.6843  -16.9981    2.1573 O   0  0  0  0  0  0  0  0  0  0  0  0
    1.3491  -17.9121    2.7077 C   0  0  0  0  0  0  0  0  0  0  0  0
    1.6996  -18.7708    2.1392 C   0  0  0  0  0  0  0  0  0  0  0  0
    1.8999  -17.6942    4.0925 C   0  0  0  0  0  0  0  0  0  0  0  0
  1  2  1  0
  7  8  1  0
  8  9  2  0
  8 10  1  0
  4 11  1  0
 11 12  1  0
 12 13  1  0
 13 14  1  0
 14 15  2  0
 14 16  1  0
 16 17  1  0
 17 18  2  0
 17 19  1  0
  2  3  2  0
  3  4  1  0
  4  5  2  0
  5  6  1  0
  6  7  2  0
  2  7  1  0
M  END

$$$$
No_4691-/export/home/yangzhenyu/potential_scad_32_flow//YTHDC2/2024-12-06-03-22-00/
     RDKit          3D

 18 19  0  0  0  0  0  0  0  0999 V2000
    1.1787   -8.0297    3.5154 C   0  0  0  0  0  0  0  0  0  0  0  0
    1.1048   -9.2215    3.2892 C   0  0  0  0  0  0  0  0  0  0  0  0
    1.2339   -9.7611    2.0189 C   0  0  0  0  0  0  0  0  0  0  0  0
    1.3583   -9.0036    0.9764 C   0  0  0  0  0  0  0  0  0  0  0  0
    1.5996   -7.6362    1.1311 C   0  0  0  0  0  0  0  0  0  0  0  0
    1.4830   -7.0928    2.3626 C   0  0  0  0  0  0  0  0  0  0  0  0
    1.1008  -11.2372    1.8542 C   0  0  0  0  0  0  0  0  0  0  0  0
    0.5178  -11.9759    2.3445 C   0  0  0  0  0  0  0  0  0  0  0  0
    0.4575  -13.3705    2.1281 C   0  0  0  0  0  0  0  0  0  0  0  0
    1.3993  -14.2795    2.9783 C   0  0  0  0  0  0  0  0  0  0  0  0
    1.3982  -15.5837    2.7718 C   0  0  0  0  0  0  0  0  0  0  0  0
    0.6478  -16.1498    1.8129 C   0  0  0  0  0  0  0  0  0  0  0  0
   -0.1507  -15.4364    1.0075 C   0  0  0  0  0  0  0  0  0  0  0  0
   -0.2761  -14.0581    1.2370 C   0  0  0  0  0  0  0  0  0  0  0  0
    1.5638   -5.6558    2.6514 N   0  0  0  0  0  0  0  0  0  0  0  0
    1.5168   -9.3731   -0.4013 C   0  0  0  0  0  0  0  0  0  0  0  0
    2.5186   -9.5419   -0.9684 O   0  0  0  0  0  0  0  0  0  0  0  0
    0.3649   -9.5196   -1.0354 O   0  0  0  0  0  0  0  0  0  0  0  0
  3  7  1  0
  7  8  2  3
  8  9  1  0
  6 15  1  0
  4 16  1  0
 16 17  2  0
 16 18  1  0
  1  2  2  0
  2  3  1  0
  3  4  2  0
  4  5  1  0
  5  6  2  0
  1  6  1  0
  9 10  2  0
 10 11  1  0
 11 12  2  0
 12 13  1  0
 13 14  2  0
  9 14  1  0
M  END

$$$$
No_4692-/export/home/yangzhenyu/potential_scad_32_flow//YTHDC2/2024-12-06-03-22-00/
     RDKit          3D

 19 21  0  0  0  0  0  0  0  0999 V2000
    1.1787   -8.0297    3.5154 C   0  0  0  0  0  0  0  0  0  0  0  0
    1.1048   -9.2215    3.2892 C   0  0  0  0  0  0  0  0  0  0  0  0
    1.3627  -10.1721    4.3044 C   0  0  0  0  0  0  0  0  0  0  0  0
    1.0682  -11.5187    4.0618 C   0  0  0  0  0  0  0  0  0  0  0  0
    0.6332  -11.9655    2.9682 C   0  0  0  0  0  0  0  0  0  0  0  0
    0.4776  -11.1308    1.9203 C   0  0  0  0  0  0  0  0  0  0  0  0
    0.7470   -9.8274    2.0368 C   0  0  0  0  0  0  0  0  0  0  0  0
    1.0387   -7.0301    2.5175 C   0  0  0  0  0  0  0  0  0  0  0  0
    0.9130   -7.5288    1.2013 C   0  0  0  0  0  0  0  0  0  0  0  0
    0.7893   -8.7979    0.9542 C   0  0  0  0  0  0  0  0  0  0  0  0
    0.5241   -9.2578   -0.2817 C   0  0  0  0  0  0  0  0  0  0  0  0
    1.2450   -9.2169   -1.2769 O   0  0  0  0  0  0  0  0  0  0  0  0
   -0.8472   -8.9144   -0.7047 O   0  0  0  0  0  0  0  0  0  0  0  0
    0.5138  -13.3794    2.6993 C   0  0  0  0  0  0  0  0  0  0  0  0
   -0.5391  -13.9330    2.4608 C   0  0  0  0  0  0  0  0  0  0  0  0
   -0.6272  -15.3858    2.3894 C   0  0  0  0  0  0  0  0  0  0  0  0
    0.4957  -16.1742    2.3998 C   0  0  0  0  0  0  0  0  0  0  0  0
    1.7489  -15.5764    2.8314 C   0  0  0  0  0  0  0  0  0  0  0  0
    1.7981  -14.1462    2.9431 C   0  0  0  0  0  0  0  0  0  0  0  0
 10 11  1  0
 11 12  1  0
 11 13  2  0
  5 14  1  0
  2  3  1  0
  3  4  2  0
  4  5  1  0
  5  6  2  0
  6  7  1  0
  1  2  2  0
  2  7  1  0
  7 10  2  0
  9 10  1  0
  8  9  2  0
  1  8  1  0
 14 15  2  0
 15 16  1  0
 16 17  2  0
 17 18  1  0
 18 19  2  0
 14 19  1  0
M  END

$$$$
No_4693-/export/home/yangzhenyu/potential_scad_32_flow//YTHDC2/2024-12-06-03-22-00/
     RDKit          3D

 18 19  0  0  0  0  0  0  0  0999 V2000
    1.1787   -8.0297    3.5154 N   0  0  0  0  0  0  0  0  0  0  0  0
    0.8669   -7.0905    2.8589 C   0  0  0  0  0  0  0  0  0  0  0  0
    1.0447   -7.3244    1.4123 C   0  0  0  0  0  0  0  0  0  0  0  0
    1.3746   -8.4389    1.0864 C   0  0  0  0  0  0  0  0  0  0  0  0
    1.8493   -9.4093    1.8124 C   0  0  0  0  0  0  0  0  0  0  0  0
    1.7421   -9.2119    3.1541 C   0  0  0  0  0  0  0  0  0  0  0  0
    2.0608  -10.3132    4.0586 C   0  0  0  0  0  0  0  0  0  0  0  0
    1.3103  -11.3806    4.2606 C   0  0  0  0  0  0  0  0  0  0  0  0
   -0.0555  -11.1074    3.9964 C   0  0  0  0  0  0  0  0  0  0  0  0
   -0.6875  -10.0863    4.7446 C   0  0  0  0  0  0  0  0  0  0  0  0
   -2.0093   -9.7773    4.5186 C   0  0  0  0  0  0  0  0  0  0  0  0
   -2.7223  -10.4918    3.6320 C   0  0  0  0  0  0  0  0  0  0  0  0
   -2.1994  -11.4898    2.9607 C   0  0  0  0  0  0  0  0  0  0  0  0
   -0.8612  -11.8884    3.1497 C   0  0  0  0  0  0  0  0  0  0  0  0
    1.6791   -8.7232   -0.3660 Cl  0  0  0  0  0  0  0  0  0  0  0  0
   -0.2821  -12.7608    2.2516 C   0  0  0  0  0  0  0  0  0  0  0  0
   -2.9158  -12.1126    2.0339 C   0  0  0  0  0  0  0  0  0  0  0  0
    0.6086  -12.6127    1.2747 O   0  0  0  0  0  0  0  0  0  0  0  0
  6  7  1  0
  7  8  1  0
  8  9  1  0
  4 15  1  0
 14 16  1  0
 13 17  1  0
 16 18  2  0
  1  2  2  0
  2  3  1  0
  3  4  2  0
  4  5  1  0
  5  6  2  0
  1  6  1  0
  9 10  2  0
 10 11  1  0
 11 12  2  0
 12 13  1  0
 13 14  2  0
  9 14  1  0
M  END

$$$$
No_4694-/export/home/yangzhenyu/potential_scad_32_flow//YTHDC2/2024-12-06-03-22-00/
     RDKit          3D

 18 19  0  0  0  0  0  0  0  0999 V2000
    1.1787   -8.0297    3.5154 C   0  0  0  0  0  0  0  0  0  0  0  0
    1.0491   -6.8434    2.9820 C   0  0  0  0  0  0  0  0  0  0  0  0
    0.9905   -9.0774    2.6527 C   0  0  0  0  0  0  0  0  0  0  0  0
    0.7897   -8.9519    1.3691 C   0  0  0  0  0  0  0  0  0  0  0  0
    0.7018   -7.7198    0.7892 C   0  0  0  0  0  0  0  0  0  0  0  0
    0.8918   -6.5957    1.6117 C   0  0  0  0  0  0  0  0  0  0  0  0
    1.0998  -10.4710    3.2437 C   0  0  0  0  0  0  0  0  0  0  0  0
    1.3102  -11.5554    2.5214 C   0  0  0  0  0  0  0  0  0  0  0  0
    1.5840  -11.4028    1.1226 C   0  0  0  0  0  0  0  0  0  0  0  0
    1.2367  -10.1673    0.5312 C   0  0  0  0  0  0  0  0  0  0  0  0
    1.6646  -12.8841    2.9445 C   0  0  0  0  0  0  0  0  0  0  0  0
    0.5217  -13.6794    3.1256 O   0  0  0  0  0  0  0  0  0  0  0  0
    0.6746   -5.2918    1.1671 C   0  0  0  0  0  0  0  0  0  0  0  0
    1.4762   -4.2932    1.7003 O   0  0  0  0  0  0  0  0  0  0  0  0
   -0.2762   -4.8226    0.5715 O   0  0  0  0  0  0  0  0  0  0  0  0
    0.7989  -15.0894    3.1632 C   0  0  0  0  0  0  0  0  0  0  0  0
    0.7600  -15.7250    2.0640 C   0  0  0  0  0  0  0  0  0  0  0  0
    1.6534  -16.6253    1.6961 O   0  0  0  0  0  0  0  0  0  0  0  0
  8 11  1  0
 11 12  1  0
  6 13  1  0
 13 14  1  0
 13 15  2  0
 12 16  1  0
 16 17  1  0
 17 18  1  0
  4 10  2  0
  9 10  1  0
  8  9  2  0
  7  8  1  0
  3  7  2  0
  1  2  2  0
  2  6  1  0
  5  6  2  0
  4  5  1  0
  3  4  1  0
  1  3  1  0
M  END

$$$$
No_4695-/export/home/yangzhenyu/potential_scad_32_flow//YTHDC2/2024-12-06-03-22-00/
     RDKit          3D

 19 20  0  0  1  0  0  0  0  0999 V2000
    1.1787   -8.0297    3.5154 C   0  0  0  0  0  0  0  0  0  0  0  0
    1.1048   -9.2215    3.2892 C   0  0  0  0  0  0  0  0  0  0  0  0
    1.3627  -10.1721    4.3044 C   0  0  0  0  0  0  0  0  0  0  0  0
    1.0682  -11.5187    4.0618 C   0  0  0  0  0  0  0  0  0  0  0  0
    0.6332  -11.9655    2.9682 C   0  0  0  0  0  0  0  0  0  0  0  0
    0.4776  -11.1308    1.9203 C   0  0  0  0  0  0  0  0  0  0  0  0
    0.7470   -9.8274    2.0368 C   0  0  0  0  0  0  0  0  0  0  0  0
    0.5535   -7.1314    2.6861 C   0  0  0  0  0  0  0  0  0  0  0  0
    0.2950   -7.6000    1.3275 C   0  0  0  0  0  0  0  0  0  0  0  0
    0.2693   -8.8631    1.0973 C   0  0  1  0  0  0  0  0  0  0  0  0
   -0.0069   -6.7080    0.3888 O   0  0  0  0  0  0  0  0  0  0  0  0
    0.4773  -13.6209    2.7227 S   0  0  0  0  0  0  0  0  0  0  0  0
    1.2756  -14.3217    3.6178 N   0  0  0  0  0  0  0  0  0  0  0  0
   -0.8919  -13.8693    3.2121 O   0  0  0  0  0  0  0  0  0  0  0  0
    0.6638  -13.9609    1.3923 O   0  0  0  0  0  0  0  0  0  0  0  0
    0.0488   -9.2918   -0.1842 C   0  0  0  0  0  0  0  0  0  0  0  0
   -1.2901   -9.6271   -0.4677 O   0  0  0  0  0  0  0  0  0  0  0  0
    0.8519   -9.1585   -1.1910 O   0  0  0  0  0  0  0  0  0  0  0  0
    1.8072  -15.6278    3.1611 C   0  0  0  0  0  0  0  0  0  0  0  0
  1  2  1  0
  8  9  1  0
  7 10  1  0
  9 10  1  0
  9 11  2  0
  5 12  1  0
 12 13  1  0
 12 14  2  0
 12 15  2  0
 10 16  1  6
 16 17  1  0
 16 18  2  0
 13 19  1  0
  1  8  1  0
  2  3  2  0
  3  4  1  0
  4  5  2  0
  5  6  1  0
  6  7  2  0
  2  7  1  0
M  END

$$$$
No_4696-/export/home/yangzhenyu/potential_scad_32_flow//YTHDC2/2024-12-06-03-22-00/
     RDKit          3D

 19 21  0  0  0  0  0  0  0  0999 V2000
    1.1787   -8.0297    3.5154 C   0  0  0  0  0  0  0  0  0  0  0  0
    1.0491   -6.8434    2.9820 C   0  0  0  0  0  0  0  0  0  0  0  0
    0.9905   -9.0774    2.6527 C   0  0  0  0  0  0  0  0  0  0  0  0
    1.1655  -10.4663    3.1286 C   0  0  0  0  0  0  0  0  0  0  0  0
    1.2197  -11.4898    2.5831 C   0  0  0  0  0  0  0  0  0  0  0  0
    1.5411  -12.7330    3.1052 C   0  0  0  0  0  0  0  0  0  0  0  0
    1.4987   -5.6064    3.6965 C   0  0  0  0  0  0  0  0  0  0  0  0
    1.1208  -13.7925    2.6658 C   0  0  0  0  0  0  0  0  0  0  0  0
    0.3971  -13.9967    1.5139 C   0  0  0  0  0  0  0  0  0  0  0  0
    0.1518  -12.8550    0.8145 C   0  0  0  0  0  0  0  0  0  0  0  0
    0.5402  -11.6287    1.2969 C   0  0  0  0  0  0  0  0  0  0  0  0
    0.6615   -6.6066    1.7179 C   0  0  0  0  0  0  0  0  0  0  0  0
    0.6868   -7.5011    0.8465 C   0  0  0  0  0  0  0  0  0  0  0  0
    0.7814   -8.9164    1.2149 C   0  0  0  0  0  0  0  0  0  0  0  0
    0.1635  -10.4307    0.5209 C   0  0  0  0  0  0  0  0  0  0  0  0
    0.0929  -10.2623   -0.6690 O   0  0  0  0  0  0  0  0  0  0  0  0
    1.4523  -15.1026    3.4082 O   0  0  0  0  0  0  0  0  0  0  0  0
    1.4742   -4.4760    3.5123 O   0  0  0  0  0  0  0  0  0  0  0  0
    1.9825  -16.1111    2.8565 C   0  0  0  0  0  0  0  0  0  0  0  0
  3  4  1  0
  2  7  1  0
 11 15  1  0
 14 15  1  0
 15 16  2  0
  8 17  1  0
  7 18  2  0
 17 19  1  0
  4  5  1  0
  5  6  2  0
  6  8  1  0
  8  9  2  0
  9 10  1  0
 10 11  2  0
  5 11  1  0
  1  2  2  0
  2 12  1  0
 12 13  2  0
 13 14  1  0
  3 14  2  0
  1  3  1  0
M  END

$$$$
No_4697-/export/home/yangzhenyu/potential_scad_32_flow//YTHDC2/2024-12-06-03-22-00/
     RDKit          3D

 20 21  0  0  0  0  0  0  0  0999 V2000
    1.1787   -8.0297    3.5154 C   0  0  0  0  0  0  0  0  0  0  0  0
    1.0491   -6.8434    2.9820 C   0  0  0  0  0  0  0  0  0  0  0  0
    1.9985   -8.9840    2.8958 C   0  0  0  0  0  0  0  0  0  0  0  0
    1.9135  -10.3404    3.6266 C   0  0  0  0  0  0  0  0  0  0  0  0
    0.9460  -10.6347    4.5748 C   0  0  0  0  0  0  0  0  0  0  0  0
   -0.0977   -9.6850    4.6652 C   0  0  0  0  0  0  0  0  0  0  0  0
   -0.0465   -8.4791    4.1040 C   0  0  0  0  0  0  0  0  0  0  0  0
    0.3395   -6.3173    2.3392 C   0  0  0  0  0  0  0  0  0  0  0  0
    0.3781   -4.8194    1.9358 C   0  0  0  0  0  0  0  0  0  0  0  0
   -0.4037   -4.2374    1.1400 C   0  0  0  0  0  0  0  0  0  0  0  0
   -1.4797   -5.0051    0.6161 C   0  0  0  0  0  0  0  0  0  0  0  0
   -1.6469   -6.3544    0.8035 C   0  0  0  0  0  0  0  0  0  0  0  0
   -0.7396   -7.0180    1.6947 C   0  0  0  0  0  0  0  0  0  0  0  0
   -2.4017   -4.4112   -0.2563 O   0  0  0  0  0  0  0  0  0  0  0  0
   -2.7117   -5.0383   -1.4005 C   0  0  0  0  0  0  0  0  0  0  0  0
    0.8668  -11.9065    4.8081 O   0  0  0  0  0  0  0  0  0  0  0  0
   -3.6738   -5.6537   -1.4189 C   0  0  0  0  0  0  0  0  0  0  0  0
   -4.8042   -5.1508   -0.7410 C   0  0  0  0  0  0  0  0  0  0  0  0
   -5.2640   -3.9387   -1.1055 C   0  0  0  0  0  0  0  0  0  0  0  0
   -5.3795   -3.6262   -2.3910 C   0  0  0  0  0  0  0  0  0  0  0  0
  1  2  1  0
 11 14  1  0
 14 15  1  0
  5 16  1  0
 15 17  1  0
 17 18  1  0
 18 19  1  0
 19 20  1  0
  2  8  1  0
  8  9  2  0
  9 10  1  0
 10 11  2  0
 11 12  1  0
 12 13  2  0
  8 13  1  0
  1  3  2  0
  3  4  1  0
  4  5  2  0
  5  6  1  0
  6  7  2  0
  1  7  1  0
M  END

$$$$
No_4698-/export/home/yangzhenyu/potential_scad_32_flow//YTHDC2/2024-12-06-03-22-00/
     RDKit          3D

 19 21  0  0  1  0  0  0  0  0999 V2000
    1.1787   -8.0297    3.5154 N   0  0  0  0  0  0  0  0  0  0  0  0
    1.0818   -9.0751    3.2053 C   0  0  0  0  0  0  0  0  0  0  0  0
    0.7576   -9.3725    1.9159 C   0  0  0  0  0  0  0  0  0  0  0  0
    1.2780   -8.6457    1.1231 C   0  0  2  0  0  0  0  0  0  0  0  0
    1.8257   -7.4190    1.2668 N   0  0  0  0  0  0  0  0  0  0  0  0
    1.7539   -7.0491    2.5269 C   0  0  0  0  0  0  0  0  0  0  0  0
    0.6251  -10.0945    4.2238 C   0  0  0  0  0  0  0  0  0  0  0  0
    1.2919   -8.9100   -0.3861 C   0  0  0  0  0  0  0  0  0  0  0  0
   -0.0244   -9.2676   -0.7876 O   0  0  0  0  0  0  0  0  0  0  0  0
    2.2120   -8.7991   -1.1858 O   0  0  0  0  0  0  0  0  0  0  0  0
    0.0966  -11.3431    3.8750 C   0  0  0  0  0  0  0  0  0  0  0  0
    0.3809  -11.9207    3.0075 C   0  0  0  0  0  0  0  0  0  0  0  0
    0.3451  -13.2125    2.9434 C   0  0  0  0  0  0  0  0  0  0  0  0
    0.7505  -13.9419    1.7136 C   0  0  0  0  0  0  0  0  0  0  0  0
    1.0409  -13.0260    0.7348 C   0  0  0  0  0  0  0  0  0  0  0  0
    0.8778  -11.6908    0.6830 C   0  0  0  0  0  0  0  0  0  0  0  0
    0.6863  -11.0987    1.8248 C   0  0  0  0  0  0  0  0  0  0  0  0
    1.9841   -5.6864    2.8819 O   0  0  0  0  0  0  0  0  0  0  0  0
    0.8110  -15.3043    1.5685 O   0  0  0  0  0  0  0  0  0  0  0  0
  1  2  1  0
  3  4  1  0
  1  6  1  0
  5  6  1  0
  4  8  1  6
  8  9  1  0
  8 10  2  0
  6 18  2  0
 14 19  1  0
  4  5  1  0
 12 13  1  0
 13 14  2  0
 14 15  1  0
 15 16  2  0
 16 17  1  0
  2  7  2  0
  7 11  1  0
 11 12  2  0
 12 17  1  0
  3 17  2  0
  2  3  1  0
M  END

$$$$
No_4699-/export/home/yangzhenyu/potential_scad_32_flow//YTHDC2/2024-12-06-03-22-00/
     RDKit          3D

 18 19  0  0  0  0  0  0  0  0999 V2000
    1.1787   -8.0297    3.5154 Br  0  0  0  0  0  0  0  0  0  0  0  0
    0.6076   -7.9037    2.4936 C   0  0  0  0  0  0  0  0  0  0  0  0
    0.2555   -6.7588    1.9130 C   0  0  0  0  0  0  0  0  0  0  0  0
   -0.6850   -6.5613    0.9654 C   0  0  0  0  0  0  0  0  0  0  0  0
   -1.1396   -7.6489    0.2998 C   0  0  0  0  0  0  0  0  0  0  0  0
   -0.7633   -8.9103    0.7160 C   0  0  0  0  0  0  0  0  0  0  0  0
    0.0931   -9.0577    1.7637 C   0  0  0  0  0  0  0  0  0  0  0  0
    0.5145  -10.3666    2.0377 C   0  0  0  0  0  0  0  0  0  0  0  0
    0.3447  -11.4058    1.4413 C   0  0  0  0  0  0  0  0  0  0  0  0
    0.7203  -12.7219    1.7250 C   0  0  0  0  0  0  0  0  0  0  0  0
    1.5281  -12.9474    2.7599 C   0  0  0  0  0  0  0  0  0  0  0  0
    1.7513  -11.9094    3.6394 C   0  0  0  0  0  0  0  0  0  0  0  0
    1.3947  -10.6696    3.3190 C   0  0  0  0  0  0  0  0  0  0  0  0
    1.8377  -14.4842    3.2343 O   0  0  0  0  0  0  0  0  0  0  0  0
    1.6539  -15.3774    2.2841 C   0  0  0  0  0  0  0  0  0  0  0  0
    2.4675  -15.6965    1.6779 O   0  0  0  0  0  0  0  0  0  0  0  0
    0.4381  -16.0837    2.5435 C   0  0  0  0  0  0  0  0  0  0  0  0
   -1.1577   -5.0732    0.5057 O   0  0  0  0  0  0  0  0  0  0  0  0
  1  2  1  0
  7  8  1  0
 11 14  1  0
 14 15  1  0
 15 16  2  0
 15 17  1  0
  4 18  1  0
  2  3  2  0
  3  4  1  0
  4  5  2  0
  5  6  1  0
  6  7  2  0
  2  7  1  0
  8  9  2  0
  9 10  1  0
 10 11  2  0
 11 12  1  0
 12 13  2  0
  8 13  1  0
M  END

$$$$
No_4700-/export/home/yangzhenyu/potential_scad_32_flow//YTHDC2/2024-12-06-03-22-00/
     RDKit          3D

 18 18  0  0  0  0  0  0  0  0999 V2000
    1.1787   -8.0297    3.5154 C   0  0  0  0  0  0  0  0  0  0  0  0
    1.1048   -9.2215    3.2892 C   0  0  0  0  0  0  0  0  0  0  0  0
    1.2339   -9.7611    2.0189 C   0  0  0  0  0  0  0  0  0  0  0  0
    1.3583   -9.0036    0.9764 C   0  0  0  0  0  0  0  0  0  0  0  0
    1.7077   -9.6100   -0.3010 C   0  0  0  0  0  0  0  0  0  0  0  0
    1.3637   -7.1087    2.3226 C   0  0  0  0  0  0  0  0  0  0  0  0
    1.4257   -7.6645    1.0231 C   0  0  0  0  0  0  0  0  0  0  0  0
    1.9364   -8.8976   -1.3212 O   0  0  0  0  0  0  0  0  0  0  0  0
    0.9971  -10.7190   -0.5095 O   0  0  0  0  0  0  0  0  0  0  0  0
    1.1298  -10.1655    4.3973 C   0  0  0  0  0  0  0  0  0  0  0  0
    0.9566  -11.6809    4.0218 O   0  0  0  0  0  0  0  0  0  0  0  0
    1.3088   -5.6122    2.5617 C   0  0  0  0  0  0  0  0  0  0  0  0
    0.9177   -4.8830    1.5175 O   0  0  0  0  0  0  0  0  0  0  0  0
    1.3935   -5.1550    3.7864 O   0  0  0  0  0  0  0  0  0  0  0  0
    2.1355  -12.3770    4.0062 C   0  0  0  0  0  0  0  0  0  0  0  0
    1.8170  -13.5988    3.1937 C   0  0  0  0  0  0  0  0  0  0  0  0
    1.3372  -13.7504    2.3149 C   0  0  0  0  0  0  0  0  0  0  0  0
    1.2585  -14.9597    1.5153 C   0  0  0  0  0  0  0  0  0  0  0  0
  4  5  1  0
  5  8  2  0
  5  9  1  0
  2 10  1  0
 10 11  1  0
  6 12  1  0
 12 13  2  0
 12 14  1  0
 11 15  1  0
 15 16  1  0
 16 17  2  3
 17 18  1  0
  1  2  2  0
  2  3  1  0
  3  4  2  0
  4  7  1  0
  6  7  2  0
  1  6  1  0
M  END

$$$$
No_4701-/export/home/yangzhenyu/potential_scad_32_flow//YTHDC2/2024-12-06-03-22-00/
     RDKit          3D

 18 20  0  0  1  0  0  0  0  0999 V2000
    1.1787   -8.0297    3.5154 C   0  0  0  0  0  0  0  0  0  0  0  0
    1.0491   -6.8434    2.9820 C   0  0  0  0  0  0  0  0  0  0  0  0
    0.9905   -9.0774    2.6527 C   0  0  0  0  0  0  0  0  0  0  0  0
    1.1655  -10.4663    3.1286 C   0  0  0  0  0  0  0  0  0  0  0  0
    1.2197  -11.4898    2.5831 C   0  0  1  0  0  0  0  0  0  0  0  0
    1.5411  -12.7330    3.1052 C   0  0  0  0  0  0  0  0  0  0  0  0
    0.6212   -6.5301    1.7066 C   0  0  0  0  0  0  0  0  0  0  0  0
    0.4208   -7.5365    0.9144 C   0  0  0  0  0  0  0  0  0  0  0  0
    0.5253   -8.8638    1.3136 C   0  0  0  0  0  0  0  0  0  0  0  0
    1.2829  -13.9924    2.3719 C   0  0  0  0  0  0  0  0  0  0  0  0
    1.8689  -15.2123    3.0057 C   0  0  0  0  0  0  0  0  0  0  0  0
    1.5654  -16.4401    2.2692 C   0  0  0  0  0  0  0  0  0  0  0  0
    1.0489  -16.2409    1.0566 C   0  0  0  0  0  0  0  0  0  0  0  0
    0.5972  -15.2647    0.6692 C   0  0  0  0  0  0  0  0  0  0  0  0
    0.7853  -14.0102    1.1605 C   0  0  0  0  0  0  0  0  0  0  0  0
    0.3273   -9.8399    0.3934 C   0  0  0  0  0  0  0  0  0  0  0  0
    0.7645  -11.3655    1.1164 C   0  0  0  0  0  0  0  0  0  0  0  0
   -0.0638   -9.9065   -0.6387 O   0  0  0  0  0  0  0  0  0  0  0  0
  3  4  1  0
  5  6  1  1
  6 10  1  0
  9 16  1  0
  5 17  1  0
 16 17  1  0
 16 18  2  0
  4  5  1  0
 10 11  2  0
 11 12  1  0
 12 13  2  0
 13 14  1  0
 14 15  2  0
 10 15  1  0
  1  2  2  0
  2  7  1  0
  7  8  2  0
  8  9  1  0
  3  9  2  0
  1  3  1  0
M  END

$$$$
No_4702-/export/home/yangzhenyu/potential_scad_32_flow//YTHDC2/2024-12-06-03-22-00/
     RDKit          3D

 19 20  0  0  0  0  0  0  0  0999 V2000
    1.1787   -8.0297    3.5154 C   0  0  0  0  0  0  0  0  0  0  0  0
    1.1048   -9.2215    3.2892 C   0  0  0  0  0  0  0  0  0  0  0  0
    1.0239   -9.7790    2.0239 C   0  0  0  0  0  0  0  0  0  0  0  0
    1.1393   -9.0211    0.9686 C   0  0  0  0  0  0  0  0  0  0  0  0
    1.3160   -9.6264   -0.3268 C   0  0  0  0  0  0  0  0  0  0  0  0
    1.3620   -7.1064    2.3319 C   0  0  0  0  0  0  0  0  0  0  0  0
    1.2578   -7.6370    1.0089 C   0  0  0  0  0  0  0  0  0  0  0  0
    0.6573   -9.4329   -1.0904 O   0  0  0  0  0  0  0  0  0  0  0  0
    2.2506  -10.5047   -0.3429 O   0  0  0  0  0  0  0  0  0  0  0  0
    1.0307  -10.1736    4.3841 C   0  0  0  0  0  0  0  0  0  0  0  0
    1.8672  -11.4280    4.2313 C   0  0  0  0  0  0  0  0  0  0  0  0
    1.1513  -12.4453    3.5985 C   0  0  0  0  0  0  0  0  0  0  0  0
    1.7813  -13.4911    2.9519 C   0  0  0  0  0  0  0  0  0  0  0  0
    1.2142  -14.6472    2.7236 C   0  0  0  0  0  0  0  0  0  0  0  0
    1.9961  -15.8482    2.6998 C   0  0  0  0  0  0  0  0  0  0  0  0
    1.6058  -17.1248    2.7636 C   0  0  0  0  0  0  0  0  0  0  0  0
    0.2870  -17.3593    2.8666 C   0  0  0  0  0  0  0  0  0  0  0  0
   -0.6013  -16.3158    2.9626 C   0  0  0  0  0  0  0  0  0  0  0  0
   -0.1249  -14.9524    2.9679 C   0  0  0  0  0  0  0  0  0  0  0  0
  4  5  1  0
  5  8  1  0
  5  9  2  0
  2 10  1  0
 10 11  1  0
 11 12  1  0
 12 13  1  0
 13 14  1  0
 14 15  2  0
 15 16  1  0
 16 17  2  0
 17 18  1  0
 18 19  2  0
 14 19  1  0
  1  2  2  0
  2  3  1  0
  3  4  2  0
  4  7  1  0
  6  7  2  0
  1  6  1  0
M  END

$$$$
No_4703-/export/home/yangzhenyu/potential_scad_32_flow//YTHDC2/2024-12-06-03-22-00/
     RDKit          3D

 17 18  0  0  0  0  0  0  0  0999 V2000
    1.1787   -8.0297    3.5154 C   0  0  0  0  0  0  0  0  0  0  0  0
    1.1048   -9.2215    3.2892 C   0  0  0  0  0  0  0  0  0  0  0  0
    1.4683  -10.2314    4.1915 C   0  0  0  0  0  0  0  0  0  0  0  0
    0.8445   -6.9865    2.5175 C   0  0  0  0  0  0  0  0  0  0  0  0
    0.3587   -7.3973    1.3953 C   0  0  0  0  0  0  0  0  0  0  0  0
    0.1901   -8.6971    1.0711 C   0  0  0  0  0  0  0  0  0  0  0  0
    0.5759   -9.6647    1.9442 C   0  0  0  0  0  0  0  0  0  0  0  0
    0.6465  -11.4192    4.2286 C   0  0  0  0  0  0  0  0  0  0  0  0
    1.2991  -12.6074    4.1143 C   0  0  0  0  0  0  0  0  0  0  0  0
    1.1447  -13.1659    2.7759 C   0  0  0  0  0  0  0  0  0  0  0  0
    2.2874  -13.9264    2.3386 C   0  0  0  0  0  0  0  0  0  0  0  0
    0.0047   -6.5109    0.3755 O   0  0  0  0  0  0  0  0  0  0  0  0
    2.4753  -14.1528    1.1372 C   0  0  0  0  0  0  0  0  0  0  0  0
    2.0432  -12.9513    0.3546 C   0  0  0  0  0  0  0  0  0  0  0  0
    0.9381  -12.2698    0.6972 C   0  0  0  0  0  0  0  0  0  0  0  0
    0.6670  -12.0954    2.0361 C   0  0  0  0  0  0  0  0  0  0  0  0
   -0.0410  -14.1749    2.9354 C   0  0  0  0  0  0  0  0  0  0  0  0
  2  3  1  0
  3  8  1  0
  8  9  1  0
  9 10  1  0
 10 11  1  0
  5 12  1  0
 11 13  1  0
 13 14  1  0
 14 15  1  0
 10 16  1  0
 15 16  1  0
 10 17  1  0
  1  2  2  0
  2  7  1  0
  6  7  2  0
  5  6  1  0
  4  5  2  0
  1  4  1  0
M  END

$$$$
No_4704-/export/home/yangzhenyu/potential_scad_32_flow//YTHDC2/2024-12-06-03-22-00/
     RDKit          3D

 20 22  0  0  0  0  0  0  0  0999 V2000
    1.1787   -8.0297    3.5154 N   0  0  0  0  0  0  0  0  0  0  0  0
    1.0818   -9.0751    3.2053 C   0  0  0  0  0  0  0  0  0  0  0  0
    1.5216  -10.1164    3.9747 C   0  0  0  0  0  0  0  0  0  0  0  0
    1.4420  -11.4363    3.6461 C   0  0  0  0  0  0  0  0  0  0  0  0
    0.5969  -11.7648    2.6785 C   0  0  0  0  0  0  0  0  0  0  0  0
    0.0096  -10.8332    1.9506 C   0  0  0  0  0  0  0  0  0  0  0  0
    0.4599   -9.4074    2.2062 C   0  0  0  0  0  0  0  0  0  0  0  0
    0.8874   -6.9207    2.6308 C   0  0  0  0  0  0  0  0  0  0  0  0
    0.4768   -7.1762    1.4446 C   0  0  0  0  0  0  0  0  0  0  0  0
    0.1481   -8.4529    1.1569 C   0  0  0  0  0  0  0  0  0  0  0  0
   -0.4497   -8.7090   -0.0106 C   0  0  0  0  0  0  0  0  0  0  0  0
   -0.0035   -9.6829   -0.8412 O   0  0  0  0  0  0  0  0  0  0  0  0
   -1.6973   -8.2803   -0.3007 N   0  0  0  0  0  0  0  0  0  0  0  0
    1.3918   -5.5311    3.0932 C   0  0  0  0  0  0  0  0  0  0  0  0
    0.3519  -13.1769    2.4204 C   0  0  0  0  0  0  0  0  0  0  0  0
    0.5438  -13.8186    1.6121 C   0  0  0  0  0  0  0  0  0  0  0  0
    0.3383  -15.2350    1.3952 C   0  0  0  0  0  0  0  0  0  0  0  0
    0.4468  -16.0126    2.2283 C   0  0  0  0  0  0  0  0  0  0  0  0
    0.5355  -15.4417    3.7015 C   0  0  0  0  0  0  0  0  0  0  0  0
    0.6169  -14.0951    3.8211 C   0  0  0  0  0  0  0  0  0  0  0  0
 10 11  1  0
 11 12  2  0
 11 13  1  0
  8 14  1  0
  5 15  1  0
 15 16  2  0
 16 17  1  0
 17 18  2  0
 18 19  1  0
 19 20  2  0
 15 20  1  0
  2  3  1  0
  3  4  2  0
  4  5  1  0
  5  6  2  0
  6  7  1  0
  1  2  2  0
  2  7  1  0
  7 10  2  0
  9 10  1  0
  8  9  2  0
  1  8  1  0
M  END

$$$$
No_4705-/export/home/yangzhenyu/potential_scad_32_flow//YTHDC2/2024-12-06-03-22-00/
     RDKit          3D

 19 19  0  0  1  0  0  0  0  0999 V2000
    1.1787   -8.0297    3.5154 C   0  0  0  0  0  0  0  0  0  0  0  0
    1.1048   -9.2215    3.2892 C   0  0  0  0  0  0  0  0  0  0  0  0
    1.2339   -9.7611    2.0189 C   0  0  0  0  0  0  0  0  0  0  0  0
    1.3583   -9.0036    0.9764 C   0  0  0  0  0  0  0  0  0  0  0  0
    1.5996   -7.6362    1.1311 C   0  0  0  0  0  0  0  0  0  0  0  0
    1.4830   -7.0928    2.3626 C   0  0  0  0  0  0  0  0  0  0  0  0
    1.1171  -11.3311    1.8661 C   0  0  0  0  0  0  0  0  0  0  0  0
    0.5042  -11.9974    2.3631 C   0  0  0  0  0  0  0  0  0  0  0  0
   -0.5114  -11.5127    3.3905 C   0  0  0  0  0  0  0  0  0  0  0  0
    0.4055  -13.4591    2.1834 C   0  0  0  0  0  0  0  0  0  0  0  0
    1.4610  -14.1413    2.6392 C   0  0  0  0  0  0  0  0  0  0  0  0
    1.8401  -15.4161    2.1787 C   0  0  0  0  0  0  0  0  0  0  0  0
    1.2156  -16.5172    2.3295 C   0  0  2  0  0  0  0  0  0  0  0  0
    0.2627  -16.5867    3.0454 C   0  0  0  0  0  0  0  0  0  0  0  0
    1.5793   -5.4969    2.6739 O   0  0  0  0  0  0  0  0  0  0  0  0
    1.7028  -17.6812    1.7257 C   0  0  0  0  0  0  0  0  0  0  0  0
    1.0549  -18.8276    1.8244 O   0  0  0  0  0  0  0  0  0  0  0  0
    3.1213  -15.3212    1.5842 O   0  0  0  0  0  0  0  0  0  0  0  0
   -0.4692  -17.8236    3.2992 C   0  0  0  0  0  0  0  0  0  0  0  0
  3  7  1  0
  7  8  2  3
  8  9  1  0
  8 10  1  0
 10 11  1  0
 11 12  1  0
 12 13  1  0
 13 14  1  1
  6 15  1  0
 13 16  1  0
 16 17  1  0
 12 18  2  0
 14 19  1  0
  1  2  2  0
  2  3  1  0
  3  4  2  0
  4  5  1  0
  5  6  2  0
  1  6  1  0
M  END

$$$$
No_4706-/export/home/yangzhenyu/potential_scad_32_flow//YTHDC2/2024-12-06-03-22-00/
     RDKit          3D

 19 20  0  0  1  0  0  0  0  0999 V2000
    1.1787   -8.0297    3.5154 C   0  0  0  0  0  0  0  0  0  0  0  0
    1.0491   -6.8434    2.9820 C   0  0  0  0  0  0  0  0  0  0  0  0
    1.9985   -8.9840    2.8958 C   0  0  0  0  0  0  0  0  0  0  0  0
    1.9135  -10.3404    3.6266 C   0  0  1  0  0  0  0  0  0  0  0  0
    2.2847  -10.5440    4.7936 C   0  0  0  0  0  0  0  0  0  0  0  0
    0.3304   -6.7696    1.8077 C   0  0  0  0  0  0  0  0  0  0  0  0
   -0.0362   -5.5612    1.4430 C   0  0  0  0  0  0  0  0  0  0  0  0
    0.4987   -4.3690    2.0777 C   0  0  0  0  0  0  0  0  0  0  0  0
    1.2612   -4.4928    3.2485 C   0  0  0  0  0  0  0  0  0  0  0  0
    1.5767   -5.7598    3.6944 C   0  0  0  0  0  0  0  0  0  0  0  0
    0.6819  -11.0686    3.3387 C   0  0  0  0  0  0  0  0  0  0  0  0
   -0.3114  -10.8182    3.6991 C   0  0  0  0  0  0  0  0  0  0  0  0
   -1.5087  -11.4348    3.4135 C   0  0  0  0  0  0  0  0  0  0  0  0
   -2.7631  -11.0421    3.9840 C   0  0  0  0  0  0  0  0  0  0  0  0
   -2.8293   -9.9209    4.8307 C   0  0  0  0  0  0  0  0  0  0  0  0
   -1.6711   -9.1958    5.1542 C   0  0  0  0  0  0  0  0  0  0  0  0
   -0.4328   -9.5313    4.6265 C   0  0  0  0  0  0  0  0  0  0  0  0
    3.4533  -11.4203    5.1524 O   0  0  0  0  0  0  0  0  0  0  0  0
    0.1548   -3.0673    1.5595 C   0  0  0  0  0  0  0  0  0  0  0  0
  1  2  1  0
  1  3  1  0
  4  3  1  1
  4  5  1  0
  4 11  1  0
  5 18  2  0
  8 19  1  0
 11 12  1  0
 12 13  2  0
 13 14  1  0
 14 15  2  0
 15 16  1  0
 16 17  2  0
 12 17  1  0
  2  6  2  0
  6  7  1  0
  7  8  2  0
  8  9  1  0
  9 10  2  0
  2 10  1  0
M  END

$$$$
No_4707-/export/home/yangzhenyu/potential_scad_32_flow//YTHDC2/2024-12-06-03-22-00/
     RDKit          3D

 19 20  0  0  1  0  0  0  0  0999 V2000
    1.1787   -8.0297    3.5154 C   0  0  0  0  0  0  0  0  0  0  0  0
    1.1048   -9.2215    3.2892 C   0  0  0  0  0  0  0  0  0  0  0  0
    1.3627  -10.1721    4.3044 C   0  0  0  0  0  0  0  0  0  0  0  0
    2.3720  -10.8948    4.2468 C   0  0  0  0  0  0  0  0  0  0  0  0
    0.8234   -7.0464    2.5717 C   0  0  0  0  0  0  0  0  0  0  0  0
    0.4328   -7.4736    1.3042 C   0  0  0  0  0  0  0  0  0  0  0  0
    0.3532   -8.7488    0.9919 C   0  0  0  0  0  0  0  0  0  0  0  0
    0.7039   -9.7094    1.9672 C   0  0  0  0  0  0  0  0  0  0  0  0
    0.6986  -10.9809    1.7122 C   0  0  0  0  0  0  0  0  0  0  0  0
    0.2380  -11.4707    0.7534 C   0  0  0  0  0  0  0  0  0  0  0  0
    0.0684  -12.8479    0.4204 C   0  0  1  0  0  0  0  0  0  0  0  0
   -0.8200  -13.3602   -0.4070 C   0  0  0  0  0  0  0  0  0  0  0  0
   -0.7353  -14.7897   -0.6418 C   0  0  0  0  0  0  0  0  0  0  0  0
    1.0390   -5.5575    2.8100 C   0  0  0  0  0  0  0  0  0  0  0  0
    0.2623  -15.4963    0.0402 C   0  0  0  0  0  0  0  0  0  0  0  0
    1.1502  -15.0176    0.7808 C   0  0  0  0  0  0  0  0  0  0  0  0
    1.1700  -13.6694    1.0371 C   0  0  0  0  0  0  0  0  0  0  0  0
    2.0864  -15.8040    1.4066 O   0  0  0  0  0  0  0  0  0  0  0  0
    3.6121  -10.4544    4.9335 C   0  0  0  0  0  0  0  0  0  0  0  0
  2  3  1  0
  3  4  1  0
  8  9  1  0
  9 10  2  3
 10 11  1  0
 12 13  1  0
  5 14  1  0
 15 16  1  0
 11 17  1  6
 16 17  1  0
 16 18  2  0
  4 19  1  0
 13 15  1  0
 11 12  1  0
  1  2  2  0
  2  8  1  0
  7  8  2  0
  6  7  1  0
  5  6  2  0
  1  5  1  0
M  END

$$$$
No_4708-/export/home/yangzhenyu/potential_scad_32_flow//YTHDC2/2024-12-06-03-22-00/
     RDKit          3D

 20 20  0  0  1  0  0  0  0  0999 V2000
    1.1787   -8.0297    3.5154 C   0  0  0  0  0  0  0  0  0  0  0  0
    1.0491   -6.8434    2.9820 C   0  0  0  0  0  0  0  0  0  0  0  0
    1.9985   -8.9840    2.8958 C   0  0  0  0  0  0  0  0  0  0  0  0
    1.9135  -10.3404    3.6266 C   0  0  2  0  0  0  0  0  0  0  0  0
    2.2847  -10.5440    4.7936 C   0  0  0  0  0  0  0  0  0  0  0  0
    1.4242   -6.5584    1.8146 C   0  0  0  0  0  0  0  0  0  0  0  0
    1.0272   -5.2829    1.3742 O   0  0  0  0  0  0  0  0  0  0  0  0
    1.8221   -7.2776    0.8824 O   0  0  0  0  0  0  0  0  0  0  0  0
    2.4696  -11.3126    2.5325 C   0  0  0  0  0  0  0  0  0  0  0  0
    1.2129  -11.9567    1.8723 C   0  0  0  0  0  0  0  0  0  0  0  0
    1.1165  -13.2580    2.0270 C   0  0  0  0  0  0  0  0  0  0  0  0
    0.0522  -13.8595    2.0983 C   0  0  0  0  0  0  0  0  0  0  0  0
   -1.0784  -13.2872    1.8532 C   0  0  0  0  0  0  0  0  0  0  0  0
   -1.0847  -11.9328    1.6543 C   0  0  0  0  0  0  0  0  0  0  0  0
    0.0609  -11.2141    1.6944 C   0  0  0  0  0  0  0  0  0  0  0  0
    0.1075  -15.4879    2.3735 C   0  0  0  0  0  0  0  0  0  0  0  0
   -0.8194  -16.1812    1.9630 C   0  0  0  0  0  0  0  0  0  0  0  0
    1.1565  -15.8036    3.3710 C   0  0  0  0  0  0  0  0  0  0  0  0
    1.2191  -17.0844    3.8005 C   0  0  0  0  0  0  0  0  0  0  0  0
    0.3980  -18.0114    3.3082 C   0  0  0  0  0  0  0  0  0  0  0  0
  1  2  1  0
  1  3  1  0
  3  4  1  0
  4  5  1  1
  2  6  1  0
  6  7  1  0
  6  8  2  0
  4  9  1  0
  9 10  1  0
 12 16  1  0
 16 17  2  0
 16 18  1  0
 18 19  2  3
 19 20  1  0
 10 11  2  0
 11 12  1  0
 12 13  2  0
 13 14  1  0
 14 15  2  0
 10 15  1  0
M  END

$$$$
No_4709-/export/home/yangzhenyu/potential_scad_32_flow//YTHDC2/2024-12-06-03-22-00/
     RDKit          3D

 18 20  0  0  0  0  0  0  0  0999 V2000
    1.1787   -8.0297    3.5154 C   0  0  0  0  0  0  0  0  0  0  0  0
    1.1048   -9.2215    3.2892 C   0  0  0  0  0  0  0  0  0  0  0  0
    1.2339   -9.7611    2.0189 C   0  0  0  0  0  0  0  0  0  0  0  0
    1.3583   -9.0036    0.9764 C   0  0  0  0  0  0  0  0  0  0  0  0
    1.5996   -7.6362    1.1311 C   0  0  0  0  0  0  0  0  0  0  0  0
    1.4830   -7.0928    2.3626 C   0  0  0  0  0  0  0  0  0  0  0  0
    1.4898   -5.7274    2.6199 C   0  0  0  0  0  0  0  0  0  0  0  0
    1.1681  -11.2222    1.8390 C   0  0  0  0  0  0  0  0  0  0  0  0
    1.9047  -12.1147    2.3357 C   0  0  0  0  0  0  0  0  0  0  0  0
    1.2927  -13.3233    2.7474 C   0  0  0  0  0  0  0  0  0  0  0  0
    0.1373  -13.7104    2.4054 C   0  0  0  0  0  0  0  0  0  0  0  0
   -0.4073  -15.0443    2.7852 C   0  0  0  0  0  0  0  0  0  0  0  0
   -1.6238  -15.3448    2.5143 C   0  0  0  0  0  0  0  0  0  0  0  0
   -2.3813  -14.6087    1.8173 C   0  0  0  0  0  0  0  0  0  0  0  0
   -1.9821  -13.3583    1.3968 C   0  0  0  0  0  0  0  0  0  0  0  0
   -0.6666  -12.8959    1.6852 C   0  0  0  0  0  0  0  0  0  0  0  0
   -0.0161  -11.9390    1.3262 C   0  0  0  0  0  0  0  0  0  0  0  0
    1.6954   -5.1775    3.8597 O   0  0  0  0  0  0  0  0  0  0  0  0
  6  7  1  0
  3  8  1  0
  7 18  1  0
 11 12  1  0
 12 13  2  0
 13 14  1  0
 14 15  2  0
 15 16  1  0
  1  2  2  0
  2  3  1  0
  3  4  2  0
  4  5  1  0
  5  6  2  0
  1  6  1  0
  8  9  2  0
  9 10  1  0
 10 11  2  0
 11 16  1  0
 16 17  2  0
  8 17  1  0
M  END

$$$$
No_4710-/export/home/yangzhenyu/potential_scad_32_flow//YTHDC2/2024-12-06-03-22-00/
     RDKit          3D

 19 20  0  0  1  0  0  0  0  0999 V2000
    1.1787   -8.0297    3.5154 N   0  0  0  0  0  0  0  0  0  0  0  0
    1.0818   -9.0751    3.2053 C   0  0  0  0  0  0  0  0  0  0  0  0
    0.7576   -9.3725    1.9159 C   0  0  0  0  0  0  0  0  0  0  0  0
    0.8823   -8.4917    1.0547 C   0  0  0  0  0  0  0  0  0  0  0  0
    1.4631   -7.3107    1.2451 C   0  0  0  0  0  0  0  0  0  0  0  0
    1.6470   -6.9326    2.5669 C   0  0  0  0  0  0  0  0  0  0  0  0
    0.8237  -10.1305    4.2407 C   0  0  0  0  0  0  0  0  0  0  0  0
    1.7644  -11.1125    4.2479 C   0  0  0  0  0  0  0  0  0  0  0  0
    0.8446   -8.8698   -0.4314 C   0  0  0  0  0  0  0  0  0  0  0  0
   -0.5060   -9.1306   -0.7110 O   0  0  0  0  0  0  0  0  0  0  0  0
    1.6032   -8.8514   -1.2844 O   0  0  0  0  0  0  0  0  0  0  0  0
    1.3578  -12.3215    3.7823 C   0  0  1  0  0  0  0  0  0  0  0  0
   -0.0047  -12.4645    3.5199 C   0  0  0  0  0  0  0  0  0  0  0  0
   -0.2344  -13.6502    2.6852 C   0  0  0  0  0  0  0  0  0  0  0  0
    1.1771  -14.1580    2.3818 C   0  0  1  0  0  0  0  0  0  0  0  0
    2.0614  -13.3658    3.2117 C   0  0  0  0  0  0  0  0  0  0  0  0
    1.6118  -15.2600    1.7949 C   0  0  0  0  0  0  0  0  0  0  0  0
    0.8698  -15.9060    0.9234 O   0  0  0  0  0  0  0  0  0  0  0  0
    2.6790  -15.9591    2.1917 O   0  0  0  0  0  0  0  0  0  0  0  0
  2  7  1  0
  7  8  1  0
  4  9  1  0
  9 10  2  0
  9 11  1  0
 12  8  1  6
 12 13  1  0
 13 14  2  0
 14 15  1  0
 12 16  1  0
 15 16  1  0
 15 17  1  1
 17 18  2  0
 17 19  1  0
  1  2  2  0
  2  3  1  0
  3  4  2  0
  4  5  1  0
  5  6  2  0
  1  6  1  0
M  END

$$$$
No_4711-/export/home/yangzhenyu/potential_scad_32_flow//YTHDC2/2024-12-06-03-22-00/
     RDKit          3D

 19 19  0  0  1  0  0  0  0  0999 V2000
    1.1787   -8.0297    3.5154 C   0  0  0  0  0  0  0  0  0  0  0  0
    1.1048   -9.2215    3.2892 C   0  0  0  0  0  0  0  0  0  0  0  0
    1.3627  -10.1721    4.3044 C   0  0  0  0  0  0  0  0  0  0  0  0
    1.7354  -11.4730    3.9023 C   0  0  0  0  0  0  0  0  0  0  0  0
    1.8080  -11.8127    2.7216 C   0  0  0  0  0  0  0  0  0  0  0  0
    1.5854  -11.0021    1.7249 C   0  0  0  0  0  0  0  0  0  0  0  0
    1.3573   -9.7389    1.9287 C   0  0  0  0  0  0  0  0  0  0  0  0
    1.1102   -8.8712    0.9017 C   0  0  0  0  0  0  0  0  0  0  0  0
    0.5299   -7.6926    1.0325 O   0  0  0  0  0  0  0  0  0  0  0  0
    1.3970   -9.2634   -0.4035 O   0  0  0  0  0  0  0  0  0  0  0  0
    2.1581  -13.4121    2.2886 C   0  0  2  0  0  0  0  0  0  0  0  0
    2.2497  -13.6620    1.0205 C   0  0  0  0  0  0  0  0  0  0  0  0
    1.1754  -14.2706    2.9768 C   0  0  0  0  0  0  0  0  0  0  0  0
    1.6008  -15.6622    2.8901 C   0  0  0  0  0  0  0  0  0  0  0  0
    2.7345  -15.9866    2.3733 C   0  0  0  0  0  0  0  0  0  0  0  0
    0.7070  -16.5867    3.4474 C   0  0  0  0  0  0  0  0  0  0  0  0
    1.1186  -17.9626    3.3756 C   0  0  0  0  0  0  0  0  0  0  0  0
    0.2599  -19.0101    3.8454 C   0  0  0  0  0  0  0  0  0  0  0  0
    0.5374  -20.2071    3.5324 C   0  0  0  0  0  0  0  0  0  0  0  0
  1  2  1  0
  7  8  1  0
  8  9  2  0
  8 10  1  0
  5 11  1  0
 11 12  1  6
 11 13  1  0
 13 14  1  0
 14 15  1  0
 14 16  1  0
 16 17  2  3
 17 18  1  0
 18 19  2  0
  2  3  2  0
  3  4  1  0
  4  5  2  0
  5  6  1  0
  6  7  2  0
  2  7  1  0
M  END

$$$$
No_4712-/export/home/yangzhenyu/potential_scad_32_flow//YTHDC2/2024-12-06-03-22-00/
     RDKit          3D

 18 19  0  0  1  0  0  0  0  0999 V2000
    1.1787   -8.0297    3.5154 C   0  0  0  0  0  0  0  0  0  0  0  0
    1.1048   -9.2215    3.2892 C   0  0  0  0  0  0  0  0  0  0  0  0
    1.2339   -9.7611    2.0189 C   0  0  0  0  0  0  0  0  0  0  0  0
    1.3583   -9.0036    0.9764 C   0  0  0  0  0  0  0  0  0  0  0  0
    1.5996   -7.6362    1.1311 C   0  0  0  0  0  0  0  0  0  0  0  0
    1.4830   -7.0928    2.3626 C   0  0  0  0  0  0  0  0  0  0  0  0
    1.5395   -5.7300    2.6182 C   0  0  0  0  0  0  0  0  0  0  0  0
    1.1775  -11.2233    1.8407 C   0  0  0  0  0  0  0  0  0  0  0  0
    1.9057  -12.1147    2.3397 C   0  0  0  0  0  0  0  0  0  0  0  0
    1.6867  -13.4551    2.0621 C   0  0  2  0  0  0  0  0  0  0  0  0
    0.7025  -13.8511    1.3021 C   0  0  0  0  0  0  0  0  0  0  0  0
   -0.1111  -12.9140    0.6527 C   0  0  0  0  0  0  0  0  0  0  0  0
    0.1535  -11.5434    0.9240 C   0  0  0  0  0  0  0  0  0  0  0  0
    1.6688   -5.1779    3.8866 N   0  0  0  0  0  0  0  0  0  0  0  0
    1.0699   -4.8386    1.6567 O   0  0  0  0  0  0  0  0  0  0  0  0
    2.5139  -14.4233    2.7653 I   0  0  0  0  0  0  0  0  0  0  0  0
   -0.6851  -10.6545    0.3286 O   0  0  0  0  0  0  0  0  0  0  0  0
    1.6637   -9.4303   -0.5369 O   0  0  0  0  0  0  0  0  0  0  0  0
  6  7  1  0
  3  8  1  0
  8  9  1  0
 10 11  1  0
  8 13  1  0
 12 13  1  0
  7 14  1  0
  7 15  2  0
 10 16  1  1
 13 17  2  0
  4 18  1  0
  9 10  1  0
 11 12  1  0
  1  2  2  0
  2  3  1  0
  3  4  2  0
  4  5  1  0
  5  6  2  0
  1  6  1  0
M  END

$$$$
No_4713-/export/home/yangzhenyu/potential_scad_32_flow//YTHDC2/2024-12-06-03-22-00/
     RDKit          3D

 18 20  0  0  0  0  0  0  0  0999 V2000
    1.1787   -8.0297    3.5154 C   0  0  0  0  0  0  0  0  0  0  0  0
    1.1048   -9.2215    3.2892 C   0  0  0  0  0  0  0  0  0  0  0  0
    1.3627  -10.1721    4.3044 C   0  0  0  0  0  0  0  0  0  0  0  0
    1.0682  -11.5187    4.0618 C   0  0  0  0  0  0  0  0  0  0  0  0
    0.6332  -11.9655    2.9682 C   0  0  0  0  0  0  0  0  0  0  0  0
    0.4776  -11.1308    1.9203 C   0  0  0  0  0  0  0  0  0  0  0  0
    0.7470   -9.8274    2.0368 C   0  0  0  0  0  0  0  0  0  0  0  0
    1.0387   -7.0301    2.5175 N   0  0  0  0  0  0  0  0  0  0  0  0
    0.9298   -7.5514    1.2672 C   0  0  0  0  0  0  0  0  0  0  0  0
    0.7824   -8.7713    0.9713 C   0  0  0  0  0  0  0  0  0  0  0  0
    0.3996  -13.3769    2.6931 C   0  0  0  0  0  0  0  0  0  0  0  0
    0.8222  -14.0156    1.7427 C   0  0  0  0  0  0  0  0  0  0  0  0
    1.4348  -15.2164    1.8630 C   0  0  0  0  0  0  0  0  0  0  0  0
    1.1527  -15.9836    2.9636 C   0  0  0  0  0  0  0  0  0  0  0  0
    0.5843  -15.3391    4.1209 C   0  0  0  0  0  0  0  0  0  0  0  0
    0.2196  -14.0329    3.9741 C   0  0  0  0  0  0  0  0  0  0  0  0
    0.5429   -9.2499   -0.5149 O   0  0  0  0  0  0  0  0  0  0  0  0
    1.6252  -17.5394    3.0978 C   0  0  0  0  0  0  0  0  0  0  0  0
  5 11  1  0
 10 17  1  0
 14 18  1  0
 11 12  2  0
 12 13  1  0
 13 14  2  0
 14 15  1  0
 15 16  2  0
 11 16  1  0
  2  3  1  0
  3  4  2  0
  4  5  1  0
  5  6  2  0
  6  7  1  0
  1  2  2  0
  2  7  1  0
  7 10  2  0
  9 10  1  0
  8  9  2  0
  1  8  1  0
M  END

$$$$
No_4714-/export/home/yangzhenyu/potential_scad_32_flow//YTHDC2/2024-12-06-03-22-00/
     RDKit          3D

 19 19  0  0  1  0  0  0  0  0999 V2000
    1.1787   -8.0297    3.5154 C   0  0  0  0  0  0  0  0  0  0  0  0
    1.0491   -6.8434    2.9820 C   0  0  0  0  0  0  0  0  0  0  0  0
    0.9905   -9.0774    2.6527 C   0  0  0  0  0  0  0  0  0  0  0  0
    0.7897   -8.9519    1.3691 C   0  0  0  0  0  0  0  0  0  0  0  0
    0.7018   -7.7198    0.7892 C   0  0  0  0  0  0  0  0  0  0  0  0
    0.8918   -6.5957    1.6117 C   0  0  0  0  0  0  0  0  0  0  0  0
    1.0711  -10.4814    3.2282 C   0  0  0  0  0  0  0  0  0  0  0  0
   -0.1055  -11.1328    3.5223 C   0  0  2  0  0  0  0  0  0  0  0  0
   -1.2061  -10.3495    3.8837 N   0  0  0  0  0  0  0  0  0  0  0  0
   -0.0954  -12.3792    4.0741 C   0  0  0  0  0  0  0  0  0  0  0  0
    0.8653   -5.2941    1.0888 F   0  0  0  0  0  0  0  0  0  0  0  0
    1.1386  -13.0018    3.9701 C   0  0  0  0  0  0  0  0  0  0  0  0
    1.3169  -13.8792    2.6933 C   0  0  0  0  0  0  0  0  0  0  0  0
    0.3322  -14.3644    1.9774 N   0  0  0  0  0  0  0  0  0  0  0  0
    2.4050  -14.8717    2.8837 O   0  0  0  0  0  0  0  0  0  0  0  0
   -1.4699   -9.8336    5.1420 C   0  0  0  0  0  0  0  0  0  0  0  0
    0.6347   -9.9622    0.3611 C   0  0  0  0  0  0  0  0  0  0  0  0
   -0.3596  -10.1746   -0.2299 O   0  0  0  0  0  0  0  0  0  0  0  0
    1.7225  -10.8149    0.2567 N   0  0  0  0  0  0  0  0  0  0  0  0
  3  7  1  0
  8  7  1  1
  8  9  1  0
  8 10  1  0
  6 11  1  0
 10 12  1  0
 12 13  1  0
 13 14  1  0
 13 15  2  0
  9 16  1  0
  4 17  1  0
 17 18  2  0
 17 19  1  0
  1  2  2  0
  2  6  1  0
  5  6  2  0
  4  5  1  0
  3  4  2  0
  1  3  1  0
M  END

$$$$
No_4715-/export/home/yangzhenyu/potential_scad_32_flow//YTHDC2/2024-12-06-03-22-00/
     RDKit          3D

 18 18  0  0  0  0  0  0  0  0999 V2000
    1.1787   -8.0297    3.5154 C   0  0  0  0  0  0  0  0  0  0  0  0
    1.1048   -9.2215    3.2892 C   0  0  0  0  0  0  0  0  0  0  0  0
    1.2339   -9.7611    2.0189 C   0  0  0  0  0  0  0  0  0  0  0  0
    1.3583   -9.0036    0.9764 C   0  0  0  0  0  0  0  0  0  0  0  0
    1.5996   -7.6362    1.1311 C   0  0  0  0  0  0  0  0  0  0  0  0
    1.4830   -7.0928    2.3626 C   0  0  0  0  0  0  0  0  0  0  0  0
    1.5395   -5.7300    2.6182 C   0  0  0  0  0  0  0  0  0  0  0  0
    1.1969  -11.3760    1.8433 S   0  0  0  0  0  0  0  0  0  0  0  0
    1.6495  -12.0495    2.7898 N   0  0  0  0  0  0  0  0  0  0  0  0
   -0.2603  -11.6704    1.6065 O   0  0  0  0  0  0  0  0  0  0  0  0
    1.8448  -11.5925    0.4955 O   0  0  0  0  0  0  0  0  0  0  0  0
    1.6911  -13.5028    2.8572 C   0  0  0  0  0  0  0  0  0  0  0  0
    1.1063  -14.1218    1.9652 C   0  0  0  0  0  0  0  0  0  0  0  0
   -0.2068  -14.7253    2.2822 C   0  0  0  0  0  0  0  0  0  0  0  0
   -0.3047  -15.9298    2.8985 C   0  0  0  0  0  0  0  0  0  0  0  0
    0.8119  -16.4006    3.6339 C   0  0  0  0  0  0  0  0  0  0  0  0
    0.6933  -17.6260    4.2808 C   0  0  0  0  0  0  0  0  0  0  0  0
   -0.3213  -18.3166    4.2720 C   0  0  0  0  0  0  0  0  0  0  0  0
  6  7  1  0
  3  8  1  0
  8  9  1  0
  8 10  2  0
  8 11  2  0
  9 12  1  0
 12 13  1  0
 13 14  1  0
 14 15  1  0
 15 16  1  0
 16 17  2  3
 17 18  1  0
  1  2  2  0
  2  3  1  0
  3  4  2  0
  4  5  1  0
  5  6  2  0
  1  6  1  0
M  END

$$$$
No_4716-/export/home/yangzhenyu/potential_scad_32_flow//YTHDC2/2024-12-06-03-22-00/
     RDKit          3D

 19 20  0  0  0  0  0  0  0  0999 V2000
    1.1787   -8.0297    3.5154 C   0  0  0  0  0  0  0  0  0  0  0  0
    1.1048   -9.2215    3.2892 C   0  0  0  0  0  0  0  0  0  0  0  0
    1.2339   -9.7611    2.0189 C   0  0  0  0  0  0  0  0  0  0  0  0
    1.3583   -9.0036    0.9764 C   0  0  0  0  0  0  0  0  0  0  0  0
    1.5996   -7.6362    1.1311 C   0  0  0  0  0  0  0  0  0  0  0  0
    1.4830   -7.0928    2.3626 C   0  0  0  0  0  0  0  0  0  0  0  0
    1.1171  -11.3311    1.8661 C   0  0  0  0  0  0  0  0  0  0  0  0
    0.5022  -11.6388    0.6531 C   0  0  0  0  0  0  0  0  0  0  0  0
   -0.4019  -11.0045    0.0890 C   0  0  0  0  0  0  0  0  0  0  0  0
   -1.0458  -11.4180   -1.0838 C   0  0  0  0  0  0  0  0  0  0  0  0
   -1.7212  -10.4803   -1.9196 C   0  0  0  0  0  0  0  0  0  0  0  0
   -1.9231   -9.1574   -1.2974 C   0  0  0  0  0  0  0  0  0  0  0  0
   -1.2818   -8.7337   -0.2202 C   0  0  0  0  0  0  0  0  0  0  0  0
   -0.5403   -9.5962    0.5123 C   0  0  0  0  0  0  0  0  0  0  0  0
    1.4781   -5.6597    2.6225 C   0  0  0  0  0  0  0  0  0  0  0  0
    0.4634   -4.8708    2.7287 N   0  0  0  0  0  0  0  0  0  0  0  0
   -0.7249   -5.2622    2.2842 C   0  0  0  0  0  0  0  0  0  0  0  0
    0.5788   -3.5367    3.1980 C   0  0  0  0  0  0  0  0  0  0  0  0
   -1.8074   -4.3100    2.1373 C   0  0  0  0  0  0  0  0  0  0  0  0
  3  7  1  0
  7  8  1  0
  6 15  1  0
 15 16  1  0
 16 17  1  0
 16 18  1  0
 17 19  1  0
  8  9  1  0
  1  2  2  0
  2  3  1  0
  3  4  2  0
  4  5  1  0
  5  6  2  0
  1  6  1  0
  9 10  2  0
 10 11  1  0
 11 12  2  0
 12 13  1  0
 13 14  2  0
  9 14  1  0
M  END

$$$$
No_4717-/export/home/yangzhenyu/potential_scad_32_flow//YTHDC2/2024-12-06-03-22-00/
     RDKit          3D

 15 15  0  0  0  0  0  0  0  0999 V2000
    1.1787   -8.0297    3.5154 C   0  0  0  0  0  0  0  0  0  0  0  0
    1.1048   -9.2215    3.2892 C   0  0  0  0  0  0  0  0  0  0  0  0
    1.3627  -10.1721    4.3044 C   0  0  0  0  0  0  0  0  0  0  0  0
    1.7354  -11.4730    3.9023 C   0  0  0  0  0  0  0  0  0  0  0  0
    1.8080  -11.8127    2.7216 C   0  0  0  0  0  0  0  0  0  0  0  0
    1.5854  -11.0021    1.7249 C   0  0  0  0  0  0  0  0  0  0  0  0
    1.3573   -9.7389    1.9287 C   0  0  0  0  0  0  0  0  0  0  0  0
    1.2865   -8.8078    0.9161 C   0  0  0  0  0  0  0  0  0  0  0  0
    1.6845   -9.1638   -0.2896 C   0  0  0  0  0  0  0  0  0  0  0  0
    2.2611   -8.4546   -1.0900 O   0  0  0  0  0  0  0  0  0  0  0  0
    0.8548   -9.8835   -0.9714 O   0  0  0  0  0  0  0  0  0  0  0  0
    2.0184  -13.2417    2.3779 Cl  0  0  0  0  0  0  0  0  0  0  0  0
    2.2871   -7.1899    3.6991 O   0  0  0  0  0  0  0  0  0  0  0  0
    0.0153   -7.3938    3.4722 O   0  0  0  0  0  0  0  0  0  0  0  0
    1.0963   -7.4768    1.0614 O   0  0  0  0  0  0  0  0  0  0  0  0
  1  2  1  0
  7  8  1  0
  8  9  1  0
  9 10  1  0
  9 11  2  0
  5 12  1  0
  1 13  1  0
  1 14  2  0
  8 15  2  0
  2  3  2  0
  3  4  1  0
  4  5  2  0
  5  6  1  0
  6  7  2  0
  2  7  1  0
M  END

$$$$
No_4718-/export/home/yangzhenyu/potential_scad_32_flow//YTHDC2/2024-12-06-03-22-00/
     RDKit          3D

 17 18  0  0  1  0  0  0  0  0999 V2000
    1.1787   -8.0297    3.5154 N   0  0  0  0  0  0  0  0  0  0  0  0
    1.0818   -9.0751    3.2053 C   0  0  0  0  0  0  0  0  0  0  0  0
    1.5216  -10.1164    3.9747 C   0  0  0  0  0  0  0  0  0  0  0  0
    1.4420  -11.4363    3.6461 C   0  0  0  0  0  0  0  0  0  0  0  0
    0.5969  -11.7648    2.6785 C   0  0  0  0  0  0  0  0  0  0  0  0
    0.0096  -10.8332    1.9506 C   0  0  0  0  0  0  0  0  0  0  0  0
    0.3359   -9.5186    2.1388 C   0  0  0  0  0  0  0  0  0  0  0  0
    1.8056   -7.2761    3.9022 C   0  0  0  0  0  0  0  0  0  0  0  0
    0.3090  -13.1532    2.3615 N   0  0  0  0  0  0  0  0  0  0  0  0
   -0.8650  -13.6100    2.0734 C   0  0  0  0  0  0  0  0  0  0  0  0
    1.2386  -14.1718    3.0365 C   0  0  0  0  0  0  0  0  0  0  0  0
    0.8535  -15.5006    2.8496 C   0  0  0  0  0  0  0  0  0  0  0  0
   -0.3101  -15.8423    2.6685 C   0  0  1  0  0  0  0  0  0  0  0  0
   -1.1844  -14.9845    2.0437 C   0  0  0  0  0  0  0  0  0  0  0  0
    1.5181   -5.8176    3.9080 N   0  0  0  0  0  0  0  0  0  0  0  0
   -1.8190  -12.7157    1.6764 O   0  0  0  0  0  0  0  0  0  0  0  0
   -0.7370  -17.3710    2.4335 O   0  0  0  0  0  0  0  0  0  0  0  0
  1  2  1  0
  1  8  2  3
  5  9  1  0
  9 10  1  0
  9 11  1  0
 11 12  1  0
 10 14  1  0
 13 14  1  0
  8 15  1  0
 10 16  2  0
 13 17  1  6
 12 13  1  0
  2  3  2  0
  3  4  1  0
  4  5  2  0
  5  6  1  0
  6  7  2  0
  2  7  1  0
M  END

$$$$
No_4719-/export/home/yangzhenyu/potential_scad_32_flow//YTHDC2/2024-12-06-03-22-00/
     RDKit          3D

 18 19  0  0  1  0  0  0  0  0999 V2000
    1.1787   -8.0297    3.5154 C   0  0  0  0  0  0  0  0  0  0  0  0
    1.1048   -9.2215    3.2892 C   0  0  0  0  0  0  0  0  0  0  0  0
    1.2339   -9.7611    2.0189 C   0  0  0  0  0  0  0  0  0  0  0  0
    1.1954  -11.2312    1.8661 C   0  0  2  0  0  0  0  0  0  0  0  0
    1.5546  -12.1691    2.7931 C   0  0  0  0  0  0  0  0  0  0  0  0
    0.9527   -7.0669    2.3918 C   0  0  0  0  0  0  0  0  0  0  0  0
    1.0618   -7.6392    1.0692 C   0  0  0  0  0  0  0  0  0  0  0  0
    1.2060   -8.9530    0.8578 C   0  0  0  0  0  0  0  0  0  0  0  0
    1.5110  -13.5006    2.3856 C   0  0  0  0  0  0  0  0  0  0  0  0
    1.1461  -13.9087    1.2014 C   0  0  0  0  0  0  0  0  0  0  0  0
    0.9324  -13.0660    0.2177 C   0  0  0  0  0  0  0  0  0  0  0  0
    0.9275  -11.6786    0.5224 C   0  0  0  0  0  0  0  0  0  0  0  0
    1.0094   -5.6129    2.4729 Cl  0  0  0  0  0  0  0  0  0  0  0  0
    1.9724  -14.5535    3.5958 O   0  0  0  0  0  0  0  0  0  0  0  0
    0.5323  -10.8540   -0.3955 O   0  0  0  0  0  0  0  0  0  0  0  0
    1.4797  -15.7692    3.3207 C   0  0  0  0  0  0  0  0  0  0  0  0
    2.2139  -16.6691    2.6094 C   0  0  0  0  0  0  0  0  0  0  0  0
    1.9691  -17.9920    2.4260 O   0  0  0  0  0  0  0  0  0  0  0  0
  4  3  1  6
  4  5  1  0
  9 10  1  0
  4 12  1  0
 11 12  1  0
  6 13  1  0
  9 14  1  0
 12 15  2  0
 14 16  1  0
 16 17  1  0
 17 18  2  0
  5  9  1  0
 10 11  1  0
  1  2  2  0
  2  3  1  0
  3  8  2  0
  7  8  1  0
  6  7  2  0
  1  6  1  0
M  END

$$$$
No_4720-/export/home/yangzhenyu/potential_scad_32_flow//YTHDC2/2024-12-06-03-22-00/
     RDKit          3D

 16 17  0  0  0  0  0  0  0  0999 V2000
    1.1787   -8.0297    3.5154 C   0  0  0  0  0  0  0  0  0  0  0  0
    1.0491   -6.8434    2.9820 C   0  0  0  0  0  0  0  0  0  0  0  0
    0.0950   -8.8404    3.2292 C   0  0  0  0  0  0  0  0  0  0  0  0
   -0.9173   -8.4596    2.5152 C   0  0  0  0  0  0  0  0  0  0  0  0
   -1.0331   -7.2162    2.0653 C   0  0  0  0  0  0  0  0  0  0  0  0
   -0.0105   -6.3168    2.3081 C   0  0  0  0  0  0  0  0  0  0  0  0
    0.1150   -4.9910    1.8495 C   0  0  0  0  0  0  0  0  0  0  0  0
    0.9121   -4.1017    2.4010 C   0  0  0  0  0  0  0  0  0  0  0  0
    0.1664  -10.4347    3.7466 C   0  0  0  0  0  0  0  0  0  0  0  0
    1.2108  -10.9941    4.1670 C   0  0  0  0  0  0  0  0  0  0  0  0
    1.2167  -12.3287    3.9061 C   0  0  0  0  0  0  0  0  0  0  0  0
    0.1539  -12.9930    3.5173 C   0  0  0  0  0  0  0  0  0  0  0  0
   -0.8961  -12.3806    3.0968 C   0  0  0  0  0  0  0  0  0  0  0  0
   -0.9450  -10.9900    3.2270 C   0  0  0  0  0  0  0  0  0  0  0  0
    0.2526  -14.4366    3.4116 O   0  0  0  0  0  0  0  0  0  0  0  0
   -0.5372   -4.5435    0.6913 C   0  0  0  0  0  0  0  0  0  0  0  0
  6  7  1  0
  7  8  2  0
  3  9  1  0
 12 15  1  0
  7 16  1  0
  1  2  2  0
  2  6  1  0
  5  6  2  0
  4  5  1  0
  3  4  2  0
  1  3  1  0
  9 10  2  0
 10 11  1  0
 11 12  2  0
 12 13  1  0
 13 14  2  0
  9 14  1  0
M  END

$$$$
No_4721-/export/home/yangzhenyu/potential_scad_32_flow//YTHDC2/2024-12-06-03-22-00/
     RDKit          3D

 18 19  0  0  1  0  0  0  0  0999 V2000
    1.1787   -8.0297    3.5154 C   0  0  0  0  0  0  0  0  0  0  0  0
    1.0491   -6.8434    2.9820 C   0  0  0  0  0  0  0  0  0  0  0  0
    1.0690   -9.1150    2.7206 C   0  0  0  0  0  0  0  0  0  0  0  0
    0.9689   -6.6391    1.6260 C   0  0  0  0  0  0  0  0  0  0  0  0
    0.9670   -9.0334    1.3824 C   0  0  0  0  0  0  0  0  0  0  0  0
    0.8189   -7.7113    0.8022 C   0  0  0  0  0  0  0  0  0  0  0  0
    1.2114  -10.5217    3.2468 C   0  0  2  0  0  0  0  0  0  0  0  0
    2.2860  -10.8211    3.8520 C   0  0  0  0  0  0  0  0  0  0  0  0
    3.0257   -9.9752    4.7068 N   0  0  0  0  0  0  0  0  0  0  0  0
    2.2912  -12.2180    4.3702 N   0  0  0  0  0  0  0  0  0  0  0  0
    0.8606   -5.3501    1.0495 Cl  0  0  0  0  0  0  0  0  0  0  0  0
    0.3691  -11.3839    2.7159 C   0  0  0  0  0  0  0  0  0  0  0  0
    0.8130  -12.4122    1.8709 C   0  0  0  0  0  0  0  0  0  0  0  0
    0.0073  -13.4651    1.5769 C   0  0  0  0  0  0  0  0  0  0  0  0
   -1.3019  -13.4366    1.8932 C   0  0  0  0  0  0  0  0  0  0  0  0
   -1.7636  -12.5050    2.8443 C   0  0  0  0  0  0  0  0  0  0  0  0
   -0.9144  -11.5117    3.2269 C   0  0  0  0  0  0  0  0  0  0  0  0
    2.9246   -8.9727    4.6364 H   0  0  0  0  0  0  0  0  0  0  0  0
  7  3  1  6
  7  8  1  0
  8  9  2  0
  8 10  1  0
  4 11  1  0
  7 12  1  0
 12 13  2  0
 13 14  1  0
 14 15  2  0
 15 16  1  0
 16 17  2  0
 12 17  1  0
  1  2  2  0
  2  4  1  0
  4  6  2  0
  5  6  1  0
  3  5  2  0
  1  3  1  0
  9 18  1  0
M  END

$$$$
No_4722-/export/home/yangzhenyu/potential_scad_32_flow//YTHDC2/2024-12-06-03-22-00/
     RDKit          3D

 18 19  0  0  0  0  0  0  0  0999 V2000
    1.1787   -8.0297    3.5154 C   0  0  0  0  0  0  0  0  0  0  0  0
    1.0491   -6.8434    2.9820 C   0  0  0  0  0  0  0  0  0  0  0  0
    0.0950   -8.8404    3.2292 C   0  0  0  0  0  0  0  0  0  0  0  0
   -0.9173   -8.4596    2.5152 C   0  0  0  0  0  0  0  0  0  0  0  0
   -1.0331   -7.2162    2.0653 C   0  0  0  0  0  0  0  0  0  0  0  0
   -0.0105   -6.3168    2.3081 C   0  0  0  0  0  0  0  0  0  0  0  0
    0.1465  -10.2446    3.6981 C   0  0  0  0  0  0  0  0  0  0  0  0
    1.2433  -10.8239    4.0166 C   0  0  0  0  0  0  0  0  0  0  0  0
    1.0790  -12.2885    4.3779 F   0  0  0  0  0  0  0  0  0  0  0  0
    2.4964  -10.5684    3.8958 C   0  0  0  0  0  0  0  0  0  0  0  0
   -0.0823   -5.0611    1.7981 C   0  0  0  0  0  0  0  0  0  0  0  0
   -0.6045   -4.7514    0.6977 C   0  0  0  0  0  0  0  0  0  0  0  0
   -0.6933   -3.3796    0.3141 C   0  0  0  0  0  0  0  0  0  0  0  0
    0.0113   -2.4485    0.8762 C   0  0  0  0  0  0  0  0  0  0  0  0
    0.8104   -2.7191    1.9601 C   0  0  0  0  0  0  0  0  0  0  0  0
    0.7745   -4.0415    2.4665 C   0  0  0  0  0  0  0  0  0  0  0  0
   -1.3936   -3.0766   -0.9644 O   0  0  0  0  0  0  0  0  0  0  0  0
   -1.1853   -1.9549   -1.5226 C   0  0  0  0  0  0  0  0  0  0  0  0
  3  7  1  0
  7  8  2  3
  8  9  1  0
  8 10  1  0
  6 11  1  0
 13 17  1  0
 17 18  1  0
 11 12  2  0
 12 13  1  0
 13 14  2  0
 14 15  1  0
 15 16  2  0
 11 16  1  0
  1  2  2  0
  2  6  1  0
  5  6  2  0
  4  5  1  0
  3  4  2  0
  1  3  1  0
M  END

$$$$
No_4723-/export/home/yangzhenyu/potential_scad_32_flow//YTHDC2/2024-12-06-03-22-00/
     RDKit          3D

 19 20  0  0  0  0  0  0  0  0999 V2000
    1.1787   -8.0297    3.5154 C   0  0  0  0  0  0  0  0  0  0  0  0
    1.1048   -9.2215    3.2892 C   0  0  0  0  0  0  0  0  0  0  0  0
    1.2339   -9.7611    2.0189 C   0  0  0  0  0  0  0  0  0  0  0  0
    1.4306   -8.9466    1.1170 C   0  0  0  0  0  0  0  0  0  0  0  0
    1.6532   -7.5949    1.1786 C   0  0  0  0  0  0  0  0  0  0  0  0
    1.4973   -7.0739    2.4258 C   0  0  0  0  0  0  0  0  0  0  0  0
    1.6687   -9.4437   -0.3021 C   0  0  0  0  0  0  0  0  0  0  0  0
    1.1891  -10.5277   -0.5331 N   0  0  0  0  0  0  0  0  0  0  0  0
    2.3044   -8.6975   -1.2101 N   0  0  0  0  0  0  0  0  0  0  0  0
    0.9133  -10.1988    4.4011 Cl  0  0  0  0  0  0  0  0  0  0  0  0
    1.5468   -5.6058    2.7236 Cl  0  0  0  0  0  0  0  0  0  0  0  0
    1.1796  -11.1428    1.8070 C   0  0  0  0  0  0  0  0  0  0  0  0
    1.0318  -11.5241    0.4088 C   0  0  0  0  0  0  0  0  0  0  0  0
    0.8794  -12.3298    2.8360 C   0  0  0  0  0  0  0  0  0  0  0  0
    2.0703  -13.2364    2.8716 C   0  0  0  0  0  0  0  0  0  0  0  0
    1.7386  -14.5366    2.3201 C   0  0  0  0  0  0  0  0  0  0  0  0
    0.7670  -15.3133    3.0694 C   0  0  0  0  0  0  0  0  0  0  0  0
    0.4571  -16.2936    3.1377 C   0  0  0  0  0  0  0  0  0  0  0  0
    1.2852  -17.3228    2.4216 C   0  0  0  0  0  0  0  0  0  0  0  0
  7  9  1  0
  2 10  1  0
  6 11  1  0
 12 14  1  0
 14 15  1  0
 15 16  1  0
 16 17  1  0
 17 18  2  3
 18 19  1  0
  1  2  2  0
  2  3  1  0
  4  5  1  0
  5  6  2  0
  1  6  1  0
  3  4  2  0
  4  7  1  0
  7  8  2  0
  8 13  1  0
 12 13  2  0
  3 12  1  0
M  END

$$$$
No_4724-/export/home/yangzhenyu/potential_scad_32_flow//YTHDC2/2024-12-06-03-22-00/
     RDKit          3D

 19 19  0  0  0  0  0  0  0  0999 V2000
    1.1787   -8.0297    3.5154 C   0  0  0  0  0  0  0  0  0  0  0  0
    1.1048   -9.2215    3.2892 C   0  0  0  0  0  0  0  0  0  0  0  0
    1.2339   -9.7611    2.0189 C   0  0  0  0  0  0  0  0  0  0  0  0
    1.3583   -9.0036    0.9764 C   0  0  0  0  0  0  0  0  0  0  0  0
    1.5996   -7.6362    1.1311 C   0  0  0  0  0  0  0  0  0  0  0  0
    1.4830   -7.0928    2.3626 C   0  0  0  0  0  0  0  0  0  0  0  0
    1.5395   -5.7300    2.6182 C   0  0  0  0  0  0  0  0  0  0  0  0
    1.1969  -11.3760    1.8433 N   0  0  0  0  0  0  0  0  0  0  0  0
    0.5940  -11.7269    0.7274 C   0  0  0  0  0  0  0  0  0  0  0  0
   -0.2370  -11.1068    0.0612 O   0  0  0  0  0  0  0  0  0  0  0  0
    0.6598  -13.1838    0.6150 C   0  0  0  0  0  0  0  0  0  0  0  0
    1.4257   -5.1216    3.7823 O   0  0  0  0  0  0  0  0  0  0  0  0
    1.5281   -4.8967    1.5879 O   0  0  0  0  0  0  0  0  0  0  0  0
   -0.2635  -13.7492   -0.0820 C   0  0  0  0  0  0  0  0  0  0  0  0
   -1.3062  -13.4456   -0.3462 C   0  0  0  0  0  0  0  0  0  0  0  0
   -2.0929  -14.1534   -1.3621 C   0  0  0  0  0  0  0  0  0  0  0  0
   -3.1762  -13.7415   -1.8646 C   0  0  0  0  0  0  0  0  0  0  0  0
   -3.6537  -12.6894   -1.5517 C   0  0  0  0  0  0  0  0  0  0  0  0
   -3.1181  -11.8284   -0.5271 C   0  0  0  0  0  0  0  0  0  0  0  0
  6  7  1  0
  3  8  1  0
  8  9  1  0
  9 10  2  0
  9 11  1  0
  7 12  1  0
  7 13  2  0
 11 14  1  0
 14 15  2  3
 15 16  1  0
 16 17  2  3
 17 18  1  0
 18 19  2  0
  1  2  2  0
  2  3  1  0
  3  4  2  0
  4  5  1  0
  5  6  2  0
  1  6  1  0
M  END

$$$$
No_4725-/export/home/yangzhenyu/potential_scad_32_flow//YTHDC2/2024-12-06-03-22-00/
     RDKit          3D

 18 19  0  0  1  0  0  0  0  0999 V2000
    1.1787   -8.0297    3.5154 O   0  0  0  0  0  0  0  0  0  0  0  0
    0.6747   -7.4019    2.7838 C   0  0  0  0  0  0  0  0  0  0  0  0
    0.7594   -8.0032    1.4295 C   0  0  0  0  0  0  0  0  0  0  0  0
    0.3459   -9.1500    1.3581 C   0  0  0  0  0  0  0  0  0  0  0  0
    1.1876  -10.0065    2.0240 C   0  0  2  0  0  0  0  0  0  0  0  0
    1.2267   -9.5257    3.5507 C   0  0  1  0  0  0  0  0  0  0  0  0
    1.6039  -10.3725    4.5012 C   0  0  0  0  0  0  0  0  0  0  0  0
    2.1546  -11.6410    3.9991 O   0  0  0  0  0  0  0  0  0  0  0  0
    0.1485   -6.9976    0.5141 C   0  0  0  0  0  0  0  0  0  0  0  0
   -0.4184   -7.4458   -0.5115 N   0  0  0  0  0  0  0  0  0  0  0  0
   -0.5278   -8.7538   -0.7837 C   0  0  0  0  0  0  0  0  0  0  0  0
   -0.0646   -9.7084    0.1631 C   0  0  0  0  0  0  0  0  0  0  0  0
    1.0571   -5.9858    3.0275 O   0  0  0  0  0  0  0  0  0  0  0  0
   -1.0951   -9.2100   -2.0024 C   0  0  0  0  0  0  0  0  0  0  0  0
   -0.6832   -8.7923   -3.2173 O   0  0  0  0  0  0  0  0  0  0  0  0
   -2.1768  -10.0099   -1.9515 O   0  0  0  0  0  0  0  0  0  0  0  0
    1.4731  -10.3413    5.6652 O   0  0  0  0  0  0  0  0  0  0  0  0
    2.4224  -10.3298    1.6514 O   0  0  0  0  0  0  0  0  0  0  0  0
  1  2  1  0
  2  3  1  0
  4  5  1  0
  1  6  1  0
  5  6  1  0
  6  7  1  6
  7  8  2  0
  2 13  2  0
 11 14  1  0
 14 15  2  0
 14 16  1  0
  7 17  1  0
  5 18  1  6
  3  4  2  0
  4 12  1  0
 11 12  2  0
 10 11  1  0
  9 10  2  0
  3  9  1  0
M  END

$$$$
No_4726-/export/home/yangzhenyu/potential_scad_32_flow//YTHDC2/2024-12-06-03-22-00/
     RDKit          3D

 19 20  0  0  0  0  0  0  0  0999 V2000
    1.1787   -8.0297    3.5154 C   0  0  0  0  0  0  0  0  0  0  0  0
    1.0491   -6.8434    2.9820 C   0  0  0  0  0  0  0  0  0  0  0  0
    0.9905   -9.0774    2.6527 C   0  0  0  0  0  0  0  0  0  0  0  0
    0.7897   -8.9519    1.3691 C   0  0  0  0  0  0  0  0  0  0  0  0
    0.7018   -7.7198    0.7892 C   0  0  0  0  0  0  0  0  0  0  0  0
    0.8918   -6.5957    1.6117 C   0  0  0  0  0  0  0  0  0  0  0  0
    1.0998  -10.4710    3.2437 C   0  0  0  0  0  0  0  0  0  0  0  0
    0.0472  -11.2546    3.3963 C   0  0  0  0  0  0  0  0  0  0  0  0
    0.1622  -12.5732    3.4140 C   0  0  0  0  0  0  0  0  0  0  0  0
    1.4182  -13.1957    3.4048 C   0  0  0  0  0  0  0  0  0  0  0  0
    2.5550  -12.3947    3.0877 C   0  0  0  0  0  0  0  0  0  0  0  0
    2.4166  -11.0849    2.9699 C   0  0  0  0  0  0  0  0  0  0  0  0
    0.8666   -5.2662    1.1708 C   0  0  0  0  0  0  0  0  0  0  0  0
    1.4169  -14.5629    3.3676 O   0  0  0  0  0  0  0  0  0  0  0  0
    0.2036   -4.2248    1.9144 O   0  0  0  0  0  0  0  0  0  0  0  0
    0.9413   -3.1859    2.3553 C   0  0  0  0  0  0  0  0  0  0  0  0
    0.4381  -15.3832    3.0013 C   0  0  0  0  0  0  0  0  0  0  0  0
    0.1641  -16.3041    3.9191 C   0  0  0  0  0  0  0  0  0  0  0  0
   -0.2936  -17.5060    3.5408 C   0  0  0  0  0  0  0  0  0  0  0  0
  3  7  1  0
  6 13  1  0
 10 14  1  0
 13 15  1  0
 15 16  1  0
 14 17  1  0
 17 18  1  0
 18 19  2  0
  1  2  2  0
  2  6  1  0
  5  6  2  0
  4  5  1  0
  3  4  2  0
  1  3  1  0
  7  8  2  0
  8  9  1  0
  9 10  2  0
 10 11  1  0
 11 12  2  0
  7 12  1  0
M  END

$$$$
No_4727-/export/home/yangzhenyu/potential_scad_32_flow//YTHDC2/2024-12-06-03-22-00/
     RDKit          3D

 13 13  0  0  1  0  0  0  0  0999 V2000
    1.1787   -8.0297    3.5154 C   0  0  0  0  0  0  0  0  0  0  0  0
    1.1048   -9.2215    3.2892 C   0  0  1  0  0  0  0  0  0  0  0  0
    1.2339   -9.7611    2.0189 C   0  0  0  0  0  0  0  0  0  0  0  0
    1.3583   -9.0036    0.9764 C   0  0  2  0  0  0  0  0  0  0  0  0
    1.7077   -9.6100   -0.3010 C   0  0  0  0  0  0  0  0  0  0  0  0
    1.3637   -7.1087    2.3226 C   0  0  1  0  0  0  0  0  0  0  0  0
    1.4257   -7.6645    1.0231 C   0  0  0  0  0  0  0  0  0  0  0  0
    1.9364   -8.8976   -1.3212 O   0  0  0  0  0  0  0  0  0  0  0  0
    1.2853  -10.8201   -0.4625 O   0  0  0  0  0  0  0  0  0  0  0  0
    1.1269  -10.2988    4.5792 Br  0  0  0  0  0  0  0  0  0  0  0  0
    1.3264   -5.3662    2.5985 Br  0  0  0  0  0  0  0  0  0  0  0  0
    1.2272  -11.1471    1.8994 Cl  0  0  0  0  0  0  0  0  0  0  0  0
    1.5741   -6.7987    0.1270 O   0  0  0  0  0  0  0  0  0  0  0  0
  1  2  1  0
  3  4  1  0
  4  5  1  1
  4  7  1  0
  6  7  1  0
  5  8  2  0
  5  9  1  0
  2 10  1  1
  6 11  1  6
  3 12  1  0
  7 13  2  0
  2  3  1  0
  1  6  1  0
M  END

$$$$
No_4728-/export/home/yangzhenyu/potential_scad_32_flow//YTHDC2/2024-12-06-03-22-00/
     RDKit          3D

 19 20  0  0  1  0  0  0  0  0999 V2000
    1.1787   -8.0297    3.5154 O   0  0  0  0  0  0  0  0  0  0  0  0
    0.9969   -8.9689    3.0048 C   0  0  1  0  0  0  0  0  0  0  0  0
    0.9976   -8.9567    1.6341 C   0  0  0  0  0  0  0  0  0  0  0  0
    0.7663   -7.7728    1.0082 C   0  0  0  0  0  0  0  0  0  0  0  0
    1.1468   -6.5619    1.6541 C   0  0  0  0  0  0  0  0  0  0  0  0
    1.3592   -6.6155    3.0007 C   0  0  0  0  0  0  0  0  0  0  0  0
    1.2035  -10.1894    3.6215 C   0  0  0  0  0  0  0  0  0  0  0  0
    1.3724  -11.3423    2.8771 C   0  0  1  0  0  0  0  0  0  0  0  0
    1.3261  -11.2581    1.4865 C   0  0  0  0  0  0  0  0  0  0  0  0
    1.1771  -10.0721    0.8483 C   0  0  0  0  0  0  0  0  0  0  0  0
    0.7178  -10.1239   -0.3458 O   0  0  0  0  0  0  0  0  0  0  0  0
    1.6812  -12.6611    3.4559 C   0  0  0  0  0  0  0  0  0  0  0  0
    1.3577  -13.8581    2.5673 C   0  0  0  0  0  0  0  0  0  0  0  0
    2.5237  -14.5007    2.1229 C   0  0  0  0  0  0  0  0  0  0  0  0
    1.6301   -5.6449    3.7784 C   0  0  0  0  0  0  0  0  0  0  0  0
    1.1510   -5.4633    1.0399 O   0  0  0  0  0  0  0  0  0  0  0  0
    2.2276  -15.8543    1.7378 C   0  0  0  0  0  0  0  0  0  0  0  0
    1.2004  -16.5606    2.0023 C   0  0  0  0  0  0  0  0  0  0  0  0
    0.1090  -15.9195    2.6426 C   0  0  0  0  0  0  0  0  0  0  0  0
  1  2  1  0
  2  3  1  0
  3  4  1  0
  4  5  1  0
  1  6  1  0
  5  6  1  0
  2  7  1  6
  8  9  1  0
  3 10  1  0
  9 10  1  0
 10 11  2  0
  8 12  1  6
 12 13  1  0
 13 14  1  0
  6 15  1  0
  5 16  2  0
 14 17  2  3
 17 18  1  0
 18 19  2  0
  7  8  1  0
M  END

$$$$
No_4729-/export/home/yangzhenyu/potential_scad_32_flow//YTHDC2/2024-12-06-03-22-00/
     RDKit          3D

 19 19  0  0  1  0  0  0  0  0999 V2000
    1.1787   -8.0297    3.5154 C   0  0  0  0  0  0  0  0  0  0  0  0
    1.1048   -9.2215    3.2892 C   0  0  0  0  0  0  0  0  0  0  0  0
    1.2339   -9.7611    2.0189 C   0  0  0  0  0  0  0  0  0  0  0  0
    1.3583   -9.0036    0.9764 C   0  0  0  0  0  0  0  0  0  0  0  0
    1.5996   -7.6362    1.1311 C   0  0  0  0  0  0  0  0  0  0  0  0
    1.4830   -7.0928    2.3626 C   0  0  0  0  0  0  0  0  0  0  0  0
    1.4898   -5.7274    2.6199 C   0  0  0  0  0  0  0  0  0  0  0  0
    1.1681  -11.2222    1.8390 C   0  0  0  0  0  0  0  0  0  0  0  0
    0.5014  -11.9760    2.2068 C   0  0  0  0  0  0  0  0  0  0  0  0
    0.4167  -13.3685    2.0527 C   0  0  2  0  0  0  0  0  0  0  0  0
    1.5984  -14.1574    2.4634 C   0  0  0  0  0  0  0  0  0  0  0  0
    1.8090  -15.4261    2.0927 C   0  0  0  0  0  0  0  0  0  0  0  0
    0.9603  -16.3545    2.3375 C   0  0  0  0  0  0  0  0  0  0  0  0
    1.3058  -17.7974    2.1140 O   0  0  0  0  0  0  0  0  0  0  0  0
   -0.3131  -16.1926    2.3832 O   0  0  0  0  0  0  0  0  0  0  0  0
    1.2511   -4.8474    1.6236 O   0  0  0  0  0  0  0  0  0  0  0  0
    1.7679   -5.1365    3.7996 Cl  0  0  0  0  0  0  0  0  0  0  0  0
    1.6277   -9.4697   -0.5147 Cl  0  0  0  0  0  0  0  0  0  0  0  0
    0.1228  -13.7937    0.7139 O   0  0  0  0  0  0  0  0  0  0  0  0
  6  7  1  0
  3  8  1  0
  8  9  2  3
  9 10  1  0
 10 11  1  0
 11 12  1  0
 12 13  1  0
 13 14  2  0
 13 15  1  0
  7 16  2  0
  7 17  1  0
  4 18  1  0
 10 19  1  6
  1  2  2  0
  2  3  1  0
  3  4  2  0
  4  5  1  0
  5  6  2  0
  1  6  1  0
M  END

$$$$
No_4730-/export/home/yangzhenyu/potential_scad_32_flow//YTHDC2/2024-12-06-03-22-00/
     RDKit          3D

 19 21  0  0  1  0  0  0  0  0999 V2000
    1.1787   -8.0297    3.5154 C   0  0  0  0  0  0  0  0  0  0  0  0
    1.0491   -6.8434    2.9820 C   0  0  0  0  0  0  0  0  0  0  0  0
    0.9905   -9.0774    2.6527 C   0  0  0  0  0  0  0  0  0  0  0  0
    0.7897   -8.9519    1.3691 C   0  0  0  0  0  0  0  0  0  0  0  0
    0.7018   -7.7198    0.7892 C   0  0  0  0  0  0  0  0  0  0  0  0
    0.8918   -6.5957    1.6117 C   0  0  0  0  0  0  0  0  0  0  0  0
    1.0711  -10.4814    3.2282 C   0  0  1  0  0  0  0  0  0  0  0  0
   -0.1055  -11.1328    3.5223 O   0  0  0  0  0  0  0  0  0  0  0  0
    1.9060  -11.4906    2.6420 C   0  0  0  0  0  0  0  0  0  0  0  0
    1.8926  -12.6882    3.3591 C   0  0  0  0  0  0  0  0  0  0  0  0
    1.1047  -13.1557    3.8441 C   0  0  0  0  0  0  0  0  0  0  0  0
   -0.0567  -13.3911    2.8506 C   0  0  0  0  0  0  0  0  0  0  0  0
   -0.1432  -14.2870    2.1462 C   0  0  2  0  0  0  0  0  0  0  0  0
    0.5791  -15.5241    2.4915 C   0  0  0  0  0  0  0  0  0  0  0  0
    0.8550   -5.0858    1.0692 Cl  0  0  0  0  0  0  0  0  0  0  0  0
    0.6247  -16.4758    1.8509 C   0  0  0  0  0  0  0  0  0  0  0  0
    0.1528  -16.4810    0.6029 C   0  0  0  0  0  0  0  0  0  0  0  0
   -0.4008  -14.8812    0.5905 C   0  0  0  0  0  0  0  0  0  0  0  0
   -0.7958  -12.0091    3.2972 C   0  0  0  0  0  0  0  0  0  0  0  0
  7  3  1  6
  7  8  1  0
  7  9  1  0
  9 10  1  0
 10 11  1  0
 11 12  1  0
 13 12  1  6
 13 14  1  0
  6 15  1  0
 14 16  2  0
 16 17  1  0
 13 18  1  0
 17 18  1  0
  8 19  1  0
 12 19  1  0
  1  2  2  0
  2  6  1  0
  5  6  2  0
  4  5  1  0
  3  4  2  0
  1  3  1  0
M  END

$$$$
No_4731-/export/home/yangzhenyu/potential_scad_32_flow//YTHDC2/2024-12-06-03-22-00/
     RDKit          3D

 19 21  0  0  0  0  0  0  0  0999 V2000
    1.1787   -8.0297    3.5154 C   0  0  0  0  0  0  0  0  0  0  0  0
    1.1048   -9.2215    3.2892 C   0  0  0  0  0  0  0  0  0  0  0  0
    1.3627  -10.1721    4.3044 C   0  0  0  0  0  0  0  0  0  0  0  0
    1.0682  -11.5187    4.0618 C   0  0  0  0  0  0  0  0  0  0  0  0
    0.6332  -11.9655    2.9682 C   0  0  0  0  0  0  0  0  0  0  0  0
    0.4776  -11.1308    1.9203 C   0  0  0  0  0  0  0  0  0  0  0  0
    0.7470   -9.8274    2.0368 C   0  0  0  0  0  0  0  0  0  0  0  0
    0.5536   -7.1314    2.6861 C   0  0  0  0  0  0  0  0  0  0  0  0
    0.2950   -7.6000    1.3275 C   0  0  0  0  0  0  0  0  0  0  0  0
    0.2693   -8.8631    1.0973 C   0  0  0  0  0  0  0  0  0  0  0  0
    0.4787  -13.3960    2.7088 C   0  0  0  0  0  0  0  0  0  0  0  0
    0.8701  -14.0431    1.7712 C   0  0  0  0  0  0  0  0  0  0  0  0
    0.4355  -15.1184    1.2746 C   0  0  0  0  0  0  0  0  0  0  0  0
   -0.4084  -15.9160    1.8778 C   0  0  0  0  0  0  0  0  0  0  0  0
   -0.8078  -15.4276    3.1909 C   0  0  0  0  0  0  0  0  0  0  0  0
   -0.3637  -14.1987    3.5846 C   0  0  0  0  0  0  0  0  0  0  0  0
   -0.1094   -9.2584   -0.2190 O   0  0  0  0  0  0  0  0  0  0  0  0
   -0.0781   -6.6842    0.3740 C   0  0  0  0  0  0  0  0  0  0  0  0
   -0.3456   -5.3380    0.8045 C   0  0  0  0  0  0  0  0  0  0  0  0
  5 11  1  0
 10 17  1  0
  9 18  1  0
 18 19  2  0
 11 12  2  0
 12 13  1  0
 13 14  2  0
 14 15  1  0
 15 16  2  0
 11 16  1  0
  2  3  1  0
  3  4  2  0
  4  5  1  0
  5  6  2  0
  6  7  1  0
  1  2  2  0
  2  7  1  0
  7 10  2  0
  9 10  1  0
  8  9  2  0
  1  8  1  0
M  END

$$$$
No_4732-/export/home/yangzhenyu/potential_scad_32_flow//YTHDC2/2024-12-06-03-22-00/
     RDKit          3D

 17 17  0  0  0  0  0  0  0  0999 V2000
    1.1787   -8.0297    3.5154 C   0  0  0  0  0  0  0  0  0  0  0  0
    1.1048   -9.2215    3.2892 C   0  0  0  0  0  0  0  0  0  0  0  0
    1.3627  -10.1721    4.3044 C   0  0  0  0  0  0  0  0  0  0  0  0
    1.0682  -11.5187    4.0618 C   0  0  0  0  0  0  0  0  0  0  0  0
    0.6332  -11.9655    2.9682 C   0  0  0  0  0  0  0  0  0  0  0  0
    0.4776  -11.1308    1.9203 C   0  0  0  0  0  0  0  0  0  0  0  0
    0.7470   -9.8274    2.0368 C   0  0  0  0  0  0  0  0  0  0  0  0
    1.0387   -7.0301    2.5175 C   0  0  0  0  0  0  0  0  0  0  0  0
    1.1486   -5.5562    2.7651 C   0  0  0  0  0  0  0  0  0  0  0  0
    0.4389  -13.4263    2.7904 C   0  0  0  0  0  0  0  0  0  0  0  0
   -0.7369  -13.9410    2.4096 O   0  0  0  0  0  0  0  0  0  0  0  0
    1.4153  -14.3330    3.1937 N   0  0  0  0  0  0  0  0  0  0  0  0
    1.3984  -15.6536    3.0656 C   0  0  0  0  0  0  0  0  0  0  0  0
    2.3994  -16.1814    2.1651 C   0  0  0  0  0  0  0  0  0  0  0  0
    2.5190  -17.5649    2.0913 O   0  0  0  0  0  0  0  0  0  0  0  0
    2.8816  -15.5472    1.3194 O   0  0  0  0  0  0  0  0  0  0  0  0
    0.8289   -4.6569    1.9226 N   0  0  0  0  0  0  0  0  0  0  0  0
  1  2  1  0
  1  8  2  3
  8  9  1  0
  5 10  1  0
 10 11  2  0
 10 12  1  0
 12 13  1  0
 13 14  1  0
 14 15  2  0
 14 16  1  0
  9 17  1  0
  2  3  2  0
  3  4  1  0
  4  5  2  0
  5  6  1  0
  6  7  2  0
  2  7  1  0
M  END

$$$$
No_4733-/export/home/yangzhenyu/potential_scad_32_flow//YTHDC2/2024-12-06-03-22-00/
     RDKit          3D

 18 19  0  0  1  0  0  0  0  0999 V2000
    1.1787   -8.0297    3.5154 C   0  0  2  0  0  0  0  0  0  0  0  0
    1.0491   -6.8434    2.9820 O   0  0  0  0  0  0  0  0  0  0  0  0
    1.9898   -8.9833    2.9120 C   0  0  0  0  0  0  0  0  0  0  0  0
    1.9301  -10.2956    3.6452 C   0  0  2  0  0  0  0  0  0  0  0  0
    1.0625  -10.5355    4.6754 C   0  0  0  0  0  0  0  0  0  0  0  0
    0.0507   -9.6413    4.8216 C   0  0  0  0  0  0  0  0  0  0  0  0
    0.0019   -8.4462    4.1512 C   0  0  0  0  0  0  0  0  0  0  0  0
    1.2031   -5.6969    3.4281 C   0  0  0  0  0  0  0  0  0  0  0  0
   -0.8335   -7.4712    4.5951 O   0  0  0  0  0  0  0  0  0  0  0  0
    3.0115  -11.1864    3.2816 N   0  0  0  0  0  0  0  0  0  0  0  0
    0.6372   -4.5479    2.8266 C   0  0  0  0  0  0  0  0  0  0  0  0
    0.0786   -4.8319    1.7402 C   0  0  0  0  0  0  0  0  0  0  0  0
    0.8292   -4.3940    0.6214 C   0  0  0  0  0  0  0  0  0  0  0  0
    1.5898   -3.3271    1.0750 C   0  0  0  0  0  0  0  0  0  0  0  0
    1.9590   -2.9708    2.3319 C   0  0  0  0  0  0  0  0  0  0  0  0
    1.4340   -3.5431    3.2744 C   0  0  0  0  0  0  0  0  0  0  0  0
    2.7431  -11.6766    2.0256 C   0  0  0  0  0  0  0  0  0  0  0  0
    2.2659  -12.7873    1.7184 O   0  0  0  0  0  0  0  0  0  0  0  0
  1  2  1  6
  1  3  1  0
  4  5  1  0
  1  7  1  0
  6  7  1  0
  2  8  1  0
  7  9  2  0
  4 10  1  1
  8 11  1  0
 11 12  1  0
 12 13  1  0
 13 14  1  0
 14 15  1  0
 11 16  1  0
 15 16  1  0
 10 17  1  0
 17 18  2  0
  3  4  1  0
  5  6  1  0
M  END

$$$$
No_4734-/export/home/yangzhenyu/potential_scad_32_flow//YTHDC2/2024-12-06-03-22-00/
     RDKit          3D

 19 19  0  0  1  0  0  0  0  0999 V2000
    1.1787   -8.0297    3.5154 C   0  0  0  0  0  0  0  0  0  0  0  0
    1.1048   -9.2215    3.2892 C   0  0  0  0  0  0  0  0  0  0  0  0
    1.2339   -9.7611    2.0189 C   0  0  0  0  0  0  0  0  0  0  0  0
    1.3583   -9.0036    0.9764 C   0  0  0  0  0  0  0  0  0  0  0  0
    1.5996   -7.6362    1.1311 C   0  0  0  0  0  0  0  0  0  0  0  0
    1.4830   -7.0928    2.3626 C   0  0  0  0  0  0  0  0  0  0  0  0
    1.1008  -11.2372    1.8542 C   0  0  0  0  0  0  0  0  0  0  0  0
    0.5178  -11.9759    2.3445 C   0  0  0  0  0  0  0  0  0  0  0  0
    0.4575  -13.3705    2.1281 C   0  0  2  0  0  0  0  0  0  0  0  0
    1.3993  -14.2795    2.9783 C   0  0  0  0  0  0  0  0  0  0  0  0
    1.3982  -15.5837    2.7718 Cl  0  0  0  0  0  0  0  0  0  0  0  0
    1.5686   -5.6481    2.6372 Cl  0  0  0  0  0  0  0  0  0  0  0  0
    1.4850   -9.4354   -0.3886 C   0  0  0  0  0  0  0  0  0  0  0  0
    2.4812   -9.6834   -0.9334 O   0  0  0  0  0  0  0  0  0  0  0  0
    0.3605   -9.4192   -1.0847 O   0  0  0  0  0  0  0  0  0  0  0  0
    0.4419  -13.7988    0.7956 C   0  0  0  0  0  0  0  0  0  0  0  0
   -0.7972  -13.5307    0.1639 O   0  0  0  0  0  0  0  0  0  0  0  0
   -0.8418  -13.4169   -1.1108 C   0  0  0  0  0  0  0  0  0  0  0  0
   -0.9154  -14.6468   -1.6833 O   0  0  0  0  0  0  0  0  0  0  0  0
  3  7  1  0
  7  8  2  3
  8  9  1  0
  9 10  1  1
 10 11  1  0
  6 12  1  0
  4 13  1  0
 13 14  2  0
 13 15  1  0
  9 16  1  0
 16 17  1  0
 17 18  1  0
 18 19  2  0
  1  2  2  0
  2  3  1  0
  3  4  2  0
  4  5  1  0
  5  6  2  0
  1  6  1  0
M  END

$$$$
No_4735-/export/home/yangzhenyu/potential_scad_32_flow//YTHDC2/2024-12-06-03-22-00/
     RDKit          3D

 19 19  0  0  0  0  0  0  0  0999 V2000
    1.1787   -8.0297    3.5154 C   0  0  0  0  0  0  0  0  0  0  0  0
    1.0491   -6.8434    2.9820 C   0  0  0  0  0  0  0  0  0  0  0  0
    0.0950   -8.8404    3.2292 C   0  0  0  0  0  0  0  0  0  0  0  0
   -0.9173   -8.4596    2.5152 C   0  0  0  0  0  0  0  0  0  0  0  0
   -1.0331   -7.2162    2.0653 C   0  0  0  0  0  0  0  0  0  0  0  0
   -0.0105   -6.3168    2.3081 C   0  0  0  0  0  0  0  0  0  0  0  0
    0.1465  -10.2446    3.6981 C   0  0  0  0  0  0  0  0  0  0  0  0
   -1.0337  -10.8619    3.9439 C   0  0  0  0  0  0  0  0  0  0  0  0
   -2.1702  -10.4673    3.2991 Br  0  0  0  0  0  0  0  0  0  0  0  0
    0.1018   -4.7782    1.7788 Cl  0  0  0  0  0  0  0  0  0  0  0  0
    1.5082  -10.7617    4.4799 Cl  0  0  0  0  0  0  0  0  0  0  0  0
   -2.1287   -6.6827    1.4238 O   0  0  0  0  0  0  0  0  0  0  0  0
   -2.2025   -7.0062    0.0622 C   0  0  0  0  0  0  0  0  0  0  0  0
   -2.4807   -6.0638   -0.6381 C   0  0  0  0  0  0  0  0  0  0  0  0
   -2.9638   -4.9551   -0.2033 O   0  0  0  0  0  0  0  0  0  0  0  0
   -2.5439   -6.1636   -2.0440 N   0  0  0  0  0  0  0  0  0  0  0  0
   -2.8455   -5.0398   -2.8593 C   0  0  0  0  0  0  0  0  0  0  0  0
   -4.0228   -5.0559   -3.2415 C   0  0  0  0  0  0  0  0  0  0  0  0
   -4.5411   -3.8358   -3.4340 C   0  0  0  0  0  0  0  0  0  0  0  0
  3  7  1  0
  7  8  2  3
  8  9  1  0
  6 10  1  0
  7 11  1  0
  5 12  1  0
 12 13  1  0
 13 14  1  0
 14 15  2  0
 14 16  1  0
 16 17  1  0
 17 18  1  0
 18 19  2  0
  1  2  2  0
  2  6  1  0
  5  6  2  0
  4  5  1  0
  3  4  2  0
  1  3  1  0
M  END

$$$$
No_4736-/export/home/yangzhenyu/potential_scad_32_flow//YTHDC2/2024-12-06-03-22-00/
     RDKit          3D

 17 18  0  0  1  0  0  0  0  0999 V2000
    1.1787   -8.0297    3.5154 C   0  0  0  0  0  0  0  0  0  0  0  0
    1.0491   -6.8434    2.9820 C   0  0  0  0  0  0  0  0  0  0  0  0
    1.0690   -9.1150    2.7206 C   0  0  0  0  0  0  0  0  0  0  0  0
    0.9689   -6.6391    1.6260 C   0  0  0  0  0  0  0  0  0  0  0  0
    0.9670   -9.0334    1.3824 C   0  0  0  0  0  0  0  0  0  0  0  0
    0.8189   -7.7113    0.8022 C   0  0  0  0  0  0  0  0  0  0  0  0
    1.2122  -10.5176    3.2445 C   0  0  0  0  0  0  0  0  0  0  0  0
    0.3325  -11.3891    3.1392 C   0  0  1  0  0  0  0  0  0  0  0  0
   -0.9865  -11.1940    3.1451 C   0  0  0  0  0  0  0  0  0  0  0  0
    0.6622  -12.7471    2.6974 C   0  0  0  0  0  0  0  0  0  0  0  0
   -0.3304  -13.6092    2.4552 C   0  0  0  0  0  0  0  0  0  0  0  0
    0.2056  -15.0544    2.1040 C   0  0  0  0  0  0  0  0  0  0  0  0
    1.5283  -15.4687    2.1676 C   0  0  0  0  0  0  0  0  0  0  0  0
    2.5024  -14.4865    2.5610 C   0  0  0  0  0  0  0  0  0  0  0  0
    2.1468  -13.2340    2.8603 C   0  0  0  0  0  0  0  0  0  0  0  0
    0.9356   -5.3386    1.1051 O   0  0  0  0  0  0  0  0  0  0  0  0
    2.1926  -10.4370    4.3357 O   0  0  0  0  0  0  0  0  0  0  0  0
  1  3  1  0
  2  4  1  0
  4  6  1  0
  5  6  1  0
  3  7  1  0
  7  8  1  0
  8  9  1  6
  8 10  1  0
  4 16  2  0
  7 17  2  0
  1  2  1  0
  3  5  1  0
 10 11  2  0
 11 12  1  0
 12 13  2  0
 13 14  1  0
 14 15  2  0
 10 15  1  0
M  END

$$$$
No_4737-/export/home/yangzhenyu/potential_scad_32_flow//YTHDC2/2024-12-06-03-22-00/
     RDKit          3D

 18 18  0  0  1  0  0  0  0  0999 V2000
    1.1787   -8.0297    3.5154 C   0  0  0  0  0  0  0  0  0  0  0  0
    1.0491   -6.8434    2.9820 C   0  0  0  0  0  0  0  0  0  0  0  0
    0.9905   -9.0774    2.6527 C   0  0  0  0  0  0  0  0  0  0  0  0
    0.7897   -8.9519    1.3691 C   0  0  0  0  0  0  0  0  0  0  0  0
    0.7018   -7.7198    0.7892 C   0  0  0  0  0  0  0  0  0  0  0  0
    0.8918   -6.5957    1.6117 C   0  0  0  0  0  0  0  0  0  0  0  0
    1.0711  -10.4814    3.2282 S   0  0  0  0  0  0  0  0  0  0  0  0
   -0.2130  -10.9799    3.8462 O   0  0  0  0  0  0  0  0  0  0  0  0
    2.2082  -10.3516    4.3630 N   0  0  0  0  0  0  0  0  0  0  0  0
    1.5469  -11.5328    2.3032 O   0  0  0  0  0  0  0  0  0  0  0  0
    0.8292   -5.2847    1.1470 O   0  0  0  0  0  0  0  0  0  0  0  0
    0.4226   -4.2129    1.8412 C   0  0  1  0  0  0  0  0  0  0  0  0
    1.2809   -3.4051    2.3225 C   0  0  0  0  0  0  0  0  0  0  0  0
    2.3247   -3.6109    2.4021 O   0  0  0  0  0  0  0  0  0  0  0  0
    0.6436   -2.4737    3.2665 O   0  0  0  0  0  0  0  0  0  0  0  0
   -0.7631   -3.6624    1.3169 C   0  0  0  0  0  0  0  0  0  0  0  0
   -0.8527   -2.8286    0.2505 C   0  0  0  0  0  0  0  0  0  0  0  0
   -1.8723   -2.4165   -0.2547 C   0  0  0  0  0  0  0  0  0  0  0  0
  3  7  1  0
  7  8  2  0
  7  9  1  0
  7 10  2  0
  6 11  1  0
 11 12  1  0
 12 13  1  0
 13 14  2  0
 13 15  1  0
 12 16  1  6
 16 17  1  0
 17 18  2  0
  1  2  2  0
  2  6  1  0
  5  6  2  0
  4  5  1  0
  3  4  2  0
  1  3  1  0
M  END

$$$$
No_4738-/export/home/yangzhenyu/potential_scad_32_flow//YTHDC2/2024-12-06-03-22-00/
     RDKit          3D

 19 21  0  0  1  0  0  0  0  0999 V2000
    1.1787   -8.0297    3.5154 C   0  0  0  0  0  0  0  0  0  0  0  0
    1.1048   -9.2215    3.2892 C   0  0  0  0  0  0  0  0  0  0  0  0
    1.2339   -9.7611    2.0189 C   0  0  0  0  0  0  0  0  0  0  0  0
    1.3583   -9.0036    0.9764 C   0  0  0  0  0  0  0  0  0  0  0  0
    1.5996   -7.6362    1.1311 C   0  0  0  0  0  0  0  0  0  0  0  0
    1.4830   -7.0928    2.3626 C   0  0  0  0  0  0  0  0  0  0  0  0
    1.1008  -11.2372    1.8542 C   0  0  0  0  0  0  0  0  0  0  0  0
    1.9749  -12.0938    2.2342 C   0  0  0  0  0  0  0  0  0  0  0  0
    1.7533  -13.4231    1.8956 C   0  0  0  0  0  0  0  0  0  0  0  0
    0.8624  -13.8318    1.1071 C   0  0  0  0  0  0  0  0  0  0  0  0
   -0.0624  -12.9093    0.5581 C   0  0  0  0  0  0  0  0  0  0  0  0
    0.1157  -11.5285    0.9404 C   0  0  0  0  0  0  0  0  0  0  0  0
    1.5561   -5.6354    2.6426 Cl  0  0  0  0  0  0  0  0  0  0  0  0
   -0.8311  -10.6449    0.4827 C   0  0  1  0  0  0  0  0  0  0  0  0
   -0.9854  -10.1997   -0.7385 C   0  0  0  0  0  0  0  0  0  0  0  0
   -1.9430   -9.2634   -1.1487 O   0  0  0  0  0  0  0  0  0  0  0  0
   -2.0046  -10.2632    1.3628 C   0  0  0  0  0  0  0  0  0  0  0  0
   -2.4172   -8.7624   -0.1471 C   0  0  0  0  0  0  0  0  0  0  0  0
   -2.8899   -9.3737    0.8949 C   0  0  0  0  0  0  0  0  0  0  0  0
  3  7  1  0
  6 13  1  0
 14 12  1  6
 14 15  1  0
 15 16  1  0
 14 17  1  0
 16 18  1  0
 17 19  1  0
 18 19  1  0
  1  2  2  0
  2  3  1  0
  3  4  2  0
  4  5  1  0
  5  6  2  0
  1  6  1  0
  7  8  2  0
  8  9  1  0
  9 10  2  0
 10 11  1  0
 11 12  2  0
  7 12  1  0
M  END

$$$$
No_4739-/export/home/yangzhenyu/potential_scad_32_flow//YTHDC2/2024-12-06-03-22-00/
     RDKit          3D

 20 22  0  0  0  0  0  0  0  0999 V2000
    1.1787   -8.0297    3.5154 C   0  0  0  0  0  0  0  0  0  0  0  0
    1.1048   -9.2215    3.2892 C   0  0  0  0  0  0  0  0  0  0  0  0
    1.3627  -10.1721    4.3044 C   0  0  0  0  0  0  0  0  0  0  0  0
    1.0682  -11.5187    4.0618 C   0  0  0  0  0  0  0  0  0  0  0  0
    0.6332  -11.9655    2.9682 C   0  0  0  0  0  0  0  0  0  0  0  0
    0.4776  -11.1308    1.9203 C   0  0  0  0  0  0  0  0  0  0  0  0
    0.7470   -9.8274    2.0368 C   0  0  0  0  0  0  0  0  0  0  0  0
    1.0387   -7.0301    2.5175 C   0  0  0  0  0  0  0  0  0  0  0  0
    0.9130   -7.5288    1.2013 C   0  0  0  0  0  0  0  0  0  0  0  0
    0.7893   -8.7979    0.9542 C   0  0  0  0  0  0  0  0  0  0  0  0
    0.5241   -9.2578   -0.2817 C   0  0  0  0  0  0  0  0  0  0  0  0
    1.2450   -9.2169   -1.2769 O   0  0  0  0  0  0  0  0  0  0  0  0
   -0.8706   -9.3448   -0.6392 N   0  0  0  0  0  0  0  0  0  0  0  0
    0.5226  -13.3817    2.7091 C   0  0  0  0  0  0  0  0  0  0  0  0
   -0.5564  -13.9400    2.5258 N   0  0  0  0  0  0  0  0  0  0  0  0
    1.5838  -14.0957    2.0821 C   0  0  0  0  0  0  0  0  0  0  0  0
    1.6608  -15.3948    2.0467 C   0  0  0  0  0  0  0  0  0  0  0  0
    0.5150  -15.8970    2.5911 C   0  0  0  0  0  0  0  0  0  0  0  0
   -0.6271  -15.2009    2.7236 C   0  0  0  0  0  0  0  0  0  0  0  0
   -1.3394   -9.6411   -1.9285 C   0  0  0  0  0  0  0  0  0  0  0  0
 10 11  1  0
 11 12  2  0
 11 13  1  0
  5 14  1  0
 13 20  1  0
  2  3  1  0
  3  4  2  0
  4  5  1  0
  5  6  2  0
  6  7  1  0
  1  2  2  0
  2  7  1  0
  7 10  2  0
  9 10  1  0
  8  9  2  0
  1  8  1  0
 14 15  2  0
 15 19  1  0
 18 19  2  0
 17 18  1  0
 16 17  2  0
 14 16  1  0
M  END

$$$$
No_4740-/export/home/yangzhenyu/potential_scad_32_flow//YTHDC2/2024-12-06-03-22-00/
     RDKit          3D

 18 20  0  0  0  0  0  0  0  0999 V2000
    1.1787   -8.0297    3.5154 C   0  0  0  0  0  0  0  0  0  0  0  0
    1.0491   -6.8434    2.9820 C   0  0  0  0  0  0  0  0  0  0  0  0
    1.9985   -8.9840    2.8958 C   0  0  0  0  0  0  0  0  0  0  0  0
    1.1815  -10.1889    2.5497 C   0  0  0  0  0  0  0  0  0  0  0  0
    0.9817  -11.1388    2.8134 C   0  0  0  0  0  0  0  0  0  0  0  0
    0.1125  -12.0891    2.4838 C   0  0  0  0  0  0  0  0  0  0  0  0
   -0.6446  -11.8250    1.4596 C   0  0  0  0  0  0  0  0  0  0  0  0
   -0.2941  -10.7598    0.6431 C   0  0  0  0  0  0  0  0  0  0  0  0
    0.5711   -9.8346    1.1239 C   0  0  0  0  0  0  0  0  0  0  0  0
    0.3257   -6.8342    1.7752 C   0  0  0  0  0  0  0  0  0  0  0  0
   -0.3935   -7.2857    1.2365 C   0  0  0  0  0  0  0  0  0  0  0  0
   -1.3104   -6.8387    0.3158 C   0  0  0  0  0  0  0  0  0  0  0  0
   -1.5308   -5.4724    0.2717 C   0  0  0  0  0  0  0  0  0  0  0  0
   -0.6601   -4.6675    1.1177 C   0  0  0  0  0  0  0  0  0  0  0  0
    0.2047   -5.2363    1.8962 C   0  0  0  0  0  0  0  0  0  0  0  0
    1.6939   -5.6702    3.4354 N   0  0  0  0  0  0  0  0  0  0  0  0
    1.1117   -4.6224    2.6968 N   0  0  0  0  0  0  0  0  0  0  0  0
   -0.2056  -13.2788    3.2223 C   0  0  0  0  0  0  0  0  0  0  0  0
  1  2  1  0
  1  3  1  0
  3  4  1  0
  2 10  1  0
  2 16  2  0
 15 17  1  0
 16 17  1  0
  6 18  1  0
 10 11  2  0
 11 12  1  0
 12 13  2  0
 13 14  1  0
 14 15  2  0
 10 15  1  0
  4  5  2  0
  5  6  1  0
  6  7  2  0
  7  8  1  0
  8  9  2  0
  4  9  1  0
M  END

$$$$
No_4741-/export/home/yangzhenyu/potential_scad_32_flow//YTHDC2/2024-12-06-03-22-00/
     RDKit          3D

 19 20  0  0  1  0  0  0  0  0999 V2000
    1.1787   -8.0297    3.5154 C   0  0  0  0  0  0  0  0  0  0  0  0
    1.0491   -6.8434    2.9820 C   0  0  0  0  0  0  0  0  0  0  0  0
    0.0950   -8.8404    3.2292 C   0  0  0  0  0  0  0  0  0  0  0  0
   -0.9173   -8.4596    2.5152 C   0  0  0  0  0  0  0  0  0  0  0  0
   -1.0331   -7.2162    2.0653 C   0  0  0  0  0  0  0  0  0  0  0  0
   -0.0105   -6.3168    2.3081 C   0  0  0  0  0  0  0  0  0  0  0  0
    0.0485   -4.9783    1.8782 C   0  0  0  0  0  0  0  0  0  0  0  0
   -0.4744   -4.1559    2.2381 O   0  0  0  0  0  0  0  0  0  0  0  0
    0.9176   -4.7080    0.8087 O   0  0  0  0  0  0  0  0  0  0  0  0
    0.2222  -10.4891    3.7537 C   0  0  0  0  0  0  0  0  0  0  0  0
    1.2545  -10.9403    4.2083 C   0  0  0  0  0  0  0  0  0  0  0  0
    1.8976  -11.8020    3.3329 C   0  0  0  0  0  0  0  0  0  0  0  0
    0.9679  -12.4089    2.4890 C   0  0  0  0  0  0  0  0  0  0  0  0
   -0.2214  -11.7647    2.3106 C   0  0  0  0  0  0  0  0  0  0  0  0
   -0.9436  -12.7703    1.3666 C   0  0  0  0  0  0  0  0  0  0  0  0
    0.1701  -13.8385    1.0924 C   0  0  0  0  0  0  0  0  0  0  0  0
    1.1404  -13.5941    1.8179 C   0  0  1  0  0  0  0  0  0  0  0  0
    2.3115  -14.3229    1.8337 C   0  0  0  0  0  0  0  0  0  0  0  0
    2.4029  -15.4542    2.1114 Cl  0  0  0  0  0  0  0  0  0  0  0  0
  6  7  1  0
  7  8  2  0
  7  9  1  0
  3 10  1  0
 10 11  1  0
 11 12  1  0
 12 13  1  0
 13 14  1  0
 14 15  2  0
 15 16  1  0
 13 17  1  0
 16 17  1  0
 17 18  1  6
 18 19  1  0
  1  2  2  0
  2  6  1  0
  5  6  2  0
  4  5  1  0
  3  4  2  0
  1  3  1  0
M  END

$$$$
No_4742-/export/home/yangzhenyu/potential_scad_32_flow//YTHDC2/2024-12-06-03-22-00/
     RDKit          3D

 19 20  0  0  0  0  0  0  0  0999 V2000
    1.1787   -8.0297    3.5154 O   0  0  0  0  0  0  0  0  0  0  0  0
    0.9969   -8.9689    3.0048 S   0  0  0  0  0  0  0  0  0  0  0  0
    1.2642  -10.0678    3.8167 C   0  0  0  0  0  0  0  0  0  0  0  0
    2.1790  -10.4683    4.4908 C   0  0  0  0  0  0  0  0  0  0  0  0
    1.8792   -9.1232    1.6192 C   0  0  0  0  0  0  0  0  0  0  0  0
   -0.4378   -8.8218    2.4162 N   0  0  0  0  0  0  0  0  0  0  0  0
    1.8627   -8.3723    0.5249 C   0  0  0  0  0  0  0  0  0  0  0  0
    2.2600   -8.8904   -0.6431 C   0  0  0  0  0  0  0  0  0  0  0  0
    2.0476  -10.0832   -0.9686 O   0  0  0  0  0  0  0  0  0  0  0  0
    2.9779   -8.1519   -1.4622 O   0  0  0  0  0  0  0  0  0  0  0  0
   -1.2859   -9.9080    2.1112 C   0  0  0  0  0  0  0  0  0  0  0  0
   -2.4234   -9.7092    1.9182 C   0  0  0  0  0  0  0  0  0  0  0  0
   -2.7698   -8.6221    1.9063 C   0  0  0  0  0  0  0  0  0  0  0  0
   -2.1577   -7.4694    2.2429 C   0  0  0  0  0  0  0  0  0  0  0  0
   -0.7980   -7.5569    2.5185 C   0  0  0  0  0  0  0  0  0  0  0  0
    2.5291  -11.7807    4.8443 C   0  0  0  0  0  0  0  0  0  0  0  0
    1.5765  -12.5817    4.5321 C   0  0  0  0  0  0  0  0  0  0  0  0
    0.5674  -12.5191    3.6929 C   0  0  0  0  0  0  0  0  0  0  0  0
    0.3901  -11.1439    3.3111 C   0  0  0  0  0  0  0  0  0  0  0  0
  1  2  2  0
  2  3  1  0
  2  5  1  0
  2  6  1  0
  5  7  1  0
  7  8  1  0
  8  9  1  0
  8 10  2  0
  6 11  1  0
 11 12  1  0
 12 13  2  0
 13 14  1  0
  6 15  1  0
 14 15  1  0
  3  4  2  0
  4 16  1  0
 16 17  2  0
 17 18  1  0
 18 19  2  0
  3 19  1  0
M  END

$$$$
No_4743-/export/home/yangzhenyu/potential_scad_32_flow//YTHDC2/2024-12-06-03-22-00/
     RDKit          3D

 19 20  0  0  0  0  0  0  0  0999 V2000
    1.1787   -8.0297    3.5154 C   0  0  0  0  0  0  0  0  0  0  0  0
    1.1048   -9.2215    3.2892 C   0  0  0  0  0  0  0  0  0  0  0  0
    1.3627  -10.1721    4.3044 C   0  0  0  0  0  0  0  0  0  0  0  0
    1.7354  -11.4730    3.9023 C   0  0  0  0  0  0  0  0  0  0  0  0
    1.8080  -11.8127    2.7216 C   0  0  0  0  0  0  0  0  0  0  0  0
    1.5854  -11.0021    1.7249 C   0  0  0  0  0  0  0  0  0  0  0  0
    1.3573   -9.7389    1.9287 C   0  0  0  0  0  0  0  0  0  0  0  0
    1.1102   -8.8712    0.9017 C   0  0  0  0  0  0  0  0  0  0  0  0
    1.5724   -9.1697   -0.3048 C   0  0  0  0  0  0  0  0  0  0  0  0
    1.2378   -8.2159   -1.4226 O   0  0  0  0  0  0  0  0  0  0  0  0
    2.1031  -13.4009    2.2918 O   0  0  0  0  0  0  0  0  0  0  0  0
    0.8721   -7.0625    2.9837 O   0  0  0  0  0  0  0  0  0  0  0  0
    1.1891  -14.2575    2.1083 C   0  0  0  0  0  0  0  0  0  0  0  0
    1.5594  -15.4277    2.3652 C   0  0  0  0  0  0  0  0  0  0  0  0
    0.6645  -16.4318    2.7078 C   0  0  0  0  0  0  0  0  0  0  0  0
   -0.6661  -16.1430    2.4371 C   0  0  0  0  0  0  0  0  0  0  0  0
   -1.0742  -14.8828    2.2195 C   0  0  0  0  0  0  0  0  0  0  0  0
   -0.1150  -13.8747    2.0379 C   0  0  0  0  0  0  0  0  0  0  0  0
   -0.5595  -12.6211    1.6270 C   0  0  0  0  0  0  0  0  0  0  0  0
  1  2  1  0
  7  8  1  0
  8  9  2  3
  9 10  1  0
  5 11  1  0
  1 12  2  0
 11 13  1  0
 18 19  1  0
  2  3  2  0
  3  4  1  0
  4  5  2  0
  5  6  1  0
  6  7  2  0
  2  7  1  0
 13 14  2  0
 14 15  1  0
 15 16  2  0
 16 17  1  0
 17 18  2  0
 13 18  1  0
M  END

$$$$
No_4744-/export/home/yangzhenyu/potential_scad_32_flow//YTHDC2/2024-12-06-03-22-00/
     RDKit          3D

 19 20  0  0  1  0  0  0  0  0999 V2000
    1.1787   -8.0297    3.5154 C   0  0  0  0  0  0  0  0  0  0  0  0
    1.0491   -6.8434    2.9820 C   0  0  0  0  0  0  0  0  0  0  0  0
    0.0950   -8.8404    3.2292 C   0  0  0  0  0  0  0  0  0  0  0  0
   -0.9173   -8.4596    2.5152 C   0  0  0  0  0  0  0  0  0  0  0  0
   -1.0331   -7.2162    2.0653 C   0  0  0  0  0  0  0  0  0  0  0  0
    0.1897   -6.3124    2.3579 C   0  0  0  0  0  0  0  0  0  0  0  0
    0.1193  -10.2475    3.6957 C   0  0  0  0  0  0  0  0  0  0  0  0
    0.1570  -11.3370    2.8616 C   0  0  1  0  0  0  0  0  0  0  0  0
   -0.5150  -11.5288    1.9941 C   0  0  0  0  0  0  0  0  0  0  0  0
    0.0141  -11.5637    0.7130 C   0  0  0  0  0  0  0  0  0  0  0  0
   -0.8719  -11.6777   -0.4453 C   0  0  0  0  0  0  0  0  0  0  0  0
   -2.1091  -11.8953   -0.3495 C   0  0  0  0  0  0  0  0  0  0  0  0
   -2.7238  -11.9221    0.8531 C   0  0  0  0  0  0  0  0  0  0  0  0
   -1.9403  -11.8455    2.0341 C   0  0  0  0  0  0  0  0  0  0  0  0
    1.4021  -11.9558    3.0924 C   0  0  0  0  0  0  0  0  0  0  0  0
    2.4262  -11.3839    3.6586 N   0  0  0  0  0  0  0  0  0  0  0  0
    1.5163  -13.2734    2.8815 O   0  0  0  0  0  0  0  0  0  0  0  0
    0.1305   -4.9428    1.8692 Cl  0  0  0  0  0  0  0  0  0  0  0  0
   -0.1441  -10.3470    5.0914 O   0  0  0  0  0  0  0  0  0  0  0  0
  3  7  1  0
  8  7  1  6
  8  9  1  0
  8 15  1  0
 15 16  1  0
 15 17  2  0
  6 18  1  0
  7 19  2  0
  1  2  2  0
  2  6  1  0
  5  6  2  0
  4  5  1  0
  3  4  2  0
  1  3  1  0
  9 10  2  0
 10 11  1  0
 11 12  2  0
 12 13  1  0
 13 14  2  0
  9 14  1  0
M  END

$$$$
No_4745-/export/home/yangzhenyu/potential_scad_32_flow//YTHDC2/2024-12-06-03-22-00/
     RDKit          3D

 18 19  0  0  1  0  0  0  0  0999 V2000
    1.1787   -8.0297    3.5154 C   0  0  0  0  0  0  0  0  0  0  0  0
    1.1048   -9.2215    3.2892 C   0  0  0  0  0  0  0  0  0  0  0  0
    1.2339   -9.7611    2.0189 C   0  0  0  0  0  0  0  0  0  0  0  0
    1.3583   -9.0036    0.9764 C   0  0  0  0  0  0  0  0  0  0  0  0
    1.5996   -7.6362    1.1311 C   0  0  0  0  0  0  0  0  0  0  0  0
    1.4830   -7.0928    2.3626 C   0  0  0  0  0  0  0  0  0  0  0  0
    1.1008  -11.2372    1.8542 C   0  0  0  0  0  0  0  0  0  0  0  0
    0.4812  -11.6084    0.6459 C   0  0  0  0  0  0  0  0  0  0  0  0
   -0.6166  -12.2864    0.7859 C   0  0  0  0  0  0  0  0  0  0  0  0
   -0.7300  -13.0625    1.9848 C   0  0  0  0  0  0  0  0  0  0  0  0
   -1.8137  -14.0948    2.0703 C   0  0  1  0  0  0  0  0  0  0  0  0
   -3.0528  -13.6358    2.0344 C   0  0  0  0  0  0  0  0  0  0  0  0
   -3.2249  -12.2094    2.0833 C   0  0  0  0  0  0  0  0  0  0  0  0
   -2.6694  -11.3372    1.1310 N   0  0  0  0  0  0  0  0  0  0  0  0
   -1.7781  -11.5853    0.3207 C   0  0  0  0  0  0  0  0  0  0  0  0
   -1.5776  -15.3183    1.8460 C   0  0  0  0  0  0  0  0  0  0  0  0
   -2.5133  -16.1710    1.4949 C   0  0  0  0  0  0  0  0  0  0  0  0
   -3.8094  -15.7485    1.6884 C   0  0  0  0  0  0  0  0  0  0  0  0
  3  7  1  0
  7  8  1  0
  8  9  2  3
  9 10  1  0
 11 10  1  6
 11 12  1  0
 12 13  1  0
 13 14  1  0
  9 15  1  0
 14 15  1  0
 11 16  1  0
 16 17  2  3
 17 18  1  0
  1  2  2  0
  2  3  1  0
  3  4  2  0
  4  5  1  0
  5  6  2  0
  1  6  1  0
M  END

$$$$
No_4746-/export/home/yangzhenyu/potential_scad_32_flow//YTHDC2/2024-12-06-03-22-00/
     RDKit          3D

 17 18  0  0  0  0  0  0  0  0999 V2000
    1.1787   -8.0297    3.5154 C   0  0  0  0  0  0  0  0  0  0  0  0
    1.1048   -9.2215    3.2892 C   0  0  0  0  0  0  0  0  0  0  0  0
    1.2339   -9.7611    2.0189 C   0  0  0  0  0  0  0  0  0  0  0  0
    1.1954  -11.2312    1.8661 C   0  0  0  0  0  0  0  0  0  0  0  0
    1.5546  -12.1691    2.7931 C   0  0  0  0  0  0  0  0  0  0  0  0
    0.9527   -7.0669    2.3918 C   0  0  0  0  0  0  0  0  0  0  0  0
    1.0618   -7.6392    1.0692 C   0  0  0  0  0  0  0  0  0  0  0  0
    1.2060   -8.9530    0.8578 C   0  0  0  0  0  0  0  0  0  0  0  0
    0.7976  -13.2804    2.9292 C   0  0  0  0  0  0  0  0  0  0  0  0
   -0.0977  -13.6051    2.0639 C   0  0  0  0  0  0  0  0  0  0  0  0
   -0.4021  -12.7685    1.0815 C   0  0  0  0  0  0  0  0  0  0  0  0
    0.2840  -11.6225    0.9177 C   0  0  0  0  0  0  0  0  0  0  0  0
    1.0594   -5.6035    2.4483 C   0  0  0  0  0  0  0  0  0  0  0  0
    1.5398   -9.3890   -0.3071 C   0  0  0  0  0  0  0  0  0  0  0  0
    2.0358   -8.9509   -1.0987 O   0  0  0  0  0  0  0  0  0  0  0  0
    0.9229  -10.3329   -0.8784 O   0  0  0  0  0  0  0  0  0  0  0  0
   -0.6837  -14.8980    2.1428 N   0  0  0  0  0  0  0  0  0  0  0  0
  3  4  1  0
  6 13  1  0
  8 14  1  0
 14 15  1  0
 14 16  2  0
 10 17  1  0
  1  2  2  0
  2  3  1  0
  3  8  2  0
  7  8  1  0
  6  7  2  0
  1  6  1  0
  4  5  2  0
  5  9  1  0
  9 10  2  0
 10 11  1  0
 11 12  2  0
  4 12  1  0
M  END

$$$$
No_4747-/export/home/yangzhenyu/potential_scad_32_flow//YTHDC2/2024-12-06-03-22-00/
     RDKit          3D

 18 18  0  0  0  0  0  0  0  0999 V2000
    1.1787   -8.0297    3.5154 O   0  0  0  0  0  0  0  0  0  0  0  0
    0.6747   -7.4019    2.7838 C   0  0  0  0  0  0  0  0  0  0  0  0
    0.5570   -6.0797    2.8560 O   0  0  0  0  0  0  0  0  0  0  0  0
   -0.1948   -8.0413    1.7489 C   0  0  0  0  0  0  0  0  0  0  0  0
    0.6577   -8.5818    0.7828 C   0  0  0  0  0  0  0  0  0  0  0  0
    0.1847   -9.1964   -0.1252 C   0  0  0  0  0  0  0  0  0  0  0  0
   -1.2615   -9.3398   -0.3478 C   0  0  0  0  0  0  0  0  0  0  0  0
   -2.0426   -8.7038    0.5776 C   0  0  0  0  0  0  0  0  0  0  0  0
   -1.4366   -8.0502    1.6726 C   0  0  0  0  0  0  0  0  0  0  0  0
    2.2537   -8.5758    0.8037 C   0  0  0  0  0  0  0  0  0  0  0  0
   -1.9471  -10.0643   -1.5862 C   0  0  0  0  0  0  0  0  0  0  0  0
   -1.7102   -9.4594   -2.7916 O   0  0  0  0  0  0  0  0  0  0  0  0
   -2.3496  -11.1884   -1.3861 O   0  0  0  0  0  0  0  0  0  0  0  0
    2.7838   -9.5698   -0.0449 O   0  0  0  0  0  0  0  0  0  0  0  0
   -2.2535   -7.3214    2.5387 C   0  0  0  0  0  0  0  0  0  0  0  0
   -2.9098   -6.1611    2.3127 C   0  0  0  0  0  0  0  0  0  0  0  0
   -3.6776   -5.5179    3.4258 C   0  0  0  0  0  0  0  0  0  0  0  0
   -2.4466   -7.9984    3.8870 C   0  0  0  0  0  0  0  0  0  0  0  0
  1  2  1  0
  2  3  2  0
  2  4  1  0
  5 10  1  0
  7 11  1  0
 11 12  2  0
 11 13  1  0
 10 14  2  0
  9 15  1  0
 15 16  2  3
 16 17  1  0
 15 18  1  0
  4  5  2  0
  5  6  1  0
  6  7  2  0
  7  8  1  0
  8  9  2  0
  4  9  1  0
M  END

$$$$
No_4748-/export/home/yangzhenyu/potential_scad_32_flow//YTHDC2/2024-12-06-03-22-00/
     RDKit          3D

 19 19  0  0  1  0  0  0  0  0999 V2000
    1.1787   -8.0297    3.5154 C   0  0  0  0  0  0  0  0  0  0  0  0
    1.0491   -6.8434    2.9820 C   0  0  0  0  0  0  0  0  0  0  0  0
    0.9905   -9.0774    2.6527 C   0  0  0  0  0  0  0  0  0  0  0  0
    0.7897   -8.9519    1.3691 C   0  0  0  0  0  0  0  0  0  0  0  0
    0.7018   -7.7198    0.7892 C   0  0  0  0  0  0  0  0  0  0  0  0
    0.8918   -6.5957    1.6117 C   0  0  0  0  0  0  0  0  0  0  0  0
    1.0998  -10.4710    3.2437 C   0  0  0  0  0  0  0  0  0  0  0  0
    1.3102  -11.5554    2.5214 C   0  0  0  0  0  0  0  0  0  0  0  0
    1.4257  -12.8124    3.1919 C   0  0  0  0  0  0  0  0  0  0  0  0
    1.4301  -14.0627    2.4374 C   0  0  2  0  0  0  0  0  0  0  0  0
    0.8799   -5.2656    1.2046 C   0  0  0  0  0  0  0  0  0  0  0  0
    2.4117  -14.2020    1.4705 C   0  0  0  0  0  0  0  0  0  0  0  0
   -0.1965   -4.7731    0.7077 O   0  0  0  0  0  0  0  0  0  0  0  0
    1.8527   -4.4644    1.4039 O   0  0  0  0  0  0  0  0  0  0  0  0
    0.0984  -14.4693    1.9207 C   0  0  0  0  0  0  0  0  0  0  0  0
   -0.3857  -13.9287    1.1742 C   0  0  0  0  0  0  0  0  0  0  0  0
   -1.7571  -14.3330    0.7898 C   0  0  0  0  0  0  0  0  0  0  0  0
   -2.2025  -15.4659    0.8905 C   0  0  0  0  0  0  0  0  0  0  0  0
   -1.4570  -16.3641    1.6946 C   0  0  0  0  0  0  0  0  0  0  0  0
  3  7  1  0
  7  8  2  3
  8  9  1  0
  9 10  1  0
  6 11  1  0
 10 12  1  6
 11 13  2  0
 11 14  1  0
 10 15  1  0
 15 16  2  3
 16 17  1  0
 17 18  2  3
 18 19  1  0
  1  2  2  0
  2  6  1  0
  5  6  2  0
  4  5  1  0
  3  4  2  0
  1  3  1  0
M  END

$$$$
No_4749-/export/home/yangzhenyu/potential_scad_32_flow//YTHDC2/2024-12-06-03-22-00/
     RDKit          3D

 17 19  0  0  0  0  0  0  0  0999 V2000
    1.1787   -8.0297    3.5154 C   0  0  0  0  0  0  0  0  0  0  0  0
    1.1048   -9.2215    3.2892 C   0  0  0  0  0  0  0  0  0  0  0  0
    1.3627  -10.1721    4.3044 C   0  0  0  0  0  0  0  0  0  0  0  0
    1.0682  -11.5187    4.0618 C   0  0  0  0  0  0  0  0  0  0  0  0
    0.7653  -11.7320    2.7387 C   0  0  0  0  0  0  0  0  0  0  0  0
    0.5661  -10.9730    1.8367 C   0  0  0  0  0  0  0  0  0  0  0  0
    0.7745   -9.6758    2.0361 C   0  0  0  0  0  0  0  0  0  0  0  0
    1.2131   -6.9952    2.4858 N   0  0  0  0  0  0  0  0  0  0  0  0
    0.9485   -7.9682    1.3181 C   0  0  0  0  0  0  0  0  0  0  0  0
    0.8377   -7.9064    0.1584 O   0  0  0  0  0  0  0  0  0  0  0  0
    0.4622  -13.4009    2.2946 C   0  0  0  0  0  0  0  0  0  0  0  0
    1.3968  -14.2076    2.8474 C   0  0  0  0  0  0  0  0  0  0  0  0
    1.5575  -15.4865    2.1717 C   0  0  0  0  0  0  0  0  0  0  0  0
    0.9834  -15.5057    1.0150 C   0  0  0  0  0  0  0  0  0  0  0  0
    0.1550  -14.5662    0.5709 C   0  0  0  0  0  0  0  0  0  0  0  0
   -0.0055  -13.3124    1.1577 C   0  0  0  0  0  0  0  0  0  0  0  0
    1.0799  -16.5660    0.3039 O   0  0  0  0  0  0  0  0  0  0  0  0
  1  2  1  0
  1  8  2  0
  7  9  1  0
  8  9  1  0
  9 10  2  0
  5 11  1  0
 11 12  1  0
 12 13  1  0
 13 14  1  0
 14 15  1  0
 11 16  1  0
 15 16  1  0
 14 17  2  0
  2  3  2  0
  3  4  1  0
  4  5  2  0
  5  6  1  0
  6  7  2  0
  2  7  1  0
M  END

$$$$
No_4750-/export/home/yangzhenyu/potential_scad_32_flow//YTHDC2/2024-12-06-03-22-00/
     RDKit          3D

 17 18  0  0  0  0  0  0  0  0999 V2000
    1.1787   -8.0297    3.5154 C   0  0  0  0  0  0  0  0  0  0  0  0
    1.1048   -9.2215    3.2892 C   0  0  0  0  0  0  0  0  0  0  0  0
    1.2339   -9.7611    2.0189 C   0  0  0  0  0  0  0  0  0  0  0  0
    1.3583   -9.0036    0.9764 C   0  0  0  0  0  0  0  0  0  0  0  0
    1.5996   -7.6362    1.1311 C   0  0  0  0  0  0  0  0  0  0  0  0
    1.4830   -7.0928    2.3626 C   0  0  0  0  0  0  0  0  0  0  0  0
    1.1008  -11.2372    1.8542 C   0  0  0  0  0  0  0  0  0  0  0  0
    0.5178  -11.9759    2.3445 C   0  0  0  0  0  0  0  0  0  0  0  0
    0.4575  -13.3705    2.1281 C   0  0  0  0  0  0  0  0  0  0  0  0
    1.3992  -14.2795    2.9784 C   0  0  0  0  0  0  0  0  0  0  0  0
    1.6183  -15.4281    2.6004 C   0  0  0  0  0  0  0  0  0  0  0  0
    0.9580  -16.0107    1.5509 C   0  0  0  0  0  0  0  0  0  0  0  0
    0.1650  -15.3645    0.8003 C   0  0  0  0  0  0  0  0  0  0  0  0
   -0.0958  -14.0389    1.1020 C   0  0  0  0  0  0  0  0  0  0  0  0
    1.5927   -9.4531   -0.4763 Cl  0  0  0  0  0  0  0  0  0  0  0  0
    1.5743   -5.3839    2.6556 C   0  0  0  0  0  0  0  0  0  0  0  0
   -0.9729  -13.3245    0.3300 C   0  0  0  0  0  0  0  0  0  0  0  0
  3  7  1  0
  7  8  2  3
  8  9  1  0
  4 15  1  0
  6 16  1  0
 14 17  1  0
  1  2  2  0
  2  3  1  0
  3  4  2  0
  4  5  1  0
  5  6  2  0
  1  6  1  0
  9 10  2  0
 10 11  1  0
 11 12  2  0
 12 13  1  0
 13 14  2  0
  9 14  1  0
M  END

$$$$
No_4751-/export/home/yangzhenyu/potential_scad_32_flow//YTHDC2/2024-12-06-03-22-00/
     RDKit          3D

 17 17  0  0  1  0  0  0  0  0999 V2000
    1.1787   -8.0297    3.5154 C   0  0  0  0  0  0  0  0  0  0  0  0
    1.1048   -9.2215    3.2892 C   0  0  0  0  0  0  0  0  0  0  0  0
    1.2339   -9.7611    2.0189 C   0  0  0  0  0  0  0  0  0  0  0  0
    1.3583   -9.0036    0.9764 C   0  0  0  0  0  0  0  0  0  0  0  0
    1.5996   -7.6362    1.1311 C   0  0  0  0  0  0  0  0  0  0  0  0
    1.4830   -7.0928    2.3626 C   0  0  0  0  0  0  0  0  0  0  0  0
    1.1008  -11.2372    1.8542 C   0  0  0  0  0  0  0  0  0  0  0  0
    0.5178  -11.9759    2.3445 C   0  0  0  0  0  0  0  0  0  0  0  0
    0.4575  -13.3705    2.1281 C   0  0  0  0  0  0  0  0  0  0  0  0
    1.1632  -14.1013    2.0451 C   0  0  0  0  0  0  0  0  0  0  0  0
    2.4646  -13.5566    1.4445 C   0  0  0  0  0  0  0  0  0  0  0  0
    1.4828  -15.3910    2.7611 C   0  0  0  0  0  0  0  0  0  0  0  0
    0.9576  -16.4422    2.3452 C   0  0  1  0  0  0  0  0  0  0  0  0
    0.3879  -16.5050    1.2401 C   0  0  0  0  0  0  0  0  0  0  0  0
    1.1227  -17.6743    3.1001 C   0  0  0  0  0  0  0  0  0  0  0  0
    1.5541   -5.6564    2.6316 O   0  0  0  0  0  0  0  0  0  0  0  0
    1.1289  -16.5647    0.2348 O   0  0  0  0  0  0  0  0  0  0  0  0
  3  7  1  0
  7  8  2  3
  8  9  1  0
  9 10  2  3
 10 11  1  0
 10 12  1  0
 12 13  1  0
 13 14  1  0
 13 15  1  6
  6 16  1  0
 14 17  2  0
  1  2  2  0
  2  3  1  0
  3  4  2  0
  4  5  1  0
  5  6  2  0
  1  6  1  0
M  END

$$$$
No_4752-/export/home/yangzhenyu/potential_scad_32_flow//YTHDC2/2024-12-06-03-22-00/
     RDKit          3D

 21 22  0  0  0  0  0  0  0  0999 V2000
    1.1787   -8.0297    3.5154 C   0  0  0  0  0  0  0  0  0  0  0  0
    1.0491   -6.8434    2.9820 N   0  0  0  0  0  0  0  0  0  0  0  0
    0.1476   -8.8697    3.1493 C   0  0  0  0  0  0  0  0  0  0  0  0
   -0.7634   -8.3679    2.4311 C   0  0  0  0  0  0  0  0  0  0  0  0
   -0.1709   -6.9105    2.2426 C   0  0  0  0  0  0  0  0  0  0  0  0
    0.2070  -10.3565    3.6024 C   0  0  0  0  0  0  0  0  0  0  0  0
   -0.9147  -10.9875    3.5688 C   0  0  0  0  0  0  0  0  0  0  0  0
    1.3324  -10.8709    4.2517 C   0  0  0  0  0  0  0  0  0  0  0  0
    2.5433  -10.3495    4.4228 C   0  0  0  0  0  0  0  0  0  0  0  0
   -0.8784  -12.3514    3.2154 C   0  0  0  0  0  0  0  0  0  0  0  0
   -1.9805  -13.0496    2.8569 N   0  0  0  0  0  0  0  0  0  0  0  0
    0.2602  -13.1371    3.0374 Cl  0  0  0  0  0  0  0  0  0  0  0  0
    3.3823  -11.2194    5.3829 O   0  0  0  0  0  0  0  0  0  0  0  0
   -0.7951   -5.9004    1.5765 C   0  0  0  0  0  0  0  0  0  0  0  0
   -0.3801   -4.7305    1.6458 C   0  0  0  0  0  0  0  0  0  0  0  0
   -1.0217   -3.5752    1.0757 C   0  0  0  0  0  0  0  0  0  0  0  0
   -0.4562   -2.3351    1.0009 C   0  0  0  0  0  0  0  0  0  0  0  0
    0.9061   -2.2346    1.3412 C   0  0  0  0  0  0  0  0  0  0  0  0
    1.3438   -3.4185    1.9188 C   0  0  0  0  0  0  0  0  0  0  0  0
    0.9443   -4.5820    2.0469 C   0  0  0  0  0  0  0  0  0  0  0  0
   -2.8890  -12.6092    2.8860 H   0  0  0  0  0  0  0  0  0  0  0  0
  1  2  1  0
  1  3  2  0
  3  4  1  0
  2  5  1  0
  4  5  2  0
  3  6  1  0
  6  7  2  3
  6  8  1  0
  8  9  1  0
  7 10  1  0
 10 11  2  0
 10 12  1  0
  9 13  1  0
  5 14  1  0
 14 15  1  0
 15 16  2  0
 16 17  1  0
 17 18  2  0
 18 19  1  0
 19 20  2  0
 15 20  1  0
 11 21  1  0
M  END

$$$$
No_4753-/export/home/yangzhenyu/potential_scad_32_flow//YTHDC2/2024-12-06-03-22-00/
     RDKit          3D

 17 17  0  0  1  0  0  0  0  0999 V2000
    1.1787   -8.0297    3.5154 C   0  0  0  0  0  0  0  0  0  0  0  0
    1.1048   -9.2215    3.2892 C   0  0  0  0  0  0  0  0  0  0  0  0
    1.2339   -9.7611    2.0189 C   0  0  0  0  0  0  0  0  0  0  0  0
    1.3583   -9.0036    0.9764 C   0  0  0  0  0  0  0  0  0  0  0  0
    1.7077   -9.6100   -0.3010 C   0  0  0  0  0  0  0  0  0  0  0  0
    1.3637   -7.1087    2.3226 C   0  0  0  0  0  0  0  0  0  0  0  0
    1.4257   -7.6645    1.0231 C   0  0  0  0  0  0  0  0  0  0  0  0
    1.6722  -10.7840   -0.4044 O   0  0  0  0  0  0  0  0  0  0  0  0
    1.4862   -8.9147   -1.4018 O   0  0  0  0  0  0  0  0  0  0  0  0
    1.1383  -10.1804    4.3877 C   0  0  0  0  0  0  0  0  0  0  0  0
    0.9641  -11.6887    4.0178 C   0  0  0  0  0  0  0  0  0  0  0  0
   -0.3369  -12.1161    3.8154 C   0  0  1  0  0  0  0  0  0  0  0  0
   -1.3996  -11.1811    3.8885 C   0  0  0  0  0  0  0  0  0  0  0  0
   -0.6711  -13.2198    3.1914 C   0  0  0  0  0  0  0  0  0  0  0  0
   -2.0253  -13.4072    2.8135 C   0  0  0  0  0  0  0  0  0  0  0  0
   -2.5521  -14.4855    2.3000 C   0  0  0  0  0  0  0  0  0  0  0  0
   -2.6195  -11.4646    3.5873 C   0  0  0  0  0  0  0  0  0  0  0  0
  4  5  1  0
  5  8  2  0
  5  9  1  0
  2 10  1  0
 10 11  1  0
 12 11  1  6
 12 13  1  0
 12 14  1  0
 14 15  2  3
 15 16  1  0
 13 17  2  0
  1  2  2  0
  2  3  1  0
  3  4  2  0
  4  7  1  0
  6  7  2  0
  1  6  1  0
M  END

$$$$
No_4754-/export/home/yangzhenyu/potential_scad_32_flow//YTHDC2/2024-12-06-03-22-00/
     RDKit          3D

 19 21  0  0  0  0  0  0  0  0999 V2000
    1.1787   -8.0297    3.5154 C   0  0  0  0  0  0  0  0  0  0  0  0
    1.1048   -9.2215    3.2892 C   0  0  0  0  0  0  0  0  0  0  0  0
    1.2339   -9.7611    2.0189 C   0  0  0  0  0  0  0  0  0  0  0  0
    1.1954  -11.2312    1.8661 C   0  0  0  0  0  0  0  0  0  0  0  0
    1.2996  -11.5815    0.5387 C   0  0  0  0  0  0  0  0  0  0  0  0
    0.9270   -7.0442    2.4967 C   0  0  0  0  0  0  0  0  0  0  0  0
    0.9803   -7.6034    1.0978 C   0  0  0  0  0  0  0  0  0  0  0  0
    1.1096   -8.9244    0.8670 C   0  0  0  0  0  0  0  0  0  0  0  0
    1.0761  -11.9547    2.9012 C   0  0  0  0  0  0  0  0  0  0  0  0
    0.5875  -12.9955    2.7625 C   0  0  0  0  0  0  0  0  0  0  0  0
    0.4818  -13.7074    1.4940 C   0  0  0  0  0  0  0  0  0  0  0  0
    0.9365  -13.0853    0.5493 C   0  0  0  0  0  0  0  0  0  0  0  0
    0.9929   -5.5983    2.6343 C   0  0  0  0  0  0  0  0  0  0  0  0
    1.6485   -5.1152    3.5465 C   0  0  0  0  0  0  0  0  0  0  0  0
    1.4057   -3.6856    3.6827 N   0  0  0  0  0  0  0  0  0  0  0  0
    0.3747   -4.7958    1.7332 C   0  0  0  0  0  0  0  0  0  0  0  0
    0.3308   -3.4957    1.7856 C   0  0  0  0  0  0  0  0  0  0  0  0
    0.8414   -2.8787    2.9229 C   0  0  0  0  0  0  0  0  0  0  0  0
    0.3217  -15.0288    1.3331 C   0  0  0  0  0  0  0  0  0  0  0  0
  3  4  1  0
  6 13  1  0
 11 19  1  0
  4  5  2  0
  5 12  1  0
 11 12  2  0
 10 11  1  0
  9 10  2  0
  4  9  1  0
  1  2  2  0
  2  3  1  0
  3  8  2  0
  7  8  1  0
  6  7  2  0
  1  6  1  0
 13 14  2  0
 14 15  1  0
 15 18  2  0
 17 18  1  0
 16 17  2  0
 13 16  1  0
M  END

$$$$
No_4755-/export/home/yangzhenyu/potential_scad_32_flow//YTHDC2/2024-12-06-03-22-00/
     RDKit          3D

 18 19  0  0  1  0  0  0  0  0999 V2000
    1.1787   -8.0297    3.5154 C   0  0  0  0  0  0  0  0  0  0  0  0
    1.1048   -9.2215    3.2892 C   0  0  0  0  0  0  0  0  0  0  0  0
    1.3627  -10.1721    4.3044 C   0  0  0  0  0  0  0  0  0  0  0  0
    1.7354  -11.4730    3.9023 C   0  0  0  0  0  0  0  0  0  0  0  0
    1.6166  -11.5515    2.5159 C   0  0  0  0  0  0  0  0  0  0  0  0
    1.4172  -10.6242    1.6178 C   0  0  0  0  0  0  0  0  0  0  0  0
    1.2598   -9.4423    1.9811 C   0  0  0  0  0  0  0  0  0  0  0  0
    0.9744   -6.9065    2.9175 C   0  0  2  0  0  0  0  0  0  0  0  0
    1.1914   -7.2052    1.4248 C   0  0  0  0  0  0  0  0  0  0  0  0
    1.3358   -8.3886    1.0074 C   0  0  0  0  0  0  0  0  0  0  0  0
    1.4073   -8.6300   -0.3442 O   0  0  0  0  0  0  0  0  0  0  0  0
    1.9090  -13.2982    2.0022 Cl  0  0  0  0  0  0  0  0  0  0  0  0
    1.0676   -5.5224    3.2213 N   0  0  0  0  0  0  0  0  0  0  0  0
    1.3124   -6.1216    0.6099 O   0  0  0  0  0  0  0  0  0  0  0  0
    0.2624   -4.5824    2.9453 C   0  0  0  0  0  0  0  0  0  0  0  0
    0.6803   -3.2832    3.0471 C   0  0  0  0  0  0  0  0  0  0  0  0
   -1.0169   -4.9199    2.5538 C   0  0  0  0  0  0  0  0  0  0  0  0
   -1.7825   -3.9209    1.8171 O   0  0  0  0  0  0  0  0  0  0  0  0
  1  2  1  0
  8  9  1  0
  7 10  1  0
  9 10  1  0
 10 11  2  0
  5 12  1  0
  8 13  1  1
  9 14  2  0
 13 15  1  0
 15 16  1  0
 15 17  1  0
 17 18  2  0
  1  8  1  0
  2  3  2  0
  3  4  1  0
  4  5  2  0
  5  6  1  0
  6  7  2  0
  2  7  1  0
M  END

$$$$
No_4756-/export/home/yangzhenyu/potential_scad_32_flow//YTHDC2/2024-12-06-03-22-00/
     RDKit          3D

 19 20  0  0  1  0  0  0  0  0999 V2000
    1.1787   -8.0297    3.5154 C   0  0  0  0  0  0  0  0  0  0  0  0
    1.0491   -6.8434    2.9820 C   0  0  0  0  0  0  0  0  0  0  0  0
    0.9905   -9.0774    2.6527 C   0  0  1  0  0  0  0  0  0  0  0  0
    0.7897   -8.9519    1.3691 C   0  0  0  0  0  0  0  0  0  0  0  0
    0.7018   -7.7198    0.7892 C   0  0  0  0  0  0  0  0  0  0  0  0
    0.8918   -6.5957    1.6117 C   0  0  0  0  0  0  0  0  0  0  0  0
    1.0998  -10.4710    3.2437 C   0  0  0  0  0  0  0  0  0  0  0  0
    0.0472  -11.2546    3.3963 C   0  0  0  0  0  0  0  0  0  0  0  0
    0.1622  -12.5732    3.4140 C   0  0  0  0  0  0  0  0  0  0  0  0
    1.4182  -13.1957    3.4048 C   0  0  0  0  0  0  0  0  0  0  0  0
    1.4947  -14.7093    3.1402 C   0  0  0  0  0  0  0  0  0  0  0  0
    0.2472  -15.3423    3.3057 C   0  0  0  0  0  0  0  0  0  0  0  0
    0.8598   -5.2916    1.1749 O   0  0  0  0  0  0  0  0  0  0  0  0
    2.4645  -15.2036    2.4794 C   0  0  0  0  0  0  0  0  0  0  0  0
    2.5622  -16.5630    2.4730 C   0  0  0  0  0  0  0  0  0  0  0  0
    1.6554  -17.3716    2.6490 C   0  0  0  0  0  0  0  0  0  0  0  0
    0.5005  -16.8404    3.1902 C   0  0  0  0  0  0  0  0  0  0  0  0
    2.4229  -10.8488    3.6646 O   0  0  0  0  0  0  0  0  0  0  0  0
    0.6874   -9.9927    0.3744 C   0  0  0  0  0  0  0  0  0  0  0  0
  1  2  1  0
  3  4  1  0
  2  6  1  0
  5  6  1  0
  3  7  1  6
  7  8  1  0
  8  9  2  3
  9 10  1  0
 10 11  1  0
  6 13  2  0
  7 18  2  0
  4 19  1  0
  1  3  1  0
  4  5  1  0
 11 12  2  0
 12 17  1  0
 16 17  2  0
 15 16  1  0
 14 15  2  0
 11 14  1  0
M  END

$$$$
No_4757-/export/home/yangzhenyu/potential_scad_32_flow//YTHDC2/2024-12-06-03-22-00/
     RDKit          3D

 18 19  0  0  0  0  0  0  0  0999 V2000
    1.1787   -8.0297    3.5154 O   0  0  0  0  0  0  0  0  0  0  0  0
    0.6747   -7.4019    2.7838 C   0  0  0  0  0  0  0  0  0  0  0  0
    0.5570   -6.0797    2.8560 C   0  0  0  0  0  0  0  0  0  0  0  0
   -0.2158   -5.3007    2.0284 C   0  0  0  0  0  0  0  0  0  0  0  0
   -0.8260   -5.9169    1.0290 C   0  0  0  0  0  0  0  0  0  0  0  0
   -0.6925   -7.2407    0.8216 C   0  0  0  0  0  0  0  0  0  0  0  0
    0.1645   -8.0156    1.6621 C   0  0  0  0  0  0  0  0  0  0  0  0
    0.4049   -9.3434    1.4877 C   0  0  0  0  0  0  0  0  0  0  0  0
    0.0670  -10.2565    2.0992 N   0  0  0  0  0  0  0  0  0  0  0  0
   -1.1359  -10.2659    2.7200 C   0  0  0  0  0  0  0  0  0  0  0  0
   -1.0067  -10.2193    4.1288 C   0  0  0  0  0  0  0  0  0  0  0  0
    1.3137   -9.4906    0.2635 C   0  0  0  0  0  0  0  0  0  0  0  0
    2.3043   -9.2534   -0.0066 O   0  0  0  0  0  0  0  0  0  0  0  0
    0.8001  -10.3799   -0.6853 O   0  0  0  0  0  0  0  0  0  0  0  0
   -2.1236  -10.1766    5.0142 C   0  0  0  0  0  0  0  0  0  0  0  0
   -3.3522  -10.1696    4.3782 C   0  0  0  0  0  0  0  0  0  0  0  0
   -3.4810  -10.2220    3.0351 C   0  0  0  0  0  0  0  0  0  0  0  0
   -2.3455  -10.2701    2.2355 C   0  0  0  0  0  0  0  0  0  0  0  0
  1  2  1  0
  7  8  1  0
  8  9  1  0
  9 10  1  0
  8 12  1  0
 12 13  2  0
 12 14  1  0
  2  3  2  0
  3  4  1  0
  4  5  2  0
  5  6  1  0
  6  7  2  0
  2  7  1  0
 10 11  2  0
 11 15  1  0
 15 16  2  0
 16 17  1  0
 17 18  2  0
 10 18  1  0
M  END

$$$$
No_4758-/export/home/yangzhenyu/potential_scad_32_flow//YTHDC2/2024-12-06-03-22-00/
     RDKit          3D

 18 18  0  0  0  0  0  0  0  0999 V2000
    1.1787   -8.0297    3.5154 C   0  0  0  0  0  0  0  0  0  0  0  0
    1.0491   -6.8434    2.9820 C   0  0  0  0  0  0  0  0  0  0  0  0
    0.9905   -9.0774    2.6527 C   0  0  0  0  0  0  0  0  0  0  0  0
    0.7897   -8.9519    1.3691 C   0  0  0  0  0  0  0  0  0  0  0  0
    0.7018   -7.7198    0.7892 C   0  0  0  0  0  0  0  0  0  0  0  0
    0.8918   -6.5957    1.6117 C   0  0  0  0  0  0  0  0  0  0  0  0
    1.0774  -10.6059    3.3145 C   0  0  0  0  0  0  0  0  0  0  0  0
    2.1444  -11.0408    3.6446 N   0  0  0  0  0  0  0  0  0  0  0  0
    0.0247  -11.2534    3.3483 O   0  0  0  0  0  0  0  0  0  0  0  0
    0.8096   -5.2784    1.0879 C   0  0  0  0  0  0  0  0  0  0  0  0
    1.5523   -4.3092    1.6960 N   0  0  0  0  0  0  0  0  0  0  0  0
   -0.0028   -4.8774    0.2558 O   0  0  0  0  0  0  0  0  0  0  0  0
    1.5650   -2.9960    1.2839 C   0  0  0  0  0  0  0  0  0  0  0  0
    2.2670  -12.2751    4.2652 C   0  0  0  0  0  0  0  0  0  0  0  0
    1.3363  -13.1343    3.5125 C   0  0  0  0  0  0  0  0  0  0  0  0
    1.9229  -14.2598    2.7728 C   0  0  0  0  0  0  0  0  0  0  0  0
    1.2894  -15.2209    2.1771 C   0  0  0  0  0  0  0  0  0  0  0  0
   -0.0715  -15.2710    2.3885 C   0  0  0  0  0  0  0  0  0  0  0  0
  3  7  1  0
  7  8  1  0
  7  9  2  0
  6 10  1  0
 10 11  1  0
 10 12  2  0
 11 13  1  0
  8 14  1  0
 14 15  1  0
 15 16  1  0
 16 17  2  3
 17 18  1  0
  1  2  2  0
  2  6  1  0
  5  6  2  0
  4  5  1  0
  3  4  2  0
  1  3  1  0
M  END

$$$$
No_4759-/export/home/yangzhenyu/potential_scad_32_flow//YTHDC2/2024-12-06-03-22-00/
     RDKit          3D

 18 20  0  0  0  0  0  0  0  0999 V2000
    1.1787   -8.0297    3.5154 C   0  0  0  0  0  0  0  0  0  0  0  0
    1.0491   -6.8434    2.9820 C   0  0  0  0  0  0  0  0  0  0  0  0
    0.0950   -8.8404    3.2292 C   0  0  0  0  0  0  0  0  0  0  0  0
   -0.9173   -8.4596    2.5152 C   0  0  0  0  0  0  0  0  0  0  0  0
   -1.0331   -7.2162    2.0653 C   0  0  0  0  0  0  0  0  0  0  0  0
   -0.0105   -6.3168    2.3081 C   0  0  0  0  0  0  0  0  0  0  0  0
    0.0485   -4.9783    1.8782 C   0  0  0  0  0  0  0  0  0  0  0  0
   -0.6974   -4.6139    0.8644 C   0  0  0  0  0  0  0  0  0  0  0  0
   -0.6561   -3.2952    0.3726 C   0  0  0  0  0  0  0  0  0  0  0  0
    0.3825   -2.3349    0.9301 C   0  0  0  0  0  0  0  0  0  0  0  0
    1.2263   -2.8301    1.8600 C   0  0  0  0  0  0  0  0  0  0  0  0
    1.1518   -4.1147    2.3284 C   0  0  0  0  0  0  0  0  0  0  0  0
    0.1346  -10.2414    3.7127 Cl  0  0  0  0  0  0  0  0  0  0  0  0
   -1.5351   -2.7919   -0.6293 N   0  0  0  0  0  0  0  0  0  0  0  0
   -2.5428   -2.1370   -0.3486 C   0  0  0  0  0  0  0  0  0  0  0  0
   -1.1833   -3.1185   -2.0148 C   0  0  0  0  0  0  0  0  0  0  0  0
   -1.9608   -2.3286   -2.8891 C   0  0  0  0  0  0  0  0  0  0  0  0
   -2.8520   -1.7719   -1.8058 C   0  0  0  0  0  0  0  0  0  0  0  0
  6  7  1  0
  3 13  1  0
  9 14  1  0
 14 15  1  0
 14 16  1  0
 16 17  1  0
 15 18  1  0
 17 18  1  0
  1  2  2  0
  2  6  1  0
  5  6  2  0
  4  5  1  0
  3  4  2  0
  1  3  1  0
  7  8  2  0
  8  9  1  0
  9 10  2  0
 10 11  1  0
 11 12  2  0
  7 12  1  0
M  END

$$$$
No_4760-/export/home/yangzhenyu/potential_scad_32_flow//YTHDC2/2024-12-06-03-22-00/
     RDKit          3D

 13 13  0  0  0  0  0  0  0  0999 V2000
    1.1787   -8.0297    3.5154 C   0  0  0  0  0  0  0  0  0  0  0  0
    1.0491   -6.8434    2.9820 C   0  0  0  0  0  0  0  0  0  0  0  0
    0.0950   -8.8404    3.2292 C   0  0  0  0  0  0  0  0  0  0  0  0
   -0.9173   -8.4596    2.5152 C   0  0  0  0  0  0  0  0  0  0  0  0
   -1.0331   -7.2162    2.0653 C   0  0  0  0  0  0  0  0  0  0  0  0
   -0.0105   -6.3168    2.3081 C   0  0  0  0  0  0  0  0  0  0  0  0
    0.1150   -4.9910    1.8495 C   0  0  0  0  0  0  0  0  0  0  0  0
   -0.5774   -4.1593    2.0596 N   0  0  0  0  0  0  0  0  0  0  0  0
    0.1680  -10.2877    3.7012 C   0  0  0  0  0  0  0  0  0  0  0  0
   -1.0762  -10.9526    3.8329 C   0  0  0  0  0  0  0  0  0  0  0  0
    1.3613  -10.8020    4.3070 C   0  0  0  0  0  0  0  0  0  0  0  0
    1.8777  -11.8284    3.8236 C   0  0  0  0  0  0  0  0  0  0  0  0
    0.7543  -12.7978    3.5616 C   0  0  0  0  0  0  0  0  0  0  0  0
  6  7  1  0
  7  8  1  0
  3  9  1  0
  9 10  2  0
  9 11  1  0
 11 12  2  3
 12 13  1  0
  1  2  2  0
  2  6  1  0
  5  6  2  0
  4  5  1  0
  3  4  2  0
  1  3  1  0
M  END

$$$$
No_4761-/export/home/yangzhenyu/potential_scad_32_flow//YTHDC2/2024-12-06-03-22-00/
     RDKit          3D

 19 21  0  0  0  0  0  0  0  0999 V2000
    1.1787   -8.0297    3.5154 C   0  0  0  0  0  0  0  0  0  0  0  0
    1.0491   -6.8434    2.9820 C   0  0  0  0  0  0  0  0  0  0  0  0
    0.9905   -9.0774    2.6527 C   0  0  0  0  0  0  0  0  0  0  0  0
    1.1655  -10.4663    3.1286 C   0  0  0  0  0  0  0  0  0  0  0  0
    1.2197  -11.4898    2.5831 C   0  0  0  0  0  0  0  0  0  0  0  0
    1.0589  -11.4458    1.1293 C   0  0  0  0  0  0  0  0  0  0  0  0
    0.9638  -10.3069    0.4651 C   0  0  0  0  0  0  0  0  0  0  0  0
    0.9191   -9.0789    1.1942 C   0  0  0  0  0  0  0  0  0  0  0  0
    0.9103   -7.8220    0.6974 C   0  0  0  0  0  0  0  0  0  0  0  0
    1.0140   -6.6889    1.5108 C   0  0  0  0  0  0  0  0  0  0  0  0
    1.3869  -13.0428    3.1979 C   0  0  0  0  0  0  0  0  0  0  0  0
    1.2437  -14.0599    2.2202 C   0  0  0  0  0  0  0  0  0  0  0  0
    0.0716  -14.6913    2.0034 C   0  0  0  0  0  0  0  0  0  0  0  0
   -0.0455  -15.7825    2.6685 C   0  0  0  0  0  0  0  0  0  0  0  0
   -1.1781  -16.4303    2.9522 C   0  0  0  0  0  0  0  0  0  0  0  0
   -2.2910  -15.9235    2.3991 C   0  0  0  0  0  0  0  0  0  0  0  0
   -2.2599  -14.8116    1.6382 C   0  0  0  0  0  0  0  0  0  0  0  0
   -1.0630  -14.1434    1.4021 C   0  0  0  0  0  0  0  0  0  0  0  0
    1.4178   -5.6165    3.6478 C   0  0  0  0  0  0  0  0  0  0  0  0
  5 11  1  0
 11 12  1  0
 12 13  1  0
  2 19  1  0
 13 14  2  0
 14 15  1  0
 15 16  2  0
 16 17  1  0
 17 18  2  0
 13 18  1  0
  1  2  2  0
  2 10  1  0
  9 10  2  0
  8  9  1  0
  1  3  1  0
  3  4  2  0
  4  5  1  0
  5  6  2  0
  6  7  1  0
  7  8  2  0
  3  8  1  0
M  END

$$$$
No_4762-/export/home/yangzhenyu/potential_scad_32_flow//YTHDC2/2024-12-06-03-22-00/
     RDKit          3D

 18 19  0  0  0  0  0  0  0  0999 V2000
    1.1787   -8.0297    3.5154 C   0  0  0  0  0  0  0  0  0  0  0  0
    1.1048   -9.2215    3.2892 C   0  0  0  0  0  0  0  0  0  0  0  0
    1.2339   -9.7611    2.0189 C   0  0  0  0  0  0  0  0  0  0  0  0
    1.3583   -9.0036    0.9764 C   0  0  0  0  0  0  0  0  0  0  0  0
    1.5996   -7.6362    1.1311 C   0  0  0  0  0  0  0  0  0  0  0  0
    1.4830   -7.0928    2.3626 C   0  0  0  0  0  0  0  0  0  0  0  0
    1.5395   -5.7300    2.6182 C   0  0  0  0  0  0  0  0  0  0  0  0
    1.1775  -11.2233    1.8407 C   0  0  0  0  0  0  0  0  0  0  0  0
    1.9057  -12.1147    2.3397 C   0  0  0  0  0  0  0  0  0  0  0  0
    1.2923  -13.3224    2.7485 C   0  0  0  0  0  0  0  0  0  0  0  0
    0.1394  -13.7108    2.4017 C   0  0  0  0  0  0  0  0  0  0  0  0
   -0.6797  -12.8082    1.7671 C   0  0  0  0  0  0  0  0  0  0  0  0
   -0.1270  -11.5413    1.3335 C   0  0  0  0  0  0  0  0  0  0  0  0
   -0.3930  -15.1508    2.6821 C   0  0  0  0  0  0  0  0  0  0  0  0
   -0.3986  -16.0476    2.0082 C   0  0  0  0  0  0  0  0  0  0  0  0
    0.2166  -16.8476    2.0205 C   0  0  0  0  0  0  0  0  0  0  0  0
    0.9262  -17.3737    3.3144 C   0  0  0  0  0  0  0  0  0  0  0  0
    0.8882  -16.3046    4.3368 C   0  0  0  0  0  0  0  0  0  0  0  0
  6  7  1  0
  3  8  1  0
 11 14  1  0
 14 15  1  0
 15 16  2  3
 16 17  1  0
 17 18  2  0
  1  2  2  0
  2  3  1  0
  3  4  2  0
  4  5  1  0
  5  6  2  0
  1  6  1  0
  8  9  2  0
  9 10  1  0
 10 11  2  0
 11 12  1  0
 12 13  2  0
  8 13  1  0
M  END

$$$$
No_4763-/export/home/yangzhenyu/potential_scad_32_flow//YTHDC2/2024-12-06-03-22-00/
     RDKit          3D

 18 20  0  0  0  0  0  0  0  0999 V2000
    1.1787   -8.0297    3.5154 C   0  0  0  0  0  0  0  0  0  0  0  0
    1.0491   -6.8434    2.9820 F   0  0  0  0  0  0  0  0  0  0  0  0
    0.0305   -8.5911    3.7360 C   0  0  0  0  0  0  0  0  0  0  0  0
    0.0909   -9.9772    4.1302 C   0  0  0  0  0  0  0  0  0  0  0  0
    1.0875  -10.7516    3.9492 C   0  0  0  0  0  0  0  0  0  0  0  0
    2.2371  -10.2726    3.5696 C   0  0  0  0  0  0  0  0  0  0  0  0
    2.3048   -8.9587    3.1954 C   0  0  0  0  0  0  0  0  0  0  0  0
    1.0631  -12.1420    4.2697 C   0  0  0  0  0  0  0  0  0  0  0  0
    1.2194  -12.9846    3.0701 C   0  0  0  0  0  0  0  0  0  0  0  0
    1.0762  -12.6057    1.8376 C   0  0  0  0  0  0  0  0  0  0  0  0
    1.5527  -14.3568    3.3135 C   0  0  0  0  0  0  0  0  0  0  0  0
    0.2762  -13.2503    1.1247 C   0  0  0  0  0  0  0  0  0  0  0  0
    0.2903  -14.6801    1.2319 C   0  0  0  0  0  0  0  0  0  0  0  0
   -0.3443  -15.4991    0.4367 C   0  0  0  0  0  0  0  0  0  0  0  0
    0.9182  -15.2180    2.4246 C   0  0  0  0  0  0  0  0  0  0  0  0
   -0.2663  -16.8148    0.5078 C   0  0  0  0  0  0  0  0  0  0  0  0
    0.3780  -17.4060    1.5698 C   0  0  0  0  0  0  0  0  0  0  0  0
    1.0198  -16.5821    2.5431 C   0  0  0  0  0  0  0  0  0  0  0  0
  1  2  1  0
  5  8  1  0
  8  9  1  0
 13 14  1  0
 14 16  2  0
 16 17  1  0
 17 18  2  0
 15 18  1  0
  9 10  2  0
 10 12  1  0
 12 13  2  0
 13 15  1  0
 11 15  2  0
  9 11  1  0
  1  3  2  0
  3  4  1  0
  4  5  2  0
  5  6  1  0
  6  7  2  0
  1  7  1  0
M  END

$$$$
No_4764-/export/home/yangzhenyu/potential_scad_32_flow//YTHDC2/2024-12-06-03-22-00/
     RDKit          3D

 21 23  0  0  1  0  0  0  0  0999 V2000
    1.1787   -8.0297    3.5154 C   0  0  0  0  0  0  0  0  0  0  0  0
    1.1048   -9.2215    3.2892 C   0  0  0  0  0  0  0  0  0  0  0  0
    1.0239   -9.7790    2.0239 S   0  0  2  0  0  0  0  0  0  0  0  0
    1.2841   -8.3687    1.2475 C   0  0  0  0  0  0  0  0  0  0  0  0
    1.4116   -7.3634    2.1993 C   0  0  0  0  0  0  0  0  0  0  0  0
    1.4138   -8.2234   -0.1707 C   0  0  0  0  0  0  0  0  0  0  0  0
    1.3661   -9.2768   -0.9516 C   0  0  0  0  0  0  0  0  0  0  0  0
    0.2754   -9.2800   -1.6869 O   0  0  0  0  0  0  0  0  0  0  0  0
    2.0592  -10.2445   -0.8465 O   0  0  0  0  0  0  0  0  0  0  0  0
    0.9548  -10.1762    4.5386 Br  0  0  0  0  0  0  0  0  0  0  0  0
    1.4932   -5.9361    2.0512 Cl  0  0  0  0  0  0  0  0  0  0  0  0
   -0.2463  -10.4273    1.5563 C   0  0  0  0  0  0  0  0  0  0  0  0
   -1.5179   -9.9266    1.6384 C   0  0  0  0  0  0  0  0  0  0  0  0
   -2.6416  -10.4628    1.3231 C   0  0  0  0  0  0  0  0  0  0  0  0
   -2.5485  -11.8834    0.8985 C   0  0  0  0  0  0  0  0  0  0  0  0
   -1.3379  -12.5122    0.8079 C   0  0  0  0  0  0  0  0  0  0  0  0
   -0.1118  -11.7786    1.0751 C   0  0  0  0  0  0  0  0  0  0  0  0
   -1.2509  -13.6850    0.1124 C   0  0  0  0  0  0  0  0  0  0  0  0
   -0.1811  -14.5215    0.2379 C   0  0  0  0  0  0  0  0  0  0  0  0
    1.0300  -13.8834    0.7461 C   0  0  0  0  0  0  0  0  0  0  0  0
    1.0553  -12.5102    1.1928 C   0  0  0  0  0  0  0  0  0  0  0  0
  1  2  2  0
  2  3  1  0
  3  4  1  0
  1  5  1  0
  4  5  2  0
  4  6  1  0
  6  7  1  0
  7  8  1  0
  7  9  2  0
  2 10  1  0
  5 11  1  0
  3 12  1  6
 12 13  2  0
 13 14  1  0
 14 15  2  0
 15 16  1  0
 12 17  1  0
 16 17  2  0
 17 21  1  0
 20 21  2  0
 19 20  1  0
 18 19  2  0
 16 18  1  0
M  END

$$$$
No_4765-/export/home/yangzhenyu/potential_scad_32_flow//YTHDC2/2024-12-06-03-22-00/
     RDKit          3D

 18 19  0  0  0  0  0  0  0  0999 V2000
    1.1787   -8.0297    3.5154 C   0  0  0  0  0  0  0  0  0  0  0  0
    1.1048   -9.2215    3.2892 C   0  0  0  0  0  0  0  0  0  0  0  0
    1.2339   -9.7611    2.0189 C   0  0  0  0  0  0  0  0  0  0  0  0
    1.3583   -9.0036    0.9764 C   0  0  0  0  0  0  0  0  0  0  0  0
    1.5996   -7.6362    1.1311 C   0  0  0  0  0  0  0  0  0  0  0  0
    1.4830   -7.0928    2.3626 C   0  0  0  0  0  0  0  0  0  0  0  0
    1.1171  -11.3311    1.8661 C   0  0  0  0  0  0  0  0  0  0  0  0
    0.5042  -11.9974    2.3631 C   0  0  0  0  0  0  0  0  0  0  0  0
    0.4547  -13.3874    2.1599 C   0  0  0  0  0  0  0  0  0  0  0  0
    1.6053  -14.2337    2.6336 C   0  0  0  0  0  0  0  0  0  0  0  0
    1.6405  -15.5635    2.4227 C   0  0  0  0  0  0  0  0  0  0  0  0
    0.5328  -16.1828    1.9320 C   0  0  0  0  0  0  0  0  0  0  0  0
   -0.4545  -15.5158    1.3547 C   0  0  0  0  0  0  0  0  0  0  0  0
   -0.5125  -14.1019    1.5567 C   0  0  0  0  0  0  0  0  0  0  0  0
    1.5911   -5.4738    2.6984 C   0  0  0  0  0  0  0  0  0  0  0  0
    1.1933   -4.7587    1.6289 N   0  0  0  0  0  0  0  0  0  0  0  0
   -0.1357   -4.6373    1.3282 C   0  0  0  0  0  0  0  0  0  0  0  0
   -0.9934   -5.4222    1.7157 O   0  0  0  0  0  0  0  0  0  0  0  0
  3  7  1  0
  7  8  2  3
  8  9  1  0
  6 15  1  0
 15 16  1  0
 16 17  1  0
 17 18  2  0
  1  2  2  0
  2  3  1  0
  3  4  2  0
  4  5  1  0
  5  6  2  0
  1  6  1  0
  9 10  2  0
 10 11  1  0
 11 12  2  0
 12 13  1  0
 13 14  2  0
  9 14  1  0
M  END

$$$$
No_4766-/export/home/yangzhenyu/potential_scad_32_flow//YTHDC2/2024-12-06-03-22-00/
     RDKit          3D

 19 19  0  0  1  0  0  0  0  0999 V2000
    1.1787   -8.0297    3.5154 O   0  0  0  0  0  0  0  0  0  0  0  0
    0.9969   -8.9689    3.0048 C   0  0  0  0  0  0  0  0  0  0  0  0
    0.9976   -8.9567    1.6341 C   0  0  0  0  0  0  0  0  0  0  0  0
    0.7663   -7.7728    1.0082 C   0  0  0  0  0  0  0  0  0  0  0  0
    1.1468   -6.5619    1.6541 C   0  0  0  0  0  0  0  0  0  0  0  0
    0.8575   -5.3105    0.9942 C   0  0  0  0  0  0  0  0  0  0  0  0
    0.8018  -10.1566    3.6714 C   0  0  0  0  0  0  0  0  0  0  0  0
    1.8582  -11.0477    3.8464 C   0  0  0  0  0  0  0  0  0  0  0  0
   -0.3789   -5.1757    0.5457 C   0  0  0  0  0  0  0  0  0  0  0  0
   -0.9424   -3.9622    0.1963 C   0  0  0  0  0  0  0  0  0  0  0  0
    1.7030  -12.3523    3.6854 C   0  0  0  0  0  0  0  0  0  0  0  0
    2.2581  -12.9784    2.5554 C   0  0  2  0  0  0  0  0  0  0  0  0
    2.0496  -12.2244    1.3933 C   0  0  0  0  0  0  0  0  0  0  0  0
    1.7623  -14.3864    2.3138 C   0  0  0  0  0  0  0  0  0  0  0  0
   -0.3462   -2.7441    0.7664 C   0  0  0  0  0  0  0  0  0  0  0  0
    0.9358   -2.8797    1.3944 C   0  0  0  0  0  0  0  0  0  0  0  0
    1.4882   -4.0965    1.6738 C   0  0  0  0  0  0  0  0  0  0  0  0
    2.0600   -9.7481    1.0255 O   0  0  0  0  0  0  0  0  0  0  0  0
    2.6773  -15.2299    1.9892 C   0  0  0  0  0  0  0  0  0  0  0  0
  1  2  1  0
  2  3  1  0
  3  4  1  0
  4  5  1  0
  5  6  1  0
  2  7  1  0
  7  8  1  0
  8 11  1  0
 11 12  1  0
 12 13  1  6
 12 14  1  0
  3 18  2  0
 14 19  1  0
  6  9  2  0
  9 10  1  0
 10 15  2  0
 15 16  1  0
 16 17  2  0
  6 17  1  0
M  END

$$$$
No_4767-/export/home/yangzhenyu/potential_scad_32_flow//YTHDC2/2024-12-06-03-22-00/
     RDKit          3D

 18 19  0  0  1  0  0  0  0  0999 V2000
    1.1787   -8.0297    3.5154 C   0  0  0  0  0  0  0  0  0  0  0  0
    1.0491   -6.8434    2.9820 C   0  0  0  0  0  0  0  0  0  0  0  0
    0.0950   -8.8404    3.2292 C   0  0  0  0  0  0  0  0  0  0  0  0
   -0.9173   -8.4596    2.5152 C   0  0  0  0  0  0  0  0  0  0  0  0
   -1.0331   -7.2162    2.0653 C   0  0  0  0  0  0  0  0  0  0  0  0
   -0.0105   -6.3168    2.3081 C   0  0  0  0  0  0  0  0  0  0  0  0
    0.1465  -10.2446    3.6981 N   0  0  0  0  0  0  0  0  0  0  0  0
    1.1832  -10.8652    3.9851 C   0  0  0  0  0  0  0  0  0  0  0  0
    1.6719  -11.7411    3.1417 C   0  0  2  0  0  0  0  0  0  0  0  0
    1.4660  -13.1157    3.1707 C   0  0  0  0  0  0  0  0  0  0  0  0
    1.9190  -14.0641    2.1301 C   0  0  0  0  0  0  0  0  0  0  0  0
    1.7027  -15.4415    2.4256 C   0  0  0  0  0  0  0  0  0  0  0  0
    0.9339  -15.8712    3.4931 C   0  0  0  0  0  0  0  0  0  0  0  0
    0.3435  -14.9781    4.3001 C   0  0  0  0  0  0  0  0  0  0  0  0
    0.5546  -13.6554    4.1695 C   0  0  0  0  0  0  0  0  0  0  0  0
   -0.1095   -5.0655    1.7860 I   0  0  0  0  0  0  0  0  0  0  0  0
    2.6077  -11.3469    2.3632 C   0  0  0  0  0  0  0  0  0  0  0  0
    2.3330  -11.1419    0.9498 C   0  0  0  0  0  0  0  0  0  0  0  0
  3  7  1  0
  7  8  1  0
  9  8  1  1
  9 10  1  0
  6 16  1  0
  9 17  1  0
 17 18  1  0
  1  2  2  0
  2  6  1  0
  5  6  2  0
  4  5  1  0
  3  4  2  0
  1  3  1  0
 10 11  2  0
 11 12  1  0
 12 13  2  0
 13 14  1  0
 14 15  2  0
 10 15  1  0
M  END

$$$$
No_4768-/export/home/yangzhenyu/potential_scad_32_flow//YTHDC2/2024-12-06-03-22-00/
     RDKit          3D

 18 19  0  0  0  0  0  0  0  0999 V2000
    1.1787   -8.0297    3.5154 N   0  0  0  0  0  0  0  0  0  0  0  0
    1.0818   -9.0751    3.2053 C   0  0  0  0  0  0  0  0  0  0  0  0
    0.7576   -9.3725    1.9159 C   0  0  0  0  0  0  0  0  0  0  0  0
    0.7445  -10.8746    1.6491 C   0  0  0  0  0  0  0  0  0  0  0  0
    0.9910  -11.7526    2.6067 C   0  0  0  0  0  0  0  0  0  0  0  0
    1.4405  -11.4331    3.8064 C   0  0  0  0  0  0  0  0  0  0  0  0
    1.4304  -10.0463    4.1669 C   0  0  0  0  0  0  0  0  0  0  0  0
    1.1357   -6.7948    2.7839 C   0  0  0  0  0  0  0  0  0  0  0  0
    1.2086   -5.5150    3.2459 N   0  0  0  0  0  0  0  0  0  0  0  0
    1.2290   -6.8311    1.3103 N   0  0  0  0  0  0  0  0  0  0  0  0
    0.9516  -13.1920    2.2711 C   0  0  0  0  0  0  0  0  0  0  0  0
   -0.2551  -13.7262    2.3748 C   0  0  0  0  0  0  0  0  0  0  0  0
   -0.2220  -15.2132    2.3602 C   0  0  0  0  0  0  0  0  0  0  0  0
    0.9494  -15.9373    2.1474 C   0  0  0  0  0  0  0  0  0  0  0  0
    2.1948  -15.2952    2.0933 C   0  0  0  0  0  0  0  0  0  0  0  0
    2.2005  -13.8785    2.2220 C   0  0  0  0  0  0  0  0  0  0  0  0
    0.8885  -17.3274    2.2693 C   0  0  0  0  0  0  0  0  0  0  0  0
    1.6051  -18.0856    3.2487 C   0  0  0  0  0  0  0  0  0  0  0  0
  1  2  1  0
  1  8  2  3
  8  9  1  0
  8 10  1  0
  5 11  1  0
 14 17  1  0
 17 18  1  0
 11 12  2  0
 12 13  1  0
 13 14  2  0
 14 15  1  0
 15 16  2  0
 11 16  1  0
  2  3  2  0
  3  4  1  0
  4  5  2  0
  5  6  1  0
  6  7  2  0
  2  7  1  0
M  END

$$$$
No_4769-/export/home/yangzhenyu/potential_scad_32_flow//YTHDC2/2024-12-06-03-22-00/
     RDKit          3D

 19 19  0  0  1  0  0  0  0  0999 V2000
    1.1787   -8.0297    3.5154 O   0  0  0  0  0  0  0  0  0  0  0  0
    0.9969   -8.9689    3.0048 C   0  0  1  0  0  0  0  0  0  0  0  0
    0.9976   -8.9567    1.6341 C   0  0  2  0  0  0  0  0  0  0  0  0
    1.6062   -9.9071    0.9292 C   0  0  0  0  0  0  0  0  0  0  0  0
    2.1191  -10.9757    1.6503 C   0  0  0  0  0  0  0  0  0  0  0  0
    2.1177  -10.9891    3.0403 C   0  0  1  0  0  0  0  0  0  0  0  0
    1.5441   -9.8905    3.6897 C   0  0  0  0  0  0  0  0  0  0  0  0
    0.5010   -7.8165    1.0436 C   0  0  0  0  0  0  0  0  0  0  0  0
    1.0624   -6.6356    1.1779 O   0  0  0  0  0  0  0  0  0  0  0  0
   -0.4567   -7.7893    0.1161 O   0  0  0  0  0  0  0  0  0  0  0  0
    1.7929  -10.1188    4.9868 O   0  0  0  0  0  0  0  0  0  0  0  0
    2.6217  -12.1913    3.5600 O   0  0  0  0  0  0  0  0  0  0  0  0
   -1.6603   -7.2509    0.4166 C   0  0  0  0  0  0  0  0  0  0  0  0
   -1.7776   -6.1359   -0.0232 C   0  0  0  0  0  0  0  0  0  0  0  0
   -1.8915   -5.9450   -1.3202 O   0  0  0  0  0  0  0  0  0  0  0  0
   -1.8376   -5.0037    0.7203 O   0  0  0  0  0  0  0  0  0  0  0  0
   -2.1192   -3.9039    0.7349 C   0  0  0  0  0  0  0  0  0  0  0  0
   -3.3963   -3.5413    0.9720 C   0  0  0  0  0  0  0  0  0  0  0  0
   -1.1366   -2.8805    0.4159 C   0  0  0  0  0  0  0  0  0  0  0  0
  2  1  1  1
  2  3  1  0
  4  5  1  0
  2  7  1  0
  6  7  1  0
  3  8  1  1
  8  9  2  0
  8 10  1  0
  7 11  2  0
  6 12  1  6
 10 13  1  0
 13 14  1  0
 14 15  2  0
 14 16  1  0
 16 17  1  0
 17 18  1  0
 17 19  1  0
  3  4  1  0
  5  6  1  0
M  END

$$$$
No_4770-/export/home/yangzhenyu/potential_scad_32_flow//YTHDC2/2024-12-06-03-22-00/
     RDKit          3D

 20 21  0  0  0  0  0  0  0  0999 V2000
    1.1787   -8.0297    3.5154 C   0  0  0  0  0  0  0  0  0  0  0  0
    1.1048   -9.2215    3.2892 C   0  0  0  0  0  0  0  0  0  0  0  0
    1.2339   -9.7611    2.0189 C   0  0  0  0  0  0  0  0  0  0  0  0
    1.3583   -9.0036    0.9764 C   0  0  0  0  0  0  0  0  0  0  0  0
    1.5996   -7.6362    1.1311 C   0  0  0  0  0  0  0  0  0  0  0  0
    1.4830   -7.0928    2.3626 C   0  0  0  0  0  0  0  0  0  0  0  0
    1.1008  -11.2372    1.8542 I   0  0  0  0  0  0  0  0  0  0  0  0
    1.5604   -9.4702   -0.3426 O   0  0  0  0  0  0  0  0  0  0  0  0
    1.5276   -5.4033    2.6360 C   0  0  0  0  0  0  0  0  0  0  0  0
    1.1662   -4.7332    1.6242 O   0  0  0  0  0  0  0  0  0  0  0  0
    2.0847   -4.9889    3.5626 O   0  0  0  0  0  0  0  0  0  0  0  0
    0.9565  -10.0732    4.4061 Br  0  0  0  0  0  0  0  0  0  0  0  0
    0.7550   -8.9211   -1.4268 C   0  0  0  0  0  0  0  0  0  0  0  0
   -0.5860   -9.4589   -1.3602 C   0  0  0  0  0  0  0  0  0  0  0  0
   -1.4044   -8.9420   -2.3375 C   0  0  0  0  0  0  0  0  0  0  0  0
   -1.0442   -8.3386   -3.1641 C   0  0  0  0  0  0  0  0  0  0  0  0
   -1.0495   -8.4091   -4.4715 C   0  0  0  0  0  0  0  0  0  0  0  0
   -1.7534   -9.4841   -4.9486 C   0  0  0  0  0  0  0  0  0  0  0  0
   -2.4571  -10.2329   -4.0224 C   0  0  0  0  0  0  0  0  0  0  0  0
   -2.2356  -10.0680   -2.6635 C   0  0  0  0  0  0  0  0  0  0  0  0
  3  7  1  0
  4  8  1  0
  6  9  1  0
  9 10  2  0
  9 11  1  0
  2 12  1  0
  8 13  1  0
 13 14  1  0
 14 15  1  0
 15 16  2  0
 16 17  1  0
 17 18  2  0
 18 19  1  0
 19 20  2  0
 15 20  1  0
  1  2  2  0
  2  3  1  0
  3  4  2  0
  4  5  1  0
  5  6  2  0
  1  6  1  0
M  END

$$$$
No_4771-/export/home/yangzhenyu/potential_scad_32_flow//YTHDC2/2024-12-06-03-22-00/
     RDKit          3D

 18 19  0  0  1  0  0  0  0  0999 V2000
    1.1787   -8.0297    3.5154 C   0  0  0  0  0  0  0  0  0  0  0  0
    1.1048   -9.2215    3.2892 C   0  0  0  0  0  0  0  0  0  0  0  0
    1.3627  -10.1721    4.3044 C   0  0  0  0  0  0  0  0  0  0  0  0
    1.0682  -11.5187    4.0618 C   0  0  0  0  0  0  0  0  0  0  0  0
    0.6332  -11.9655    2.9682 C   0  0  0  0  0  0  0  0  0  0  0  0
    0.4776  -11.1308    1.9203 C   0  0  0  0  0  0  0  0  0  0  0  0
    0.7470   -9.8274    2.0368 C   0  0  0  0  0  0  0  0  0  0  0  0
    0.5536   -7.1314    2.6860 C   0  0  0  0  0  0  0  0  0  0  0  0
    0.2951   -7.6000    1.3275 C   0  0  0  0  0  0  0  0  0  0  0  0
    0.2693   -8.8631    1.0973 C   0  0  1  0  0  0  0  0  0  0  0  0
   -0.0513   -6.7125    0.4242 O   0  0  0  0  0  0  0  0  0  0  0  0
    0.4918  -13.3974    2.7285 N   0  0  0  0  0  0  0  0  0  0  0  0
    1.4292  -14.2937    2.9841 C   0  0  0  0  0  0  0  0  0  0  0  0
    1.0709  -15.6768    2.7741 C   0  0  0  0  0  0  0  0  0  0  0  0
   -0.0887  -16.1606    3.1368 C   0  0  0  0  0  0  0  0  0  0  0  0
    0.0180   -9.3066   -0.1843 F   0  0  0  0  0  0  0  0  0  0  0  0
   -1.0659  -15.6416    2.5323 C   0  0  0  0  0  0  0  0  0  0  0  0
   -2.2778  -16.2681    2.7769 C   0  0  0  0  0  0  0  0  0  0  0  0
  1  2  1  0
  8  9  1  0
  7 10  1  0
  9 10  1  0
  9 11  2  0
  5 12  1  0
 12 13  1  0
 13 14  1  0
 14 15  1  0
 10 16  1  6
 15 17  1  0
 17 18  2  0
  1  8  1  0
  2  3  2  0
  3  4  1  0
  4  5  2  0
  5  6  1  0
  6  7  2  0
  2  7  1  0
M  END

$$$$
No_4772-/export/home/yangzhenyu/potential_scad_32_flow//YTHDC2/2024-12-06-03-22-00/
     RDKit          3D

 17 18  0  0  0  0  0  0  0  0999 V2000
    1.1787   -8.0297    3.5154 C   0  0  0  0  0  0  0  0  0  0  0  0
    1.0491   -6.8434    2.9820 C   0  0  0  0  0  0  0  0  0  0  0  0
    0.9905   -9.0774    2.6527 C   0  0  0  0  0  0  0  0  0  0  0  0
    0.7897   -8.9519    1.3691 C   0  0  0  0  0  0  0  0  0  0  0  0
    0.7018   -7.7198    0.7892 C   0  0  0  0  0  0  0  0  0  0  0  0
    0.8918   -6.5957    1.6117 C   0  0  0  0  0  0  0  0  0  0  0  0
    1.0711  -10.4814    3.2282 C   0  0  0  0  0  0  0  0  0  0  0  0
   -0.1055  -11.1328    3.5223 C   0  0  0  0  0  0  0  0  0  0  0  0
   -1.2061  -10.3495    3.8837 C   0  0  0  0  0  0  0  0  0  0  0  0
   -2.2032  -10.6177    3.7847 C   0  0  0  0  0  0  0  0  0  0  0  0
   -2.6463  -11.9533    3.3844 C   0  0  0  0  0  0  0  0  0  0  0  0
   -3.9525  -12.4255    3.3120 C   0  0  0  0  0  0  0  0  0  0  0  0
   -4.9528  -11.7021    3.7996 C   0  0  0  0  0  0  0  0  0  0  0  0
   -6.2607  -12.3186    3.8515 C   0  0  0  0  0  0  0  0  0  0  0  0
   -6.3611  -13.6603    3.5004 C   0  0  0  0  0  0  0  0  0  0  0  0
   -5.3439  -14.3894    3.1145 C   0  0  0  0  0  0  0  0  0  0  0  0
   -4.0072  -13.7923    3.0428 C   0  0  0  0  0  0  0  0  0  0  0  0
  3  7  1  0
  7  8  1  0
  8  9  1  0
  9 10  2  3
 10 11  1  0
 11 12  1  0
 12 13  2  0
 13 14  1  0
 14 15  2  0
 15 16  1  0
 16 17  2  0
 12 17  1  0
  1  2  2  0
  2  6  1  0
  5  6  2  0
  4  5  1  0
  3  4  2  0
  1  3  1  0
M  END

$$$$
No_4773-/export/home/yangzhenyu/potential_scad_32_flow//YTHDC2/2024-12-06-03-22-00/
     RDKit          3D

 17 18  0  0  0  0  0  0  0  0999 V2000
    1.1787   -8.0297    3.5154 C   0  0  0  0  0  0  0  0  0  0  0  0
    1.0491   -6.8434    2.9820 C   0  0  0  0  0  0  0  0  0  0  0  0
    0.0950   -8.8404    3.2292 C   0  0  0  0  0  0  0  0  0  0  0  0
   -0.9173   -8.4596    2.5152 C   0  0  0  0  0  0  0  0  0  0  0  0
   -1.0331   -7.2162    2.0653 C   0  0  0  0  0  0  0  0  0  0  0  0
   -0.0105   -6.3168    2.3081 C   0  0  0  0  0  0  0  0  0  0  0  0
    0.1935  -10.3737    3.7416 C   0  0  0  0  0  0  0  0  0  0  0  0
    1.2406  -10.8901    4.0986 C   0  0  0  0  0  0  0  0  0  0  0  0
    1.1973  -12.3085    3.9531 C   0  0  0  0  0  0  0  0  0  0  0  0
    0.0747  -12.9277    3.6246 C   0  0  0  0  0  0  0  0  0  0  0  0
   -0.9472  -12.3441    3.2083 C   0  0  0  0  0  0  0  0  0  0  0  0
   -0.9569  -10.9394    3.2616 C   0  0  0  0  0  0  0  0  0  0  0  0
   -0.1387   -5.0202    1.8199 Cl  0  0  0  0  0  0  0  0  0  0  0  0
    0.1697  -14.5497    3.5835 O   0  0  0  0  0  0  0  0  0  0  0  0
    0.4228  -15.1409    2.4696 C   0  0  0  0  0  0  0  0  0  0  0  0
    0.5475  -16.4746    2.7360 C   0  0  0  0  0  0  0  0  0  0  0  0
    1.7331  -17.0607    2.3928 C   0  0  0  0  0  0  0  0  0  0  0  0
  3  7  1  0
  6 13  1  0
 10 14  1  0
 14 15  1  0
 15 16  1  0
 16 17  1  0
  1  2  2  0
  2  6  1  0
  5  6  2  0
  4  5  1  0
  3  4  2  0
  1  3  1  0
  7  8  2  0
  8  9  1  0
  9 10  2  0
 10 11  1  0
 11 12  2  0
  7 12  1  0
M  END

$$$$
No_4774-/export/home/yangzhenyu/potential_scad_32_flow//YTHDC2/2024-12-06-03-22-00/
     RDKit          3D

 19 20  0  0  1  0  0  0  0  0999 V2000
    1.1787   -8.0297    3.5154 N   0  0  0  0  0  0  0  0  0  0  0  0
    0.8669   -7.0905    2.8589 C   0  0  0  0  0  0  0  0  0  0  0  0
    1.0447   -7.3244    1.4123 C   0  0  0  0  0  0  0  0  0  0  0  0
    1.3746   -8.4389    1.0864 C   0  0  2  0  0  0  0  0  0  0  0  0
    1.6686   -9.1952    2.5608 C   0  0  0  0  0  0  0  0  0  0  0  0
    1.7474   -9.1250   -0.0219 C   0  0  0  0  0  0  0  0  0  0  0  0
    1.9068  -10.3463   -0.0501 O   0  0  0  0  0  0  0  0  0  0  0  0
    1.8035   -8.4780   -1.1067 O   0  0  0  0  0  0  0  0  0  0  0  0
    1.9494  -10.4560    2.8777 C   0  0  0  0  0  0  0  0  0  0  0  0
    1.0440  -11.1607    3.6903 C   0  0  1  0  0  0  0  0  0  0  0  0
   -0.1626  -10.7179    3.8322 C   0  0  0  0  0  0  0  0  0  0  0  0
    1.4485  -12.3921    4.0673 C   0  0  0  0  0  0  0  0  0  0  0  0
    0.8081  -13.3958    3.2147 C   0  0  2  0  0  0  0  0  0  0  0  0
    1.3148  -14.7416    3.2083 O   0  0  0  0  0  0  0  0  0  0  0  0
    1.0457  -15.4487    2.2357 C   0  0  1  0  0  0  0  0  0  0  0  0
    0.3653  -14.7915    1.2821 C   0  0  0  0  0  0  0  0  0  0  0  0
    0.2913  -13.3652    1.9187 C   0  0  0  0  0  0  0  0  0  0  0  0
    1.4974  -16.6692    2.1788 C   0  0  0  0  0  0  0  0  0  0  0  0
    0.9991  -17.6041    1.3404 C   0  0  0  0  0  0  0  0  0  0  0  0
  1  2  1  0
  2  3  2  0
  3  4  1  0
  1  5  2  0
  4  5  1  0
  4  6  1  6
  6  7  2  0
  6  8  1  0
  5  9  1  0
  9 10  1  0
 10 11  1  6
 10 12  1  0
 13 12  1  6
 13 14  1  0
 14 15  1  0
 15 16  1  0
 13 17  1  0
 16 17  1  0
 15 18  1  6
 18 19  2  0
M  END

$$$$
No_4775-/export/home/yangzhenyu/potential_scad_32_flow//YTHDC2/2024-12-06-03-22-00/
     RDKit          3D

 12 12  0  0  0  0  0  0  0  0999 V2000
    1.1787   -8.0297    3.5154 C   0  0  0  0  0  0  0  0  0  0  0  0
    1.1048   -9.2215    3.2892 C   0  0  0  0  0  0  0  0  0  0  0  0
    1.2339   -9.7611    2.0189 C   0  0  0  0  0  0  0  0  0  0  0  0
    1.4306   -8.9466    1.1170 C   0  0  0  0  0  0  0  0  0  0  0  0
    1.6532   -7.5949    1.1786 C   0  0  0  0  0  0  0  0  0  0  0  0
    1.4973   -7.0739    2.4258 C   0  0  0  0  0  0  0  0  0  0  0  0
    1.6907   -9.4669   -0.3972 C   0  0  0  0  0  0  0  0  0  0  0  0
    0.8065  -10.4257   -0.5870 O   0  0  0  0  0  0  0  0  0  0  0  0
    2.5855   -9.2258   -1.1040 O   0  0  0  0  0  0  0  0  0  0  0  0
    0.9053  -10.2065    4.3759 I   0  0  0  0  0  0  0  0  0  0  0  0
    1.5469   -5.6036    2.6832 Br  0  0  0  0  0  0  0  0  0  0  0  0
    1.2596  -11.1515    1.8457 Cl  0  0  0  0  0  0  0  0  0  0  0  0
  4  7  1  0
  7  8  2  0
  7  9  1  0
  2 10  1  0
  6 11  1  0
  3 12  1  0
  1  2  2  0
  2  3  1  0
  3  4  2  0
  4  5  1  0
  5  6  2  0
  1  6  1  0
M  END

$$$$
No_4776-/export/home/yangzhenyu/potential_scad_32_flow//YTHDC2/2024-12-06-03-22-00/
     RDKit          3D

 18 19  0  0  0  0  0  0  0  0999 V2000
    1.1787   -8.0297    3.5154 C   0  0  0  0  0  0  0  0  0  0  0  0
    1.0491   -6.8434    2.9820 C   0  0  0  0  0  0  0  0  0  0  0  0
    0.0950   -8.8404    3.2292 C   0  0  0  0  0  0  0  0  0  0  0  0
   -0.9173   -8.4596    2.5152 C   0  0  0  0  0  0  0  0  0  0  0  0
   -1.0331   -7.2162    2.0653 C   0  0  0  0  0  0  0  0  0  0  0  0
   -0.0105   -6.3168    2.3081 C   0  0  0  0  0  0  0  0  0  0  0  0
    0.1150   -4.9910    1.8495 C   0  0  0  0  0  0  0  0  0  0  0  0
   -0.1376   -4.7952    0.5550 C   0  0  0  0  0  0  0  0  0  0  0  0
   -0.9836   -3.7108    0.4454 C   0  0  0  0  0  0  0  0  0  0  0  0
   -1.0222   -2.6675    1.3784 C   0  0  0  0  0  0  0  0  0  0  0  0
   -0.2737   -3.2950    2.5609 C   0  0  0  0  0  0  0  0  0  0  0  0
    0.1356   -4.2467    2.8338 N   0  0  0  0  0  0  0  0  0  0  0  0
    0.0945  -10.1716    3.8264 C   0  0  0  0  0  0  0  0  0  0  0  0
    0.0446  -11.2956    3.0725 C   0  0  0  0  0  0  0  0  0  0  0  0
    1.0510  -11.7512    2.6512 C   0  0  0  0  0  0  0  0  0  0  0  0
    1.2419  -13.0946    2.0856 C   0  0  0  0  0  0  0  0  0  0  0  0
    0.2310  -13.8200    1.8546 C   0  0  0  0  0  0  0  0  0  0  0  0
   -0.9698  -13.4672    2.3394 C   0  0  0  0  0  0  0  0  0  0  0  0
  6  7  1  0
  3 13  1  0
 13 14  1  0
 14 15  1  0
 15 16  2  3
 16 17  1  0
 17 18  2  0
  1  2  2  0
  2  6  1  0
  5  6  2  0
  4  5  1  0
  3  4  2  0
  1  3  1  0
  7  8  2  0
  8  9  1  0
  9 10  2  0
 10 11  1  0
 11 12  2  0
  7 12  1  0
M  END

$$$$
No_4777-/export/home/yangzhenyu/potential_scad_32_flow//YTHDC2/2024-12-06-03-22-00/
     RDKit          3D

 18 19  0  0  0  0  0  0  0  0999 V2000
    1.1787   -8.0297    3.5154 C   0  0  0  0  0  0  0  0  0  0  0  0
    1.0491   -6.8434    2.9820 C   0  0  0  0  0  0  0  0  0  0  0  0
    0.9905   -9.0774    2.6527 C   0  0  0  0  0  0  0  0  0  0  0  0
    0.7897   -8.9519    1.3691 C   0  0  0  0  0  0  0  0  0  0  0  0
    0.7018   -7.7198    0.7892 C   0  0  0  0  0  0  0  0  0  0  0  0
    0.8918   -6.5957    1.6117 C   0  0  0  0  0  0  0  0  0  0  0  0
    1.0600  -10.5680    3.3321 C   0  0  0  0  0  0  0  0  0  0  0  0
    1.1634  -11.6086    2.5010 C   0  0  0  0  0  0  0  0  0  0  0  0
    1.3344  -12.8974    3.1596 C   0  0  0  0  0  0  0  0  0  0  0  0
    1.1355  -14.0095    2.4199 C   0  0  0  0  0  0  0  0  0  0  0  0
    0.2298  -14.2910    1.6470 C   0  0  0  0  0  0  0  0  0  0  0  0
    0.1730  -15.5424    0.9403 C   0  0  0  0  0  0  0  0  0  0  0  0
    0.7835  -16.3703    1.3623 C   0  0  0  0  0  0  0  0  0  0  0  0
    1.7864  -16.4297    2.4686 C   0  0  0  0  0  0  0  0  0  0  0  0
    1.9892  -15.1264    2.9865 C   0  0  0  0  0  0  0  0  0  0  0  0
    0.8553   -5.2629    1.1619 O   0  0  0  0  0  0  0  0  0  0  0  0
    2.7706  -17.6402    2.8268 C   0  0  0  0  0  0  0  0  0  0  0  0
    0.6031   -9.9817    0.4301 C   0  0  0  0  0  0  0  0  0  0  0  0
  1  2  1  0
  3  4  1  0
  2  6  1  0
  5  6  1  0
  3  7  1  0
  7  8  2  3
  8  9  1  0
  9 10  1  0
  6 16  2  0
 14 17  1  0
  4 18  1  0
  1  3  1  0
  4  5  1  0
 10 11  2  0
 11 12  1  0
 12 13  2  0
 13 14  1  0
 14 15  2  0
 10 15  1  0
M  END

$$$$
No_4778-/export/home/yangzhenyu/potential_scad_32_flow//YTHDC2/2024-12-06-03-22-00/
     RDKit          3D

 18 19  0  0  0  0  0  0  0  0999 V2000
    1.1787   -8.0297    3.5154 C   0  0  0  0  0  0  0  0  0  0  0  0
    1.0491   -6.8434    2.9820 C   0  0  0  0  0  0  0  0  0  0  0  0
    1.9985   -8.9840    2.8958 C   0  0  0  0  0  0  0  0  0  0  0  0
    1.9135  -10.3404    3.6266 C   0  0  0  0  0  0  0  0  0  0  0  0
    0.7479  -10.9191    3.7202 C   0  0  0  0  0  0  0  0  0  0  0  0
    0.2782   -6.7158    1.8352 C   0  0  0  0  0  0  0  0  0  0  0  0
    0.0493   -5.5581    1.3972 C   0  0  0  0  0  0  0  0  0  0  0  0
    0.7380  -12.2898    3.4040 C   0  0  0  0  0  0  0  0  0  0  0  0
   -0.2484  -12.7288    2.6169 C   0  0  0  0  0  0  0  0  0  0  0  0
   -1.4091  -12.0089    2.6651 C   0  0  0  0  0  0  0  0  0  0  0  0
   -1.4632  -10.7745    3.2245 C   0  0  0  0  0  0  0  0  0  0  0  0
   -0.3161  -10.1811    3.7919 C   0  0  0  0  0  0  0  0  0  0  0  0
    0.7946   -4.4410    1.8863 C   0  0  0  0  0  0  0  0  0  0  0  0
    1.6804   -4.5972    2.9252 C   0  0  0  0  0  0  0  0  0  0  0  0
    1.7745   -5.8463    3.4492 C   0  0  0  0  0  0  0  0  0  0  0  0
    0.6180   -3.1271    1.2487 Br  0  0  0  0  0  0  0  0  0  0  0  0
   -0.2430  -14.0305    2.1685 C   0  0  0  0  0  0  0  0  0  0  0  0
    0.8936  -14.7968    2.3732 C   0  0  0  0  0  0  0  0  0  0  0  0
  1  2  1  0
  1  3  1  0
  3  4  1  0
  4  5  1  0
 13 16  1  0
  9 17  1  0
 17 18  2  0
  5  8  2  0
  8  9  1  0
  9 10  2  0
 10 11  1  0
 11 12  2  0
  5 12  1  0
  2  6  2  0
  6  7  1  0
  7 13  2  0
 13 14  1  0
 14 15  2  0
  2 15  1  0
M  END

$$$$
No_4779-/export/home/yangzhenyu/potential_scad_32_flow//YTHDC2/2024-12-06-03-22-00/
     RDKit          3D

 18 18  0  0  1  0  0  0  0  0999 V2000
    1.1787   -8.0297    3.5154 N   0  0  0  0  0  0  0  0  0  0  0  0
    1.0818   -9.0751    3.2053 C   0  0  0  0  0  0  0  0  0  0  0  0
    0.7576   -9.3725    1.9159 C   0  0  0  0  0  0  0  0  0  0  0  0
    0.8823   -8.4917    1.0547 C   0  0  0  0  0  0  0  0  0  0  0  0
    0.9679   -8.9061   -0.3794 C   0  0  0  0  0  0  0  0  0  0  0  0
    1.4872   -7.0697    2.4366 C   0  0  0  0  0  0  0  0  0  0  0  0
    1.6331   -5.6300    2.9638 N   0  0  0  0  0  0  0  0  0  0  0  0
    1.2120   -7.2067    1.2516 C   0  0  0  0  0  0  0  0  0  0  0  0
   -0.0245   -8.3884   -1.1585 O   0  0  0  0  0  0  0  0  0  0  0  0
    1.3345  -10.0622   -0.7644 O   0  0  0  0  0  0  0  0  0  0  0  0
    1.0535  -10.2724    4.2855 C   0  0  0  0  0  0  0  0  0  0  0  0
    1.0283  -11.6635    3.7364 C   0  0  0  0  0  0  0  0  0  0  0  0
    0.5880  -12.0828    2.7889 C   0  0  2  0  0  0  0  0  0  0  0  0
   -0.8129  -11.9840    2.5854 C   0  0  0  0  0  0  0  0  0  0  0  0
   -1.4912  -11.3511    3.5202 C   0  0  0  0  0  0  0  0  0  0  0  0
    1.1802  -13.2562    2.0610 C   0  0  0  0  0  0  0  0  0  0  0  0
    1.2345  -14.3453    2.6363 C   0  0  0  0  0  0  0  0  0  0  0  0
    0.3544  -15.0937    2.9588 O   0  0  0  0  0  0  0  0  0  0  0  0
  4  5  1  0
  6  7  1  0
  5  9  2  0
  5 10  1  0
  2 11  1  0
 11 12  2  3
 12 13  1  0
 13 14  1  0
 14 15  2  0
 13 16  1  1
 16 17  1  0
 17 18  2  0
  1  2  2  0
  2  3  1  0
  3  4  2  0
  4  8  1  0
  6  8  2  0
  1  6  1  0
M  END

$$$$
No_4780-/export/home/yangzhenyu/potential_scad_32_flow//YTHDC2/2024-12-06-03-22-00/
     RDKit          3D

 17 18  0  0  1  0  0  0  0  0999 V2000
    1.1787   -8.0297    3.5154 C   0  0  0  0  0  0  0  0  0  0  0  0
    1.0491   -6.8434    2.9820 C   0  0  0  0  0  0  0  0  0  0  0  0
    1.9985   -8.9840    2.8958 C   0  0  1  0  0  0  0  0  0  0  0  0
    1.9135  -10.3404    3.6266 C   0  0  0  0  0  0  0  0  0  0  0  0
    1.3291  -11.3908    3.0222 C   0  0  0  0  0  0  0  0  0  0  0  0
    1.0344  -11.3281    1.7959 C   0  0  0  0  0  0  0  0  0  0  0  0
    0.5050   -6.6553    1.7492 C   0  0  0  0  0  0  0  0  0  0  0  0
    1.6364  -10.2524    0.9337 C   0  0  0  0  0  0  0  0  0  0  0  0
    1.7369   -9.0242    1.6103 C   0  0  0  0  0  0  0  0  0  0  0  0
    0.9461   -5.5965    0.9838 C   0  0  0  0  0  0  0  0  0  0  0  0
    1.7089  -12.6309    3.5380 C   0  0  0  0  0  0  0  0  0  0  0  0
   -0.0180   -4.6549    0.6971 C   0  0  0  0  0  0  0  0  0  0  0  0
   -0.6912   -4.1449    1.6175 C   0  0  0  0  0  0  0  0  0  0  0  0
   -0.0132   -3.2246    2.5644 C   0  0  0  0  0  0  0  0  0  0  0  0
    1.2577  -13.7666    2.6274 C   0  0  0  0  0  0  0  0  0  0  0  0
    0.7313  -13.6260    1.4706 C   0  0  0  0  0  0  0  0  0  0  0  0
    0.7948  -12.3884    0.8844 C   0  0  0  0  0  0  0  0  0  0  0  0
  1  2  1  0
  3  1  1  1
  3  4  1  0
  4  5  1  0
  2  7  1  0
  6  8  1  0
  3  9  1  0
  8  9  1  0
  7 10  1  0
 10 12  1  0
 12 13  1  0
 13 14  1  0
  5  6  2  0
  6 17  1  0
 16 17  2  0
 15 16  1  0
 11 15  2  0
  5 11  1  0
M  END

$$$$
No_4781-/export/home/yangzhenyu/potential_scad_32_flow//YTHDC2/2024-12-06-03-22-00/
     RDKit          3D

 18 18  0  0  0  0  0  0  0  0999 V2000
    1.1787   -8.0297    3.5154 C   0  0  0  0  0  0  0  0  0  0  0  0
    1.1048   -9.2215    3.2892 C   0  0  0  0  0  0  0  0  0  0  0  0
    1.3627  -10.1721    4.3044 C   0  0  0  0  0  0  0  0  0  0  0  0
    1.7354  -11.4730    3.9023 C   0  0  0  0  0  0  0  0  0  0  0  0
    1.8080  -11.8127    2.7216 C   0  0  0  0  0  0  0  0  0  0  0  0
    1.5854  -11.0021    1.7249 C   0  0  0  0  0  0  0  0  0  0  0  0
    1.3573   -9.7389    1.9287 C   0  0  0  0  0  0  0  0  0  0  0  0
    1.1102   -8.8712    0.9017 C   0  0  0  0  0  0  0  0  0  0  0  0
    0.5299   -7.6926    1.0325 O   0  0  0  0  0  0  0  0  0  0  0  0
    1.3970   -9.2634   -0.4035 O   0  0  0  0  0  0  0  0  0  0  0  0
    2.1581  -13.4121    2.2886 C   0  0  0  0  0  0  0  0  0  0  0  0
    1.9907  -14.3133    3.1488 N   0  0  0  0  0  0  0  0  0  0  0  0
    2.4895  -13.5983    1.0593 O   0  0  0  0  0  0  0  0  0  0  0  0
    2.0976  -15.6536    2.7791 C   0  0  0  0  0  0  0  0  0  0  0  0
    1.1784  -16.2218    2.3974 C   0  0  0  0  0  0  0  0  0  0  0  0
   -0.0663  -15.7999    2.3320 C   0  0  0  0  0  0  0  0  0  0  0  0
   -1.1076  -16.4885    1.8702 C   0  0  0  0  0  0  0  0  0  0  0  0
   -0.9163  -17.7462    1.3944 C   0  0  0  0  0  0  0  0  0  0  0  0
  1  2  1  0
  7  8  1  0
  8  9  2  0
  8 10  1  0
  5 11  1  0
 11 12  1  0
 11 13  2  0
 12 14  1  0
 14 15  1  0
 15 16  1  0
 16 17  2  3
 17 18  1  0
  2  3  2  0
  3  4  1  0
  4  5  2  0
  5  6  1  0
  6  7  2  0
  2  7  1  0
M  END

$$$$
No_4782-/export/home/yangzhenyu/potential_scad_32_flow//YTHDC2/2024-12-06-03-22-00/
     RDKit          3D

 18 19  0  0  1  0  0  0  0  0999 V2000
    1.1787   -8.0297    3.5154 C   0  0  0  0  0  0  0  0  0  0  0  0
    1.0491   -6.8434    2.9820 C   0  0  0  0  0  0  0  0  0  0  0  0
    0.9905   -9.0774    2.6527 C   0  0  0  0  0  0  0  0  0  0  0  0
    0.7897   -8.9519    1.3691 C   0  0  0  0  0  0  0  0  0  0  0  0
    0.7018   -7.7198    0.7892 C   0  0  0  0  0  0  0  0  0  0  0  0
    0.8918   -6.5957    1.6117 C   0  0  0  0  0  0  0  0  0  0  0  0
    1.0711  -10.4814    3.2282 C   0  0  2  0  0  0  0  0  0  0  0  0
    2.1432  -11.0138    3.5962 N   0  0  0  0  0  0  0  0  0  0  0  0
    0.0242  -11.2588    3.2421 C   0  0  0  0  0  0  0  0  0  0  0  0
    0.3273  -12.6679    3.3528 C   0  0  0  0  0  0  0  0  0  0  0  0
    1.8671  -12.4182    3.6487 N   0  0  0  0  0  0  0  0  0  0  0  0
    0.8267   -5.2884    1.1013 O   0  0  0  0  0  0  0  0  0  0  0  0
   -0.2580   -4.4946    1.2362 C   0  0  0  0  0  0  0  0  0  0  0  0
    0.0000  -13.8453    3.4666 C   0  0  0  0  0  0  0  0  0  0  0  0
   -0.0198  -14.5318    2.1741 C   0  0  0  0  0  0  0  0  0  0  0  0
    0.1077  -14.0174    1.1329 C   0  0  0  0  0  0  0  0  0  0  0  0
   -1.0885  -13.7225    0.4353 C   0  0  0  0  0  0  0  0  0  0  0  0
   -1.0851  -12.9107   -0.7999 C   0  0  0  0  0  0  0  0  0  0  0  0
  7  3  1  6
  7  8  1  0
  7  9  1  0
  9 10  2  0
  8 11  2  0
 10 11  1  0
  6 12  1  0
 12 13  1  0
 10 14  1  0
 14 15  1  0
 15 16  1  0
 16 17  2  3
 17 18  1  0
  1  2  2  0
  2  6  1  0
  5  6  2  0
  4  5  1  0
  3  4  2  0
  1  3  1  0
M  END

$$$$
No_4783-/export/home/yangzhenyu/potential_scad_32_flow//YTHDC2/2024-12-06-03-22-00/
     RDKit          3D

 20 21  0  0  1  0  0  0  0  0999 V2000
    1.1787   -8.0297    3.5154 C   0  0  0  0  0  0  0  0  0  0  0  0
    1.0491   -6.8434    2.9820 C   0  0  0  0  0  0  0  0  0  0  0  0
    0.9905   -9.0774    2.6527 C   0  0  0  0  0  0  0  0  0  0  0  0
    0.7897   -8.9519    1.3691 C   0  0  0  0  0  0  0  0  0  0  0  0
    0.7018   -7.7198    0.7892 C   0  0  0  0  0  0  0  0  0  0  0  0
    0.8918   -6.5957    1.6117 C   0  0  0  0  0  0  0  0  0  0  0  0
    1.0998  -10.4710    3.2437 C   0  0  0  0  0  0  0  0  0  0  0  0
    0.0472  -11.2546    3.3963 C   0  0  0  0  0  0  0  0  0  0  0  0
    0.1622  -12.5732    3.4140 C   0  0  0  0  0  0  0  0  0  0  0  0
    1.4182  -13.1957    3.4048 C   0  0  0  0  0  0  0  0  0  0  0  0
    2.5550  -12.3947    3.0877 C   0  0  0  0  0  0  0  0  0  0  0  0
    2.4166  -11.0849    2.9699 C   0  0  0  0  0  0  0  0  0  0  0  0
    0.8571   -5.2495    1.2086 C   0  0  0  0  0  0  0  0  0  0  0  0
    1.4168  -14.5629    3.3677 Cl  0  0  0  0  0  0  0  0  0  0  0  0
    0.2047   -4.2861    2.0260 O   0  0  0  0  0  0  0  0  0  0  0  0
    0.9557   -3.1930    2.4175 C   0  0  2  0  0  0  0  0  0  0  0  0
   -1.2033  -10.6000    3.5133 Cl  0  0  0  0  0  0  0  0  0  0  0  0
    1.4417   -3.4753    3.7651 C   0  0  0  0  0  0  0  0  0  0  0  0
    0.1981   -2.0024    2.2922 C   0  0  0  0  0  0  0  0  0  0  0  0
    0.7611   -1.0746    1.7509 C   0  0  0  0  0  0  0  0  0  0  0  0
  3  7  1  0
  6 13  1  0
 10 14  1  0
 13 15  1  0
 15 16  1  0
  8 17  1  0
 16 18  1  1
 16 19  1  0
 19 20  1  0
  1  2  2  0
  2  6  1  0
  5  6  2  0
  4  5  1  0
  3  4  2  0
  1  3  1  0
  7  8  2  0
  8  9  1  0
  9 10  2  0
 10 11  1  0
 11 12  2  0
  7 12  1  0
M  END

$$$$
No_4784-/export/home/yangzhenyu/potential_scad_32_flow//YTHDC2/2024-12-06-03-22-00/
     RDKit          3D

 18 18  0  0  0  0  0  0  0  0999 V2000
    1.1787   -8.0297    3.5154 C   0  0  0  0  0  0  0  0  0  0  0  0
    1.1048   -9.2215    3.2892 C   0  0  0  0  0  0  0  0  0  0  0  0
    1.3627  -10.1721    4.3044 C   0  0  0  0  0  0  0  0  0  0  0  0
    2.3720  -10.8948    4.2468 C   0  0  0  0  0  0  0  0  0  0  0  0
    1.0579   -7.0441    2.4219 C   0  0  0  0  0  0  0  0  0  0  0  0
    0.8578   -7.4970    1.1686 C   0  0  0  0  0  0  0  0  0  0  0  0
    0.7382   -8.7683    0.8754 C   0  0  0  0  0  0  0  0  0  0  0  0
    0.8882   -9.7347    1.9238 C   0  0  0  0  0  0  0  0  0  0  0  0
    0.9437  -11.0299    1.7005 C   0  0  0  0  0  0  0  0  0  0  0  0
    1.9466  -11.5929    1.1835 O   0  0  0  0  0  0  0  0  0  0  0  0
   -0.1390  -11.7787    1.8277 O   0  0  0  0  0  0  0  0  0  0  0  0
    1.2003   -5.5985    2.6872 O   0  0  0  0  0  0  0  0  0  0  0  0
    3.5415  -10.3801    5.0512 O   0  0  0  0  0  0  0  0  0  0  0  0
    0.5875   -9.2375   -0.4033 C   0  0  0  0  0  0  0  0  0  0  0  0
    1.3811   -9.0497   -1.4109 O   0  0  0  0  0  0  0  0  0  0  0  0
   -0.7296   -9.5086   -0.7425 O   0  0  0  0  0  0  0  0  0  0  0  0
    2.6309  -12.0072    3.8121 O   0  0  0  0  0  0  0  0  0  0  0  0
    0.4402   -4.8116    2.8786 C   0  0  0  0  0  0  0  0  0  0  0  0
  2  3  1  0
  3  4  1  0
  8  9  1  0
  9 10  1  0
  9 11  2  0
  5 12  1  0
  4 13  1  0
  7 14  1  0
 14 15  2  0
 14 16  1  0
  4 17  2  0
 12 18  1  0
  1  2  2  0
  2  8  1  0
  7  8  2  0
  6  7  1  0
  5  6  2  0
  1  5  1  0
M  END

$$$$
No_4785-/export/home/yangzhenyu/potential_scad_32_flow//YTHDC2/2024-12-06-03-22-00/
     RDKit          3D

 18 20  0  0  0  0  0  0  0  0999 V2000
    1.1787   -8.0297    3.5154 C   0  0  0  0  0  0  0  0  0  0  0  0
    1.0491   -6.8434    2.9820 C   0  0  0  0  0  0  0  0  0  0  0  0
    0.0950   -8.8404    3.2292 C   0  0  0  0  0  0  0  0  0  0  0  0
   -0.9173   -8.4596    2.5152 C   0  0  0  0  0  0  0  0  0  0  0  0
   -1.0331   -7.2162    2.0653 C   0  0  0  0  0  0  0  0  0  0  0  0
   -0.0105   -6.3168    2.3081 C   0  0  0  0  0  0  0  0  0  0  0  0
    0.1465  -10.2446    3.6981 C   0  0  0  0  0  0  0  0  0  0  0  0
    1.2433  -10.8239    4.0166 C   0  0  0  0  0  0  0  0  0  0  0  0
    1.6493  -11.8557    3.2298 C   0  0  0  0  0  0  0  0  0  0  0  0
    0.6072  -12.5513    2.5842 C   0  0  0  0  0  0  0  0  0  0  0  0
    0.8332  -13.8591    1.9203 C   0  0  0  0  0  0  0  0  0  0  0  0
    2.1336  -14.2971    1.8456 C   0  0  0  0  0  0  0  0  0  0  0  0
   -0.6307  -12.0045    2.5097 C   0  0  0  0  0  0  0  0  0  0  0  0
   -0.8905  -10.8771    3.0765 C   0  0  0  0  0  0  0  0  0  0  0  0
   -0.0838  -14.5039    1.1367 C   0  0  0  0  0  0  0  0  0  0  0  0
    0.1322  -15.6485    0.5853 C   0  0  0  0  0  0  0  0  0  0  0  0
    1.4146  -16.1515    0.6447 C   0  0  0  0  0  0  0  0  0  0  0  0
    2.4307  -15.5037    1.2842 C   0  0  0  0  0  0  0  0  0  0  0  0
  3  7  1  0
 10 11  1  0
  7  8  2  0
  8  9  1  0
  9 10  2  0
 10 13  1  0
 13 14  2  0
  7 14  1  0
 11 12  2  0
 12 18  1  0
 17 18  2  0
 16 17  1  0
 15 16  2  0
 11 15  1  0
  1  2  2  0
  2  6  1  0
  5  6  2  0
  4  5  1  0
  3  4  2  0
  1  3  1  0
M  END

$$$$
No_4786-/export/home/yangzhenyu/potential_scad_32_flow//YTHDC2/2024-12-06-03-22-00/
     RDKit          3D

 19 20  0  0  0  0  0  0  0  0999 V2000
    1.1787   -8.0297    3.5154 C   0  0  0  0  0  0  0  0  0  0  0  0
    1.1048   -9.2215    3.2892 C   0  0  0  0  0  0  0  0  0  0  0  0
    1.3627  -10.1721    4.3044 C   0  0  0  0  0  0  0  0  0  0  0  0
    1.7354  -11.4730    3.9023 C   0  0  0  0  0  0  0  0  0  0  0  0
    1.8080  -11.8127    2.7216 C   0  0  0  0  0  0  0  0  0  0  0  0
    1.5854  -11.0021    1.7249 C   0  0  0  0  0  0  0  0  0  0  0  0
    1.3573   -9.7389    1.9287 C   0  0  0  0  0  0  0  0  0  0  0  0
    1.2865   -8.8078    0.9161 C   0  0  0  0  0  0  0  0  0  0  0  0
    0.9210   -7.5140    1.1674 C   0  0  0  0  0  0  0  0  0  0  0  0
    1.0097   -7.0192    2.4369 C   0  0  0  0  0  0  0  0  0  0  0  0
    2.0228  -13.2586    2.4222 S   0  0  0  0  0  0  0  0  0  0  0  0
    3.0590  -13.6032    1.5259 O   0  0  0  0  0  0  0  0  0  0  0  0
    2.3430  -14.1731    3.7248 O   0  0  0  0  0  0  0  0  0  0  0  0
    0.8661   -5.6115    2.7135 C   0  0  0  0  0  0  0  0  0  0  0  0
   -0.2051   -4.9522    2.2172 N   0  0  0  0  0  0  0  0  0  0  0  0
   -1.3658   -5.3889    2.1690 C   0  0  0  0  0  0  0  0  0  0  0  0
   -2.3428   -4.4406    2.1867 C   0  0  0  0  0  0  0  0  0  0  0  0
    1.9568   -5.0462    3.2877 O   0  0  0  0  0  0  0  0  0  0  0  0
   -3.4786   -4.7472    2.1720 C   0  0  0  0  0  0  0  0  0  0  0  0
  5 11  1  0
 11 12  2  0
 11 13  2  0
 10 14  1  0
 14 15  1  0
 15 16  1  0
 16 17  1  0
 14 18  2  0
 17 19  2  0
  1  2  2  0
  7  8  2  0
  8  9  1  0
  9 10  2  0
  1 10  1  0
  2  3  1  0
  3  4  2  0
  4  5  1  0
  5  6  2  0
  6  7  1  0
  2  7  1  0
M  END

$$$$
No_4787-/export/home/yangzhenyu/potential_scad_32_flow//YTHDC2/2024-12-06-03-22-00/
     RDKit          3D

 18 19  0  0  0  0  0  0  0  0999 V2000
    1.1787   -8.0297    3.5154 C   0  0  0  0  0  0  0  0  0  0  0  0
    1.1048   -9.2215    3.2892 C   0  0  0  0  0  0  0  0  0  0  0  0
    1.2339   -9.7611    2.0189 C   0  0  0  0  0  0  0  0  0  0  0  0
    1.1954  -11.2312    1.8661 C   0  0  0  0  0  0  0  0  0  0  0  0
    1.2996  -11.5815    0.5387 C   0  0  0  0  0  0  0  0  0  0  0  0
    0.9270   -7.0442    2.4967 C   0  0  0  0  0  0  0  0  0  0  0  0
    0.9803   -7.6034    1.0978 C   0  0  0  0  0  0  0  0  0  0  0  0
    1.1096   -8.9244    0.8670 C   0  0  0  0  0  0  0  0  0  0  0  0
    1.0761  -11.9547    2.9012 C   0  0  0  0  0  0  0  0  0  0  0  0
    0.5875  -12.9955    2.7625 C   0  0  0  0  0  0  0  0  0  0  0  0
    0.4818  -13.7074    1.4940 C   0  0  0  0  0  0  0  0  0  0  0  0
    0.0679  -14.9645    1.2758 C   0  0  0  0  0  0  0  0  0  0  0  0
    0.8501  -12.8577    0.4211 C   0  0  0  0  0  0  0  0  0  0  0  0
    0.9911   -5.5961    2.6396 Cl  0  0  0  0  0  0  0  0  0  0  0  0
   -0.7847  -15.3500    0.3994 C   0  0  0  0  0  0  0  0  0  0  0  0
   -1.5186  -16.2085    0.6364 C   0  0  0  0  0  0  0  0  0  0  0  0
   -1.3067  -17.1402    1.6057 C   0  0  0  0  0  0  0  0  0  0  0  0
   -0.4978  -16.8536    2.6630 C   0  0  0  0  0  0  0  0  0  0  0  0
  3  4  1  0
 11 12  1  0
  6 14  1  0
 12 15  1  0
 15 16  2  3
 16 17  1  0
 17 18  2  0
  1  2  2  0
  2  3  1  0
  3  8  2  0
  7  8  1  0
  6  7  2  0
  1  6  1  0
  4  5  2  0
  5 13  1  0
 11 13  2  0
 10 11  1  0
  9 10  2  0
  4  9  1  0
M  END

$$$$
No_4788-/export/home/yangzhenyu/potential_scad_32_flow//YTHDC2/2024-12-06-03-22-00/
     RDKit          3D

 18 19  0  0  0  0  0  0  0  0999 V2000
    1.1787   -8.0297    3.5154 C   0  0  0  0  0  0  0  0  0  0  0  0
    1.1048   -9.2215    3.2892 C   0  0  0  0  0  0  0  0  0  0  0  0
    1.2339   -9.7611    2.0189 C   0  0  0  0  0  0  0  0  0  0  0  0
    1.3583   -9.0036    0.9764 C   0  0  0  0  0  0  0  0  0  0  0  0
    1.5996   -7.6362    1.1311 C   0  0  0  0  0  0  0  0  0  0  0  0
    1.4830   -7.0928    2.3626 C   0  0  0  0  0  0  0  0  0  0  0  0
    1.5395   -5.7300    2.6182 C   0  0  0  0  0  0  0  0  0  0  0  0
    1.1969  -11.3760    1.8433 C   0  0  0  0  0  0  0  0  0  0  0  0
    0.2951  -11.9827    2.0623 C   0  0  0  0  0  0  0  0  0  0  0  0
    0.2264  -13.3724    1.9493 C   0  0  0  0  0  0  0  0  0  0  0  0
   -0.6651  -14.1398    1.6389 C   0  0  0  0  0  0  0  0  0  0  0  0
   -1.9495  -13.5954    1.3434 C   0  0  0  0  0  0  0  0  0  0  0  0
   -2.0595  -12.1565    1.3693 C   0  0  0  0  0  0  0  0  0  0  0  0
   -0.9785  -11.3666    1.6865 C   0  0  0  0  0  0  0  0  0  0  0  0
    1.5855  -14.0233    2.1924 C   0  0  0  0  0  0  0  0  0  0  0  0
    1.6650  -15.4636    2.0887 N   0  0  0  0  0  0  0  0  0  0  0  0
    1.3100  -16.2248    3.0819 C   0  0  0  0  0  0  0  0  0  0  0  0
    1.4702  -17.5974    3.1695 O   0  0  0  0  0  0  0  0  0  0  0  0
  6  7  1  0
  3  8  1  0
 10 15  1  0
 15 16  1  0
 16 17  1  0
 17 18  2  0
  8  9  1  0
  1  2  2  0
  2  3  1  0
  3  4  2  0
  4  5  1  0
  5  6  2  0
  1  6  1  0
  9 10  2  0
 10 11  1  0
 11 12  2  0
 12 13  1  0
 13 14  2  0
  9 14  1  0
M  END

$$$$
No_4789-/export/home/yangzhenyu/potential_scad_32_flow//YTHDC2/2024-12-06-03-22-00/
     RDKit          3D

 13 13  0  0  1  0  0  0  0  0999 V2000
    1.1787   -8.0297    3.5154 F   0  0  0  0  0  0  0  0  0  0  0  0
    0.5289   -7.6579    2.7015 C   0  0  1  0  0  0  0  0  0  0  0  0
    0.4653   -6.2883    2.5618 C   0  0  0  0  0  0  0  0  0  0  0  0
   -0.5325   -5.7681    1.7509 C   0  0  0  0  0  0  0  0  0  0  0  0
   -0.6233   -4.3613    1.4381 C   0  0  0  0  0  0  0  0  0  0  0  0
    0.9175   -8.5266    1.5516 C   0  0  0  0  0  0  0  0  0  0  0  0
    1.1123   -9.7610    1.5569 C   0  0  0  0  0  0  0  0  0  0  0  0
    1.9156  -10.3643    0.6150 C   0  0  0  0  0  0  0  0  0  0  0  0
    2.6316   -9.5387   -0.2048 O   0  0  0  0  0  0  0  0  0  0  0  0
    1.9950  -11.6007    0.2741 O   0  0  0  0  0  0  0  0  0  0  0  0
    0.2711   -3.5015    1.9032 C   0  0  0  0  0  0  0  0  0  0  0  0
    1.4114   -4.0152    2.6591 C   0  0  0  0  0  0  0  0  0  0  0  0
    1.4561   -5.3507    2.9972 C   0  0  0  0  0  0  0  0  0  0  0  0
  2  1  1  1
  2  3  1  0
  2  6  1  0
  6  7  1  0
  7  8  1  0
  8  9  1  0
  8 10  2  0
  3  4  2  0
  4  5  1  0
  5 11  2  0
 11 12  1  0
 12 13  2  0
  3 13  1  0
M  END

$$$$
No_4790-/export/home/yangzhenyu/potential_scad_32_flow//YTHDC2/2024-12-06-03-22-00/
     RDKit          3D

 18 19  0  0  0  0  0  0  0  0999 V2000
    1.1787   -8.0297    3.5154 C   0  0  0  0  0  0  0  0  0  0  0  0
    1.0491   -6.8434    2.9820 C   0  0  0  0  0  0  0  0  0  0  0  0
    2.0004   -8.9805    3.0498 C   0  0  0  0  0  0  0  0  0  0  0  0
    2.3555   -9.0813    1.8033 C   0  0  0  0  0  0  0  0  0  0  0  0
    1.5516   -6.8448    1.5633 C   0  0  0  0  0  0  0  0  0  0  0  0
    2.2171   -7.9366    1.0002 C   0  0  0  0  0  0  0  0  0  0  0  0
    2.0997  -10.4536    3.8994 C   0  0  0  0  0  0  0  0  0  0  0  0
    1.8153  -11.4343    3.3001 C   0  0  0  0  0  0  0  0  0  0  0  0
    2.0764  -12.6570    4.0763 C   0  0  0  0  0  0  0  0  0  0  0  0
    1.7253  -13.8393    3.3305 C   0  0  0  0  0  0  0  0  0  0  0  0
    1.1947  -13.9054    2.1850 C   0  0  0  0  0  0  0  0  0  0  0  0
    1.0679  -12.7468    1.3986 C   0  0  0  0  0  0  0  0  0  0  0  0
    1.3769  -11.5510    1.9481 C   0  0  0  0  0  0  0  0  0  0  0  0
    2.5465   -7.8348   -0.3038 Cl  0  0  0  0  0  0  0  0  0  0  0  0
    1.0135  -15.1793    1.5349 C   0  0  0  0  0  0  0  0  0  0  0  0
    0.0122  -15.2788    0.6393 C   0  0  0  0  0  0  0  0  0  0  0  0
   -0.1225  -16.4654   -0.0871 O   0  0  0  0  0  0  0  0  0  0  0  0
   -0.8943  -14.2787    0.1721 C   0  0  0  0  0  0  0  0  0  0  0  0
  3  7  1  0
  6 14  1  0
 11 15  1  0
 15 16  2  3
 16 17  1  0
 16 18  1  0
  7  8  1  0
  8  9  2  0
  9 10  1  0
 10 11  2  0
 11 12  1  0
 12 13  2  0
  8 13  1  0
  1  2  2  0
  2  5  1  0
  5  6  2  0
  4  6  1  0
  3  4  2  0
  1  3  1  0
M  END

$$$$
No_4791-/export/home/yangzhenyu/potential_scad_32_flow//YTHDC2/2024-12-06-03-22-00/
     RDKit          3D

 19 19  0  0  0  0  0  0  0  0999 V2000
    1.1787   -8.0297    3.5154 C   0  0  0  0  0  0  0  0  0  0  0  0
    1.0491   -6.8434    2.9820 C   0  0  0  0  0  0  0  0  0  0  0  0
    1.9985   -8.9840    2.8958 C   0  0  0  0  0  0  0  0  0  0  0  0
    1.9135  -10.3404    3.6266 C   0  0  0  0  0  0  0  0  0  0  0  0
    2.2847  -10.5440    4.7936 O   0  0  0  0  0  0  0  0  0  0  0  0
    1.5992  -11.4789    2.9217 N   0  0  0  0  0  0  0  0  0  0  0  0
    0.3668   -6.7240    1.7967 C   0  0  0  0  0  0  0  0  0  0  0  0
    0.1776   -5.4614    1.2837 C   0  0  0  0  0  0  0  0  0  0  0  0
    0.8605   -4.3293    1.9242 C   0  0  0  0  0  0  0  0  0  0  0  0
    1.6299   -4.5278    3.1205 C   0  0  0  0  0  0  0  0  0  0  0  0
    1.6487   -5.7631    3.6716 C   0  0  0  0  0  0  0  0  0  0  0  0
    1.7096  -12.7394    3.3995 C   0  0  0  0  0  0  0  0  0  0  0  0
    1.2032  -13.7608    2.5377 C   0  0  0  0  0  0  0  0  0  0  0  0
    1.2312  -15.0971    3.0893 O   0  0  0  0  0  0  0  0  0  0  0  0
    0.8975  -16.1840    2.3979 C   0  0  0  0  0  0  0  0  0  0  0  0
    0.7299  -13.6323    1.3811 O   0  0  0  0  0  0  0  0  0  0  0  0
    0.7144   -2.8679    1.2337 Br  0  0  0  0  0  0  0  0  0  0  0  0
    1.9063  -16.8507    1.9858 C   0  0  0  0  0  0  0  0  0  0  0  0
    2.5930  -17.5087    2.6045 C   0  0  0  0  0  0  0  0  0  0  0  0
  1  2  1  0
  1  3  1  0
  3  4  1  0
  4  5  2  0
  4  6  1  0
  6 12  1  0
 12 13  1  0
 13 14  1  0
 14 15  1  0
 13 16  2  0
  9 17  1  0
 15 18  1  0
 18 19  1  0
  2  7  2  0
  7  8  1  0
  8  9  2  0
  9 10  1  0
 10 11  2  0
  2 11  1  0
M  END

$$$$
No_4792-/export/home/yangzhenyu/potential_scad_32_flow//YTHDC2/2024-12-06-03-22-00/
     RDKit          3D

 20 20  0  0  1  0  0  0  0  0999 V2000
    1.1787   -8.0297    3.5154 C   0  0  0  0  0  0  0  0  0  0  0  0
    1.1048   -9.2215    3.2892 C   0  0  0  0  0  0  0  0  0  0  0  0
    1.0239   -9.7790    2.0239 C   0  0  0  0  0  0  0  0  0  0  0  0
    1.1393   -9.0211    0.9686 C   0  0  0  0  0  0  0  0  0  0  0  0
    1.4051   -7.6500    1.1251 C   0  0  0  0  0  0  0  0  0  0  0  0
    1.4868   -7.1041    2.3534 C   0  0  0  0  0  0  0  0  0  0  0  0
    0.9659  -10.1420    4.4543 C   0  0  0  0  0  0  0  0  0  0  0  0
    0.7774  -11.6757    3.9967 O   0  0  0  0  0  0  0  0  0  0  0  0
    1.1560   -9.5195   -0.3331 C   0  0  0  0  0  0  0  0  0  0  0  0
    0.3759  -10.6056   -0.4611 O   0  0  0  0  0  0  0  0  0  0  0  0
    1.6408   -9.0481   -1.3750 O   0  0  0  0  0  0  0  0  0  0  0  0
    0.9658  -10.0126    5.5678 O   0  0  0  0  0  0  0  0  0  0  0  0
    1.5354   -5.6707    2.5780 Cl  0  0  0  0  0  0  0  0  0  0  0  0
    0.9247  -11.2000    1.7850 C   0  0  0  0  0  0  0  0  0  0  0  0
   -0.0970  -11.8508    1.5906 C   0  0  2  0  0  0  0  0  0  0  0  0
   -1.4199  -11.3292    1.8016 O   0  0  0  0  0  0  0  0  0  0  0  0
   -0.2633  -13.1672    1.2477 C   0  0  0  0  0  0  0  0  0  0  0  0
    0.7957  -13.8551    1.2751 C   0  0  0  0  0  0  0  0  0  0  0  0
    0.8164  -15.2018    0.9331 C   0  0  0  0  0  0  0  0  0  0  0  0
   -0.0359  -15.7348    0.1319 C   0  0  0  0  0  0  0  0  0  0  0  0
  2  7  1  0
  7  8  2  0
  4  9  1  0
  9 10  2  0
  9 11  1  0
  7 12  1  0
  6 13  1  0
  3 14  1  0
 14 15  1  0
 15 16  1  1
 15 17  1  0
 17 18  2  3
 18 19  1  0
 19 20  2  0
  1  2  2  0
  2  3  1  0
  3  4  2  0
  4  5  1  0
  5  6  2  0
  1  6  1  0
M  END

$$$$
No_4793-/export/home/yangzhenyu/potential_scad_32_flow//YTHDC2/2024-12-06-03-22-00/
     RDKit          3D

 19 20  0  0  0  0  0  0  0  0999 V2000
    1.1787   -8.0297    3.5154 C   0  0  0  0  0  0  0  0  0  0  0  0
    1.0491   -6.8434    2.9820 C   0  0  0  0  0  0  0  0  0  0  0  0
    0.0950   -8.8404    3.2292 C   0  0  0  0  0  0  0  0  0  0  0  0
   -0.9173   -8.4596    2.5152 C   0  0  0  0  0  0  0  0  0  0  0  0
   -1.0331   -7.2162    2.0653 C   0  0  0  0  0  0  0  0  0  0  0  0
   -0.0105   -6.3168    2.3081 C   0  0  0  0  0  0  0  0  0  0  0  0
    0.0485   -4.9783    1.8782 C   0  0  0  0  0  0  0  0  0  0  0  0
    0.9625   -4.1072    2.3252 N   0  0  0  0  0  0  0  0  0  0  0  0
   -0.5558   -4.4927    0.7979 N   0  0  0  0  0  0  0  0  0  0  0  0
    0.1819  -10.2842    3.6666 C   0  0  0  0  0  0  0  0  0  0  0  0
   -1.0408  -10.9679    3.8134 C   0  0  0  0  0  0  0  0  0  0  0  0
    1.3175  -10.7680    4.4947 C   0  0  0  0  0  0  0  0  0  0  0  0
    1.9153  -11.7751    3.9359 C   0  0  0  0  0  0  0  0  0  0  0  0
   -0.7920  -12.3897    3.5901 C   0  0  0  0  0  0  0  0  0  0  0  0
    1.4202  -12.9698    3.7770 C   0  0  0  0  0  0  0  0  0  0  0  0
    0.1493  -13.3399    3.5045 C   0  0  0  0  0  0  0  0  0  0  0  0
    2.2001  -14.1788    3.7823 O   0  0  0  0  0  0  0  0  0  0  0  0
   -0.3367   -3.1420    0.6582 C   0  0  0  0  0  0  0  0  0  0  0  0
    1.5749   -4.3638    3.0862 H   0  0  0  0  0  0  0  0  0  0  0  0
  6  7  1  0
  7  8  2  0
  7  9  1  0
  3 10  1  0
 10 11  2  0
 10 12  1  0
 12 13  2  0
 11 14  1  0
 13 15  1  0
 14 16  2  0
 15 16  1  0
 15 17  2  0
  9 18  2  0
  1  2  2  0
  2  6  1  0
  5  6  2  0
  4  5  1  0
  3  4  2  0
  1  3  1  0
  8 19  1  0
M  END

$$$$
No_4794-/export/home/yangzhenyu/potential_scad_32_flow//YTHDC2/2024-12-06-03-22-00/
     RDKit          3D

 18 19  0  0  0  0  0  0  0  0999 V2000
    1.1787   -8.0297    3.5154 C   0  0  0  0  0  0  0  0  0  0  0  0
    1.1048   -9.2215    3.2892 C   0  0  0  0  0  0  0  0  0  0  0  0
    1.0239   -9.7790    2.0239 C   0  0  0  0  0  0  0  0  0  0  0  0
    1.1393   -9.0211    0.9686 C   0  0  0  0  0  0  0  0  0  0  0  0
    1.4051   -7.6500    1.1251 C   0  0  0  0  0  0  0  0  0  0  0  0
    1.4868   -7.1041    2.3534 C   0  0  0  0  0  0  0  0  0  0  0  0
    1.5885   -5.7190    2.5687 N   0  0  0  0  0  0  0  0  0  0  0  0
    0.8660  -11.2162    1.9212 C   0  0  0  0  0  0  0  0  0  0  0  0
    1.8877  -12.0342    2.0487 C   0  0  0  0  0  0  0  0  0  0  0  0
    1.6636  -13.3333    2.2599 C   0  0  0  0  0  0  0  0  0  0  0  0
    0.4040  -13.8297    1.9910 C   0  0  0  0  0  0  0  0  0  0  0  0
   -0.6556  -13.1033    1.8268 C   0  0  0  0  0  0  0  0  0  0  0  0
   -0.4221  -11.7109    1.6848 C   0  0  0  0  0  0  0  0  0  0  0  0
    0.1925  -15.2749    2.1330 C   0  0  0  0  0  0  0  0  0  0  0  0
   -0.4160  -15.9989    1.3771 C   0  0  0  0  0  0  0  0  0  0  0  0
    0.9582  -15.9271    3.3137 C   0  0  0  0  0  0  0  0  0  0  0  0
    0.9766  -17.2890    3.4851 C   0  0  0  0  0  0  0  0  0  0  0  0
    0.2797  -18.0146    2.5116 C   0  0  0  0  0  0  0  0  0  0  0  0
  6  7  1  0
  3  8  1  0
 11 14  1  0
 14 15  2  0
 14 16  1  0
 16 17  2  3
 17 18  1  0
  1  2  2  0
  2  3  1  0
  3  4  2  0
  4  5  1  0
  5  6  2  0
  1  6  1  0
  8  9  2  0
  9 10  1  0
 10 11  2  0
 11 12  1  0
 12 13  2  0
  8 13  1  0
M  END

$$$$
No_4795-/export/home/yangzhenyu/potential_scad_32_flow//YTHDC2/2024-12-06-03-22-00/
     RDKit          3D

 18 19  0  0  1  0  0  0  0  0999 V2000
    1.1787   -8.0297    3.5154 C   0  0  0  0  0  0  0  0  0  0  0  0
    1.0491   -6.8434    2.9820 C   0  0  0  0  0  0  0  0  0  0  0  0
    1.9985   -8.9840    2.8958 C   0  0  0  0  0  0  0  0  0  0  0  0
    1.9135  -10.3404    3.6266 C   0  0  0  0  0  0  0  0  0  0  0  0
    1.3291  -11.3908    3.0222 C   0  0  2  0  0  0  0  0  0  0  0  0
    1.2749  -12.5326    3.7562 C   0  0  0  0  0  0  0  0  0  0  0  0
    1.2373   -6.5190    1.7857 C   0  0  0  0  0  0  0  0  0  0  0  0
    0.8960   -5.1567    1.3903 C   0  0  0  0  0  0  0  0  0  0  0  0
    0.6226   -4.1523    2.2554 C   0  0  0  0  0  0  0  0  0  0  0  0
    0.6398   -4.5484    3.6818 C   0  0  0  0  0  0  0  0  0  0  0  0
    0.8899   -5.7706    3.9909 C   0  0  0  0  0  0  0  0  0  0  0  0
    0.7224  -13.6938    3.1700 C   0  0  0  0  0  0  0  0  0  0  0  0
    0.4640  -13.6751    1.8580 C   0  0  0  0  0  0  0  0  0  0  0  0
    0.6872  -12.6567    1.0753 C   0  0  0  0  0  0  0  0  0  0  0  0
    1.1644  -11.4790    1.6147 C   0  0  0  0  0  0  0  0  0  0  0  0
    1.2087  -10.4052    0.7525 O   0  0  0  0  0  0  0  0  0  0  0  0
    0.3660   -2.8509    1.7590 Cl  0  0  0  0  0  0  0  0  0  0  0  0
    2.6187  -10.3454    4.7645 O   0  0  0  0  0  0  0  0  0  0  0  0
  1  2  1  0
  1  3  1  0
  3  4  1  0
  5  4  1  6
  5  6  1  0
 12 13  1  0
  5 15  1  0
 14 15  1  0
 15 16  2  0
  9 17  1  0
  4 18  2  0
  6 12  1  0
 13 14  1  0
  2  7  2  0
  7  8  1  0
  8  9  2  0
  9 10  1  0
 10 11  2  0
  2 11  1  0
M  END

$$$$
No_4796-/export/home/yangzhenyu/potential_scad_32_flow//YTHDC2/2024-12-06-03-22-00/
     RDKit          3D

 17 17  0  0  0  0  0  0  0  0999 V2000
    1.1787   -8.0297    3.5154 C   0  0  0  0  0  0  0  0  0  0  0  0
    1.1048   -9.2215    3.2892 C   0  0  0  0  0  0  0  0  0  0  0  0
    1.2339   -9.7611    2.0189 C   0  0  0  0  0  0  0  0  0  0  0  0
    1.3583   -9.0036    0.9764 C   0  0  0  0  0  0  0  0  0  0  0  0
    1.5996   -7.6362    1.1311 C   0  0  0  0  0  0  0  0  0  0  0  0
    1.4830   -7.0928    2.3626 C   0  0  0  0  0  0  0  0  0  0  0  0
    1.5395   -5.7300    2.6182 C   0  0  0  0  0  0  0  0  0  0  0  0
    1.1775  -11.2233    1.8407 C   0  0  0  0  0  0  0  0  0  0  0  0
    1.9057  -12.1147    2.3397 C   0  0  0  0  0  0  0  0  0  0  0  0
    1.2923  -13.3224    2.7485 C   0  0  0  0  0  0  0  0  0  0  0  0
    0.7433  -14.1681    1.8127 C   0  0  0  0  0  0  0  0  0  0  0  0
   -0.1483  -14.6146    2.2382 C   0  0  0  0  0  0  0  0  0  0  0  0
   -0.1854  -15.8689    2.8534 O   0  0  0  0  0  0  0  0  0  0  0  0
    1.3014   -4.8068    1.6833 O   0  0  0  0  0  0  0  0  0  0  0  0
    1.7995   -5.1596    3.8234 O   0  0  0  0  0  0  0  0  0  0  0  0
   -1.4611  -14.3862    1.9629 O   0  0  0  0  0  0  0  0  0  0  0  0
    0.3827  -11.5261    0.6768 O   0  0  0  0  0  0  0  0  0  0  0  0
  6  7  1  0
  3  8  1  0
  8  9  1  0
  9 10  1  0
 10 11  1  0
 11 12  1  0
 12 13  1  0
  7 14  2  0
  7 15  1  0
 12 16  2  0
  8 17  2  0
  1  2  2  0
  2  3  1  0
  3  4  2  0
  4  5  1  0
  5  6  2  0
  1  6  1  0
M  END

$$$$
No_4797-/export/home/yangzhenyu/potential_scad_32_flow//YTHDC2/2024-12-06-03-22-00/
     RDKit          3D

 17 18  0  0  0  0  0  0  0  0999 V2000
    1.1787   -8.0297    3.5154 C   0  0  0  0  0  0  0  0  0  0  0  0
    1.0491   -6.8434    2.9820 C   0  0  0  0  0  0  0  0  0  0  0  0
    0.9905   -9.0774    2.6527 C   0  0  0  0  0  0  0  0  0  0  0  0
    0.7897   -8.9519    1.3691 C   0  0  0  0  0  0  0  0  0  0  0  0
    0.7018   -7.7198    0.7892 C   0  0  0  0  0  0  0  0  0  0  0  0
    0.8918   -6.5957    1.6117 C   0  0  0  0  0  0  0  0  0  0  0  0
    1.0600  -10.5680    3.3321 C   0  0  0  0  0  0  0  0  0  0  0  0
   -0.1041  -11.1773    3.5150 C   0  0  0  0  0  0  0  0  0  0  0  0
   -0.6926  -11.6099    2.5612 C   0  0  0  0  0  0  0  0  0  0  0  0
   -0.0469  -12.0422    1.4027 C   0  0  0  0  0  0  0  0  0  0  0  0
    1.3838  -11.6381    1.3049 C   0  0  0  0  0  0  0  0  0  0  0  0
    1.8880  -10.8984    2.2310 C   0  0  0  0  0  0  0  0  0  0  0  0
    0.8915   -5.2217    1.1934 C   0  0  0  0  0  0  0  0  0  0  0  0
   -0.2178   -4.7755    0.7112 C   0  0  0  0  0  0  0  0  0  0  0  0
   -0.3300   -3.4107    0.3099 C   0  0  0  0  0  0  0  0  0  0  0  0
    0.6149   -2.4785    0.8737 C   0  0  0  0  0  0  0  0  0  0  0  0
    1.6925   -2.9861    1.6372 C   0  0  0  0  0  0  0  0  0  0  0  0
  3  7  1  0
  6 13  1  0
 13 14  2  3
 14 15  1  0
 15 16  2  3
 16 17  1  0
  1  2  2  0
  2  6  1  0
  5  6  2  0
  4  5  1  0
  3  4  2  0
  1  3  1  0
  7  8  2  0
  8  9  1  0
  9 10  2  0
 10 11  1  0
 11 12  2  0
  7 12  1  0
M  END

$$$$
No_4798-/export/home/yangzhenyu/potential_scad_32_flow//YTHDC2/2024-12-06-03-22-00/
     RDKit          3D

 18 20  0  0  0  0  0  0  0  0999 V2000
    1.1787   -8.0297    3.5154 C   0  0  0  0  0  0  0  0  0  0  0  0
    1.1048   -9.2215    3.2892 C   0  0  0  0  0  0  0  0  0  0  0  0
    1.3627  -10.1721    4.3044 C   0  0  0  0  0  0  0  0  0  0  0  0
    1.0682  -11.5187    4.0618 C   0  0  0  0  0  0  0  0  0  0  0  0
    0.7653  -11.7320    2.7387 C   0  0  0  0  0  0  0  0  0  0  0  0
    0.4825  -13.1282    2.3241 C   0  0  0  0  0  0  0  0  0  0  0  0
    0.7482  -10.7639    1.9274 C   0  0  0  0  0  0  0  0  0  0  0  0
    0.9707   -9.5084    2.0945 C   0  0  0  0  0  0  0  0  0  0  0  0
   -0.5744  -13.3952    1.6665 C   0  0  0  0  0  0  0  0  0  0  0  0
    1.0029   -8.5512    1.1158 C   0  0  0  0  0  0  0  0  0  0  0  0
    1.1968   -7.2542    1.3912 C   0  0  0  0  0  0  0  0  0  0  0  0
    1.3905   -6.8808    2.6476 C   0  0  0  0  0  0  0  0  0  0  0  0
   -0.5066  -14.4037    0.6374 C   0  0  0  0  0  0  0  0  0  0  0  0
    0.4954  -15.2988    0.6867 C   0  0  0  0  0  0  0  0  0  0  0  0
    1.6006  -15.1388    1.5194 C   0  0  0  0  0  0  0  0  0  0  0  0
    1.5729  -14.0578    2.3492 C   0  0  0  0  0  0  0  0  0  0  0  0
    0.8986   -8.9523   -0.2856 C   0  0  0  0  0  0  0  0  0  0  0  0
    1.8054   -9.1675   -1.0554 O   0  0  0  0  0  0  0  0  0  0  0  0
  5  6  1  0
 10 17  1  0
 17 18  2  0
  1  2  2  0
  8 10  2  0
 10 11  1  0
 11 12  2  0
  1 12  1  0
  2  3  1  0
  3  4  2  0
  4  5  1  0
  5  7  2  0
  7  8  1  0
  2  8  1  0
  6  9  2  0
  9 13  1  0
 13 14  2  0
 14 15  1  0
 15 16  2  0
  6 16  1  0
M  END

$$$$
No_4799-/export/home/yangzhenyu/potential_scad_32_flow//YTHDC2/2024-12-06-03-22-00/
     RDKit          3D

 18 18  0  0  0  0  0  0  0  0999 V2000
    1.1787   -8.0297    3.5154 C   0  0  0  0  0  0  0  0  0  0  0  0
    1.1048   -9.2215    3.2892 C   0  0  0  0  0  0  0  0  0  0  0  0
    1.2339   -9.7611    2.0189 C   0  0  0  0  0  0  0  0  0  0  0  0
    1.3583   -9.0036    0.9764 C   0  0  0  0  0  0  0  0  0  0  0  0
    1.5996   -7.6362    1.1311 C   0  0  0  0  0  0  0  0  0  0  0  0
    1.4830   -7.0928    2.3626 C   0  0  0  0  0  0  0  0  0  0  0  0
    1.4898   -5.7274    2.6199 C   0  0  0  0  0  0  0  0  0  0  0  0
    1.1882  -11.3736    1.8424 I   0  0  0  0  0  0  0  0  0  0  0  0
    0.6866   -4.9774    2.7236 N   0  0  0  0  0  0  0  0  0  0  0  0
   -0.5836   -5.2202    2.3464 C   0  0  0  0  0  0  0  0  0  0  0  0
    0.8130   -3.5440    3.2181 C   0  0  0  0  0  0  0  0  0  0  0  0
   -1.6054   -4.0918    2.5409 O   0  0  0  0  0  0  0  0  0  0  0  0
   -1.1031   -6.1485    1.5932 O   0  0  0  0  0  0  0  0  0  0  0  0
    1.5313   -9.4792   -0.3536 Cl  0  0  0  0  0  0  0  0  0  0  0  0
    0.8845  -10.0422    4.4565 Cl  0  0  0  0  0  0  0  0  0  0  0  0
    0.6545   -2.6181    2.5178 C   0  0  0  0  0  0  0  0  0  0  0  0
    1.5885   -1.5948    2.5363 O   0  0  0  0  0  0  0  0  0  0  0  0
    2.3567   -1.5942    1.6185 C   0  0  0  0  0  0  0  0  0  0  0  0
  6  7  1  0
  3  8  1  0
  7  9  1  0
  9 10  1  0
  9 11  1  0
 10 12  1  0
 10 13  2  0
  4 14  1  0
  2 15  1  0
 11 16  1  0
 16 17  1  0
 17 18  1  0
  1  2  2  0
  2  3  1  0
  3  4  2  0
  4  5  1  0
  5  6  2  0
  1  6  1  0
M  END

$$$$
No_4800-/export/home/yangzhenyu/potential_scad_32_flow//YTHDC2/2024-12-06-03-22-00/
     RDKit          3D

 16 16  0  0  0  0  0  0  0  0999 V2000
    1.1787   -8.0297    3.5154 C   0  0  0  0  0  0  0  0  0  0  0  0
    1.0491   -6.8434    2.9820 C   0  0  0  0  0  0  0  0  0  0  0  0
    0.9905   -9.0774    2.6527 C   0  0  0  0  0  0  0  0  0  0  0  0
    0.7897   -8.9519    1.3691 C   0  0  0  0  0  0  0  0  0  0  0  0
    0.7018   -7.7198    0.7892 C   0  0  0  0  0  0  0  0  0  0  0  0
    0.8918   -6.5957    1.6117 C   0  0  0  0  0  0  0  0  0  0  0  0
    1.0774  -10.6059    3.3145 C   0  0  0  0  0  0  0  0  0  0  0  0
    2.1444  -11.0408    3.6446 C   0  0  0  0  0  0  0  0  0  0  0  0
   -0.0506  -11.2314    3.3994 C   0  0  0  0  0  0  0  0  0  0  0  0
   -0.1534  -12.4640    3.1550 O   0  0  0  0  0  0  0  0  0  0  0  0
    2.1427  -11.0361    5.1934 N   0  0  0  0  0  0  0  0  0  0  0  0
    0.8017   -5.2912    1.0832 O   0  0  0  0  0  0  0  0  0  0  0  0
   -1.2098  -10.5966    3.8649 O   0  0  0  0  0  0  0  0  0  0  0  0
    1.1840   -4.1885    1.8602 C   0  0  0  0  0  0  0  0  0  0  0  0
    0.6316  -10.1755    0.1825 C   0  0  0  0  0  0  0  0  0  0  0  0
    1.7347  -10.7662    0.0046 O   0  0  0  0  0  0  0  0  0  0  0  0
  3  7  1  0
  7  8  1  0
  7  9  1  0
  9 10  1  0
  8 11  1  0
  6 12  1  0
  9 13  2  0
 12 14  1  0
  4 15  1  0
 15 16  2  0
  1  2  2  0
  2  6  1  0
  5  6  2  0
  4  5  1  0
  3  4  2  0
  1  3  1  0
M  END

$$$$
No_4801-/export/home/yangzhenyu/potential_scad_32_flow//YTHDC2/2024-12-06-03-22-00/
     RDKit          3D

 21 21  0  0  1  0  0  0  0  0999 V2000
    1.1787   -8.0297    3.5154 C   0  0  0  0  0  0  0  0  0  0  0  0
    1.0491   -6.8434    2.9820 C   0  0  0  0  0  0  0  0  0  0  0  0
    1.9985   -8.9840    2.8958 C   0  0  2  0  0  0  0  0  0  0  0  0
    1.7297   -9.2108    1.6335 C   0  0  0  0  0  0  0  0  0  0  0  0
    1.7343   -8.0566    0.8408 C   0  0  2  0  0  0  0  0  0  0  0  0
    1.0269   -6.8892    1.4456 C   0  0  0  0  0  0  0  0  0  0  0  0
    1.7596   -8.0979   -0.4723 C   0  0  0  0  0  0  0  0  0  0  0  0
    0.8317   -7.8698   -1.2086 O   0  0  0  0  0  0  0  0  0  0  0  0
    2.9935   -8.1987   -1.1162 O   0  0  0  0  0  0  0  0  0  0  0  0
    1.9723  -10.3698    3.5745 C   0  0  0  0  0  0  0  0  0  0  0  0
    1.1843  -11.3216    3.3689 C   0  0  0  0  0  0  0  0  0  0  0  0
    1.5240  -12.6363    3.4118 C   0  0  0  0  0  0  0  0  0  0  0  0
    0.5697  -13.5603    2.9048 N   0  0  0  0  0  0  0  0  0  0  0  0
    0.8651  -14.8829    3.1137 C   0  0  0  0  0  0  0  0  0  0  0  0
    0.9308  -15.6679    2.0636 C   0  0  0  0  0  0  0  0  0  0  0  0
    0.8069  -15.0942    0.7577 C   0  0  1  0  0  0  0  0  0  0  0  0
    1.4336  -14.1315    0.2663 C   0  0  0  0  0  0  0  0  0  0  0  0
    0.1563  -15.9728   -0.1806 C   0  0  0  0  0  0  0  0  0  0  0  0
   -0.4793  -15.3425   -1.2162 O   0  0  0  0  0  0  0  0  0  0  0  0
   -0.1814  -11.0528    3.0631 O   0  0  0  0  0  0  0  0  0  0  0  0
   -0.0643  -17.2601   -0.0522 C   0  0  0  0  0  0  0  0  0  0  0  0
  1  2  1  0
  1  3  1  0
  3  4  1  0
  4  5  1  0
  2  6  1  0
  5  6  1  0
  5  7  1  6
  7  8  2  0
  7  9  1  0
  3 10  1  1
 10 11  1  0
 11 12  1  0
 12 13  1  0
 13 14  1  0
 14 15  1  0
 15 16  1  0
 16 17  1  6
 16 18  1  0
 18 19  2  0
 11 20  2  0
 18 21  1  0
M  END

$$$$
No_4802-/export/home/yangzhenyu/potential_scad_32_flow//YTHDC2/2024-12-06-03-22-00/
     RDKit          3D

 13 14  0  0  1  0  0  0  0  0999 V2000
    1.1787   -8.0297    3.5154 C   0  0  0  0  0  0  0  0  0  0  0  0
    1.1048   -9.2215    3.2892 C   0  0  0  0  0  0  0  0  0  0  0  0
    1.3627  -10.1721    4.3044 C   0  0  0  0  0  0  0  0  0  0  0  0
    1.7354  -11.4730    3.9023 C   0  0  0  0  0  0  0  0  0  0  0  0
    1.8080  -11.8127    2.7216 C   0  0  0  0  0  0  0  0  0  0  0  0
    1.5854  -11.0021    1.7249 C   0  0  0  0  0  0  0  0  0  0  0  0
    1.3573   -9.7389    1.9287 C   0  0  0  0  0  0  0  0  0  0  0  0
    1.2865   -8.8078    0.9161 C   0  0  0  0  0  0  0  0  0  0  0  0
    1.6845   -9.1638   -0.2896 O   0  0  0  0  0  0  0  0  0  0  0  0
    0.9531   -7.5121    1.0883 N   0  0  0  0  0  0  0  0  0  0  0  0
    0.9204   -7.0389    2.3661 C   0  0  2  0  0  0  0  0  0  0  0  0
    2.0982  -13.4452    2.3054 Cl  0  0  0  0  0  0  0  0  0  0  0  0
    0.7945   -5.5203    2.5223 F   0  0  0  0  0  0  0  0  0  0  0  0
  1  2  1  0
  7  8  1  0
  8  9  2  0
  8 10  1  0
 10 11  1  0
  5 12  1  0
 11 13  1  6
  1 11  1  0
  2  3  2  0
  3  4  1  0
  4  5  2  0
  5  6  1  0
  6  7  2  0
  2  7  1  0
M  END

$$$$
No_4803-/export/home/yangzhenyu/potential_scad_32_flow//YTHDC2/2024-12-06-03-22-00/
     RDKit          3D

 20 20  0  0  0  0  0  0  0  0999 V2000
    1.1787   -8.0297    3.5154 C   0  0  0  0  0  0  0  0  0  0  0  0
    1.0491   -6.8434    2.9820 C   0  0  0  0  0  0  0  0  0  0  0  0
    1.9985   -8.9840    2.8958 C   0  0  0  0  0  0  0  0  0  0  0  0
    1.9135  -10.3404    3.6266 C   0  0  0  0  0  0  0  0  0  0  0  0
    0.7479  -10.9191    3.7202 C   0  0  0  0  0  0  0  0  0  0  0  0
    1.3327   -6.5751    1.7543 C   0  0  0  0  0  0  0  0  0  0  0  0
    0.6763  -12.2837    3.6804 N   0  0  0  0  0  0  0  0  0  0  0  0
    1.8138   -7.6335    0.9400 C   0  0  0  0  0  0  0  0  0  0  0  0
    2.1033   -8.8206    1.4118 C   0  0  0  0  0  0  0  0  0  0  0  0
    1.7977  -13.0356    3.3309 C   0  0  0  0  0  0  0  0  0  0  0  0
   -0.2917  -10.2636    4.2148 O   0  0  0  0  0  0  0  0  0  0  0  0
    1.3789  -14.4719    2.9400 C   0  0  0  0  0  0  0  0  0  0  0  0
    2.2574  -15.4118    2.4749 C   0  0  0  0  0  0  0  0  0  0  0  0
    2.0409  -16.6913    2.4124 O   0  0  0  0  0  0  0  0  0  0  0  0
    3.4396  -14.9848    1.9895 O   0  0  0  0  0  0  0  0  0  0  0  0
    0.9827   -5.4003    1.0512 C   0  0  0  0  0  0  0  0  0  0  0  0
    0.1202   -4.4893    1.7911 C   0  0  0  0  0  0  0  0  0  0  0  0
    0.6573   -3.3892    2.3600 C   0  0  0  0  0  0  0  0  0  0  0  0
   -0.0129   -2.7230    3.4276 C   0  0  0  0  0  0  0  0  0  0  0  0
   -0.0402   -3.0624    4.5033 C   0  0  0  0  0  0  0  0  0  0  0  0
  3  4  1  0
  4  5  1  0
  5  7  1  0
  7 10  1  0
  5 11  2  0
 10 12  1  0
 12 13  1  0
 13 14  2  0
 13 15  1  0
  6 16  1  0
 16 17  1  0
 17 18  1  0
 18 19  1  0
 19 20  1  0
  1  2  2  0
  2  6  1  0
  6  8  2  0
  8  9  1  0
  3  9  2  0
  1  3  1  0
M  END

$$$$
No_4804-/export/home/yangzhenyu/potential_scad_32_flow//YTHDC2/2024-12-06-03-22-00/
     RDKit          3D

 18 19  0  0  1  0  0  0  0  0999 V2000
    1.1787   -8.0297    3.5154 C   0  0  0  0  0  0  0  0  0  0  0  0
    1.0491   -6.8434    2.9820 C   0  0  0  0  0  0  0  0  0  0  0  0
    0.9905   -9.0774    2.6527 C   0  0  0  0  0  0  0  0  0  0  0  0
    1.1655  -10.4663    3.1286 C   0  0  0  0  0  0  0  0  0  0  0  0
    1.2197  -11.4898    2.5831 C   0  0  0  0  0  0  0  0  0  0  0  0
    1.0589  -11.4458    1.1293 C   0  0  0  0  0  0  0  0  0  0  0  0
    0.9638  -10.3069    0.4651 C   0  0  0  0  0  0  0  0  0  0  0  0
    0.9191   -9.0789    1.1942 C   0  0  0  0  0  0  0  0  0  0  0  0
    0.9198   -7.8339    0.6158 C   0  0  0  0  0  0  0  0  0  0  0  0
    1.0184   -6.6904    1.4953 C   0  0  0  0  0  0  0  0  0  0  0  0
    1.3841  -13.0355    3.2102 C   0  0  0  0  0  0  0  0  0  0  0  0
    0.2061  -13.8297    3.0632 C   0  0  1  0  0  0  0  0  0  0  0  0
    0.6200  -15.2225    3.2878 N   0  0  0  0  0  0  0  0  0  0  0  0
   -0.2056  -16.1413    3.2721 C   0  0  0  0  0  0  0  0  0  0  0  0
    0.0202  -17.4615    3.4394 C   0  0  0  0  0  0  0  0  0  0  0  0
    0.9047   -7.6597   -0.5871 O   0  0  0  0  0  0  0  0  0  0  0  0
   -0.9999  -13.7953    2.9918 C   0  0  0  0  0  0  0  0  0  0  0  0
   -1.9413  -14.6696    2.8867 C   0  0  0  0  0  0  0  0  0  0  0  0
  1  2  1  0
  8  9  1  0
  9 10  1  0
  5 11  1  0
 12 11  1  1
 12 13  1  0
 13 14  2  3
 14 15  1  0
  9 16  2  0
 12 17  1  0
 17 18  2  0
  1  3  1  0
  2 10  1  0
  3  4  2  0
  4  5  1  0
  5  6  2  0
  6  7  1  0
  7  8  2  0
  3  8  1  0
M  END

$$$$
No_4805-/export/home/yangzhenyu/potential_scad_32_flow//YTHDC2/2024-12-06-03-22-00/
     RDKit          3D

 19 20  0  0  0  0  0  0  0  0999 V2000
    1.1787   -8.0297    3.5154 C   0  0  0  0  0  0  0  0  0  0  0  0
    1.0491   -6.8434    2.9820 C   0  0  0  0  0  0  0  0  0  0  0  0
    0.0950   -8.8404    3.2292 C   0  0  0  0  0  0  0  0  0  0  0  0
   -0.7663   -8.2602    2.4375 C   0  0  0  0  0  0  0  0  0  0  0  0
   -0.3589   -6.8665    2.1913 C   0  0  0  0  0  0  0  0  0  0  0  0
    0.1638  -10.2974    3.6395 C   0  0  0  0  0  0  0  0  0  0  0  0
   -0.8136  -11.0731    3.3787 C   0  0  0  0  0  0  0  0  0  0  0  0
   -0.5006  -12.5031    3.6095 C   0  0  0  0  0  0  0  0  0  0  0  0
    0.7560  -12.8505    3.8762 C   0  0  0  0  0  0  0  0  0  0  0  0
    1.7854  -11.9594    3.9588 C   0  0  0  0  0  0  0  0  0  0  0  0
    1.5349  -10.5945    3.9356 C   0  0  0  0  0  0  0  0  0  0  0  0
    1.0500  -14.1819    3.9989 O   0  0  0  0  0  0  0  0  0  0  0  0
   -0.8911   -5.7940    1.6376 C   0  0  0  0  0  0  0  0  0  0  0  0
   -0.5663   -4.6063    1.7037 O   0  0  0  0  0  0  0  0  0  0  0  0
   -1.7559   -6.0890    0.5784 N   0  0  0  0  0  0  0  0  0  0  0  0
   -2.3415   -4.9925   -0.1197 C   0  0  0  0  0  0  0  0  0  0  0  0
   -1.7668   -4.8307   -1.3581 C   0  0  0  0  0  0  0  0  0  0  0  0
   -1.9434   -3.6015   -1.9478 O   0  0  0  0  0  0  0  0  0  0  0  0
   -0.8290   -5.5356   -1.8663 O   0  0  0  0  0  0  0  0  0  0  0  0
  1  2  1  0
  1  3  2  0
  3  4  1  0
  2  5  1  0
  4  5  2  0
  3  6  1  0
  9 12  1  0
  5 13  1  0
 13 14  2  0
 13 15  1  0
 15 16  1  0
 16 17  1  0
 17 18  1  0
 17 19  2  0
  6  7  2  0
  7  8  1  0
  8  9  2  0
  9 10  1  0
 10 11  2  0
  6 11  1  0
M  END

$$$$
No_4806-/export/home/yangzhenyu/potential_scad_32_flow//YTHDC2/2024-12-06-03-22-00/
     RDKit          3D

 17 18  0  0  1  0  0  0  0  0999 V2000
    1.1787   -8.0297    3.5154 C   0  0  0  0  0  0  0  0  0  0  0  0
    1.0491   -6.8434    2.9820 C   0  0  0  0  0  0  0  0  0  0  0  0
    0.9905   -9.0774    2.6527 C   0  0  0  0  0  0  0  0  0  0  0  0
    0.7897   -8.9519    1.3691 C   0  0  0  0  0  0  0  0  0  0  0  0
    0.7018   -7.7198    0.7892 C   0  0  0  0  0  0  0  0  0  0  0  0
    0.8918   -6.5957    1.6117 C   0  0  0  0  0  0  0  0  0  0  0  0
    1.0998  -10.4710    3.2437 C   0  0  0  0  0  0  0  0  0  0  0  0
    1.3102  -11.5554    2.5214 N   0  0  0  0  0  0  0  0  0  0  0  0
    1.4271  -12.7713    3.1438 C   0  0  0  0  0  0  0  0  0  0  0  0
    1.0006  -13.9759    2.2830 C   0  0  1  0  0  0  0  0  0  0  0  0
    0.4477  -13.6997    1.1088 C   0  0  0  0  0  0  0  0  0  0  0  0
    0.1243  -12.7145    0.9112 C   0  0  0  0  0  0  0  0  0  0  0  0
    0.7230  -11.3952    1.2623 C   0  0  0  0  0  0  0  0  0  0  0  0
    0.8641   -5.2517    1.2371 C   0  0  0  0  0  0  0  0  0  0  0  0
    1.7414  -15.1711    2.7020 C   0  0  0  0  0  0  0  0  0  0  0  0
    1.3756  -16.2827    2.0476 C   0  0  0  0  0  0  0  0  0  0  0  0
    1.7645  -10.4237    4.4952 O   0  0  0  0  0  0  0  0  0  0  0  0
  3  7  1  0
  7  8  1  0
  8  9  1  0
  9 10  1  0
 10 11  1  0
 11 12  1  0
  8 13  1  0
 12 13  1  0
  6 14  1  0
 10 15  1  6
 15 16  1  0
  7 17  2  0
  1  2  2  0
  2  6  1  0
  5  6  2  0
  4  5  1  0
  3  4  2  0
  1  3  1  0
M  END

$$$$
No_4807-/export/home/yangzhenyu/potential_scad_32_flow//YTHDC2/2024-12-06-03-22-00/
     RDKit          3D

 19 20  0  0  0  0  0  0  0  0999 V2000
    1.1787   -8.0297    3.5154 C   0  0  0  0  0  0  0  0  0  0  0  0
    1.0491   -6.8434    2.9820 C   0  0  0  0  0  0  0  0  0  0  0  0
    0.0950   -8.8404    3.2292 C   0  0  0  0  0  0  0  0  0  0  0  0
   -0.9173   -8.4596    2.5152 C   0  0  0  0  0  0  0  0  0  0  0  0
   -1.0331   -7.2162    2.0653 C   0  0  0  0  0  0  0  0  0  0  0  0
   -0.0105   -6.3168    2.3081 C   0  0  0  0  0  0  0  0  0  0  0  0
    0.1465  -10.2446    3.6981 C   0  0  0  0  0  0  0  0  0  0  0  0
    1.2433  -10.8239    4.0166 C   0  0  0  0  0  0  0  0  0  0  0  0
    1.1033  -12.2936    4.0346 C   0  0  0  0  0  0  0  0  0  0  0  0
    0.0220  -12.9035    3.7006 C   0  0  0  0  0  0  0  0  0  0  0  0
   -1.0373  -12.2681    3.2608 C   0  0  0  0  0  0  0  0  0  0  0  0
   -1.0058  -10.9076    3.2655 C   0  0  0  0  0  0  0  0  0  0  0  0
   -0.1246   -5.0088    1.8408 Cl  0  0  0  0  0  0  0  0  0  0  0  0
    0.0890  -14.3117    3.7293 N   0  0  0  0  0  0  0  0  0  0  0  0
    1.0963  -15.0341    3.3031 C   0  0  0  0  0  0  0  0  0  0  0  0
    1.1035  -16.4266    3.2901 C   0  0  0  0  0  0  0  0  0  0  0  0
    2.1827  -17.1158    2.7207 C   0  0  0  0  0  0  0  0  0  0  0  0
    3.2954  -16.4426    2.1664 C   0  0  0  0  0  0  0  0  0  0  0  0
    3.3025  -15.0695    2.1738 C   0  0  0  0  0  0  0  0  0  0  0  0
  3  7  1  0
  6 13  1  0
 10 14  1  0
 14 15  1  0
 15 16  1  0
 16 17  2  3
 17 18  1  0
 18 19  2  0
  1  2  2  0
  2  6  1  0
  5  6  2  0
  4  5  1  0
  3  4  2  0
  1  3  1  0
  7  8  2  0
  8  9  1  0
  9 10  2  0
 10 11  1  0
 11 12  2  0
  7 12  1  0
M  END

$$$$
No_4808-/export/home/yangzhenyu/potential_scad_32_flow//YTHDC2/2024-12-06-03-22-00/
     RDKit          3D

 19 21  0  0  0  0  0  0  0  0999 V2000
    1.1787   -8.0297    3.5154 C   0  0  0  0  0  0  0  0  0  0  0  0
    1.1048   -9.2215    3.2892 C   0  0  0  0  0  0  0  0  0  0  0  0
    1.3627  -10.1721    4.3044 C   0  0  0  0  0  0  0  0  0  0  0  0
    1.0682  -11.5187    4.0618 C   0  0  0  0  0  0  0  0  0  0  0  0
    0.6332  -11.9655    2.9682 C   0  0  0  0  0  0  0  0  0  0  0  0
    0.4776  -11.1308    1.9203 C   0  0  0  0  0  0  0  0  0  0  0  0
    0.7470   -9.8274    2.0368 C   0  0  0  0  0  0  0  0  0  0  0  0
    0.5536   -7.1314    2.6861 C   0  0  0  0  0  0  0  0  0  0  0  0
    0.2951   -7.6000    1.3275 C   0  0  0  0  0  0  0  0  0  0  0  0
    0.2693   -8.8631    1.0973 C   0  0  0  0  0  0  0  0  0  0  0  0
    0.4787  -13.3960    2.7088 C   0  0  0  0  0  0  0  0  0  0  0  0
    1.3658  -14.3257    3.1313 C   0  0  0  0  0  0  0  0  0  0  0  0
    1.0430  -15.6728    2.9500 C   0  0  0  0  0  0  0  0  0  0  0  0
    0.0902  -16.1323    2.2732 C   0  0  0  0  0  0  0  0  0  0  0  0
   -0.7321  -15.2698    1.7119 C   0  0  0  0  0  0  0  0  0  0  0  0
   -0.4953  -13.9031    1.8966 C   0  0  0  0  0  0  0  0  0  0  0  0
   -0.1319   -9.2821   -0.3205 O   0  0  0  0  0  0  0  0  0  0  0  0
    0.7657   -5.4412    2.8432 N   0  0  0  0  0  0  0  0  0  0  0  0
   -0.0646   -4.7123    2.3094 C   0  0  0  0  0  0  0  0  0  0  0  0
  5 11  1  0
 10 17  1  0
  8 18  1  0
 18 19  1  0
 11 12  2  0
 12 13  1  0
 13 14  2  0
 14 15  1  0
 15 16  2  0
 11 16  1  0
  2  3  1  0
  3  4  2  0
  4  5  1  0
  5  6  2  0
  6  7  1  0
  1  2  2  0
  2  7  1  0
  7 10  2  0
  9 10  1  0
  8  9  2  0
  1  8  1  0
M  END

$$$$
No_4809-/export/home/yangzhenyu/potential_scad_32_flow//YTHDC2/2024-12-06-03-22-00/
     RDKit          3D

 18 20  0  0  0  0  0  0  0  0999 V2000
    1.1787   -8.0297    3.5154 O   0  0  0  0  0  0  0  0  0  0  0  0
    0.6747   -7.4019    2.7838 C   0  0  0  0  0  0  0  0  0  0  0  0
    0.7594   -8.0032    1.4295 C   0  0  0  0  0  0  0  0  0  0  0  0
    1.4743   -7.4398    0.6034 C   0  0  0  0  0  0  0  0  0  0  0  0
    1.8433   -8.4151   -0.4648 C   0  0  0  0  0  0  0  0  0  0  0  0
    1.9741   -9.5945   -0.2897 C   0  0  0  0  0  0  0  0  0  0  0  0
    1.6573  -10.0024    0.8377 C   0  0  0  0  0  0  0  0  0  0  0  0
    1.7563  -11.5739    1.0970 C   0  0  0  0  0  0  0  0  0  0  0  0
    0.9408   -9.3216    1.8271 C   0  0  0  0  0  0  0  0  0  0  0  0
    1.8302  -12.0812    2.2039 C   0  0  0  0  0  0  0  0  0  0  0  0
    1.4829  -11.1821    3.3380 C   0  0  0  0  0  0  0  0  0  0  0  0
    1.1459   -9.7999    3.1377 C   0  0  0  0  0  0  0  0  0  0  0  0
    1.9706  -13.3581    2.6605 C   0  0  0  0  0  0  0  0  0  0  0  0
    1.2540  -14.3870    1.8040 C   0  0  0  0  0  0  0  0  0  0  0  0
   -0.0340  -14.2117    1.7666 C   0  0  0  0  0  0  0  0  0  0  0  0
   -0.7147  -15.2811    1.3608 C   0  0  0  0  0  0  0  0  0  0  0  0
   -0.0635  -16.4875    1.0504 C   0  0  0  0  0  0  0  0  0  0  0  0
    1.2893  -16.6313    1.3802 C   0  0  0  0  0  0  0  0  0  0  0  0
  1  2  1  0
  2  3  1  0
  1 12  1  0
 10 13  1  0
 13 14  1  0
 14 15  1  0
 15 16  2  3
 16 17  1  0
 17 18  2  0
  3  4  2  0
  4  5  1  0
  5  6  2  0
  6  7  1  0
  3  9  1  0
  7  8  2  0
  8 10  1  0
 10 11  2  0
 11 12  1  0
  9 12  2  0
  7  9  1  0
M  END

$$$$
No_4810-/export/home/yangzhenyu/potential_scad_32_flow//YTHDC2/2024-12-06-03-22-00/
     RDKit          3D

 17 17  0  0  0  0  0  0  0  0999 V2000
    1.1787   -8.0297    3.5154 C   0  0  0  0  0  0  0  0  0  0  0  0
    1.1048   -9.2215    3.2892 C   0  0  0  0  0  0  0  0  0  0  0  0
    1.2339   -9.7611    2.0189 C   0  0  0  0  0  0  0  0  0  0  0  0
    1.4306   -8.9466    1.1170 C   0  0  0  0  0  0  0  0  0  0  0  0
    1.6532   -7.5949    1.1786 C   0  0  0  0  0  0  0  0  0  0  0  0
    1.4973   -7.0739    2.4258 C   0  0  0  0  0  0  0  0  0  0  0  0
    1.4438   -5.6890    2.7316 C   0  0  0  0  0  0  0  0  0  0  0  0
    1.2541  -11.1952    1.8085 C   0  0  0  0  0  0  0  0  0  0  0  0
    1.3136  -11.5756    0.5307 O   0  0  0  0  0  0  0  0  0  0  0  0
    1.0447  -12.0003    2.7606 O   0  0  0  0  0  0  0  0  0  0  0  0
    1.2654   -4.7727    1.7412 O   0  0  0  0  0  0  0  0  0  0  0  0
    1.7449   -5.1960    3.8953 O   0  0  0  0  0  0  0  0  0  0  0  0
    1.7397   -9.3779   -0.2932 C   0  0  0  0  0  0  0  0  0  0  0  0
    0.7574   -9.5600   -1.0616 O   0  0  0  0  0  0  0  0  0  0  0  0
    2.8808   -9.0674   -0.9851 O   0  0  0  0  0  0  0  0  0  0  0  0
    0.5091   -3.5942    1.9317 C   0  0  0  0  0  0  0  0  0  0  0  0
    0.3076   -2.9227    0.8155 C   0  0  0  0  0  0  0  0  0  0  0  0
  6  7  1  0
  3  8  1  0
  8  9  1  0
  8 10  2  0
  7 11  1  0
  7 12  2  0
  4 13  1  0
 13 14  2  0
 13 15  1  0
 11 16  1  0
 16 17  1  0
  1  2  2  0
  2  3  1  0
  3  4  2  0
  4  5  1  0
  5  6  2  0
  1  6  1  0
M  END

$$$$
No_4811-/export/home/yangzhenyu/potential_scad_32_flow//YTHDC2/2024-12-06-03-22-00/
     RDKit          3D

 16 17  0  0  0  0  0  0  0  0999 V2000
    1.1787   -8.0297    3.5154 C   0  0  0  0  0  0  0  0  0  0  0  0
    1.0491   -6.8434    2.9820 C   0  0  0  0  0  0  0  0  0  0  0  0
    0.0950   -8.8404    3.2292 C   0  0  0  0  0  0  0  0  0  0  0  0
   -0.9173   -8.4596    2.5152 C   0  0  0  0  0  0  0  0  0  0  0  0
   -1.0331   -7.2162    2.0653 C   0  0  0  0  0  0  0  0  0  0  0  0
   -0.0105   -6.3168    2.3081 C   0  0  0  0  0  0  0  0  0  0  0  0
    0.1465  -10.2446    3.6981 C   0  0  0  0  0  0  0  0  0  0  0  0
    1.2433  -10.8239    4.0166 C   0  0  0  0  0  0  0  0  0  0  0  0
    1.0790  -12.2885    4.3779 C   0  0  0  0  0  0  0  0  0  0  0  0
    0.8834  -12.9822    3.2583 C   0  0  0  0  0  0  0  0  0  0  0  0
    0.0265  -12.5445    2.3035 C   0  0  0  0  0  0  0  0  0  0  0  0
   -0.3056  -11.1111    2.4912 C   0  0  0  0  0  0  0  0  0  0  0  0
    1.0942  -14.4341    3.2894 Cl  0  0  0  0  0  0  0  0  0  0  0  0
   -0.1030   -4.9885    1.8774 C   0  0  0  0  0  0  0  0  0  0  0  0
   -0.4921   -4.7071    0.7179 C   0  0  0  0  0  0  0  0  0  0  0  0
   -1.2150   -5.2831    0.1060 C   0  0  0  0  0  0  0  0  0  0  0  0
  3  7  1  0
 10 13  1  0
  6 14  1  0
 14 15  1  0
 15 16  2  0
  1  2  2  0
  2  6  1  0
  5  6  2  0
  4  5  1  0
  3  4  2  0
  1  3  1  0
  7  8  2  0
  8  9  1  0
  9 10  2  0
 10 11  1  0
 11 12  2  0
  7 12  1  0
M  END

$$$$
No_4812-/export/home/yangzhenyu/potential_scad_32_flow//YTHDC2/2024-12-06-03-22-00/
     RDKit          3D

 18 19  0  0  1  0  0  0  0  0999 V2000
    1.1787   -8.0297    3.5154 C   0  0  0  0  0  0  0  0  0  0  0  0
    1.1048   -9.2215    3.2892 C   0  0  0  0  0  0  0  0  0  0  0  0
    1.3627  -10.1721    4.3044 C   0  0  0  0  0  0  0  0  0  0  0  0
    1.0682  -11.5187    4.0618 C   0  0  0  0  0  0  0  0  0  0  0  0
    0.6332  -11.9655    2.9682 C   0  0  0  0  0  0  0  0  0  0  0  0
    0.4776  -11.1308    1.9203 C   0  0  0  0  0  0  0  0  0  0  0  0
    0.7470   -9.8274    2.0368 C   0  0  0  0  0  0  0  0  0  0  0  0
    0.5535   -7.1314    2.6861 C   0  0  0  0  0  0  0  0  0  0  0  0
    0.7497   -5.5830    2.7890 C   0  0  1  0  0  0  0  0  0  0  0  0
    1.6474   -5.1091    3.6117 C   0  0  0  0  0  0  0  0  0  0  0  0
    0.1004   -4.8036    1.8511 C   0  0  0  0  0  0  0  0  0  0  0  0
    0.3663  -13.3402    2.7080 C   0  0  0  0  0  0  0  0  0  0  0  0
   -0.7773  -13.8883    2.3301 C   0  0  0  0  0  0  0  0  0  0  0  0
   -0.8465  -15.3149    2.2623 C   0  0  0  0  0  0  0  0  0  0  0  0
    0.2062  -16.1448    2.3754 C   0  0  0  0  0  0  0  0  0  0  0  0
    1.4846  -15.6338    2.7541 C   0  0  0  0  0  0  0  0  0  0  0  0
    1.6106  -14.2421    2.9529 C   0  0  0  0  0  0  0  0  0  0  0  0
    0.4953   -3.6092    1.6746 C   0  0  0  0  0  0  0  0  0  0  0  0
  1  2  1  0
  1  8  2  3
  8  9  1  0
  9 10  1  6
  9 11  1  0
  5 12  1  0
 11 18  2  0
 12 13  2  0
 13 14  1  0
 14 15  2  0
 15 16  1  0
 16 17  2  0
 12 17  1  0
  2  3  2  0
  3  4  1  0
  4  5  2  0
  5  6  1  0
  6  7  2  0
  2  7  1  0
M  END

$$$$
No_4813-/export/home/yangzhenyu/potential_scad_32_flow//YTHDC2/2024-12-06-03-22-00/
     RDKit          3D

 19 21  0  0  0  0  0  0  0  0999 V2000
    1.1787   -8.0297    3.5154 C   0  0  0  0  0  0  0  0  0  0  0  0
    1.1048   -9.2215    3.2892 C   0  0  0  0  0  0  0  0  0  0  0  0
    1.3627  -10.1721    4.3044 C   0  0  0  0  0  0  0  0  0  0  0  0
    1.0682  -11.5187    4.0618 C   0  0  0  0  0  0  0  0  0  0  0  0
    0.6332  -11.9655    2.9682 C   0  0  0  0  0  0  0  0  0  0  0  0
    0.4776  -11.1308    1.9203 C   0  0  0  0  0  0  0  0  0  0  0  0
    0.7470   -9.8274    2.0368 C   0  0  0  0  0  0  0  0  0  0  0  0
    1.0387   -7.0301    2.5175 C   0  0  0  0  0  0  0  0  0  0  0  0
    0.9130   -7.5288    1.2013 C   0  0  0  0  0  0  0  0  0  0  0  0
    0.7893   -8.7979    0.9542 C   0  0  0  0  0  0  0  0  0  0  0  0
    0.5241   -9.2578   -0.2817 C   0  0  0  0  0  0  0  0  0  0  0  0
   -0.7560   -9.7391   -0.6285 O   0  0  0  0  0  0  0  0  0  0  0  0
    1.3013   -8.9300   -1.2618 O   0  0  0  0  0  0  0  0  0  0  0  0
    0.5064  -13.3732    2.6887 C   0  0  0  0  0  0  0  0  0  0  0  0
    0.9149  -14.0530    1.7587 C   0  0  0  0  0  0  0  0  0  0  0  0
    0.3155  -14.5931    0.9203 C   0  0  0  0  0  0  0  0  0  0  0  0
   -1.0044  -14.8652    0.9333 C   0  0  0  0  0  0  0  0  0  0  0  0
   -1.5083  -14.4621    2.2791 C   0  0  0  0  0  0  0  0  0  0  0  0
   -0.7318  -13.7909    3.1221 C   0  0  0  0  0  0  0  0  0  0  0  0
 10 11  1  0
 11 12  2  0
 11 13  1  0
  5 14  1  0
  2  3  1  0
  3  4  2  0
  4  5  1  0
  5  6  2  0
  6  7  1  0
  1  2  2  0
  2  7  1  0
  7 10  2  0
  9 10  1  0
  8  9  2  0
  1  8  1  0
 14 15  2  0
 15 16  1  0
 16 17  2  0
 17 18  1  0
 18 19  2  0
 14 19  1  0
M  END

$$$$
No_4814-/export/home/yangzhenyu/potential_scad_32_flow//YTHDC2/2024-12-06-03-22-00/
     RDKit          3D

 18 18  0  0  0  0  0  0  0  0999 V2000
    1.1787   -8.0297    3.5154 O   0  0  0  0  0  0  0  0  0  0  0  0
    0.9969   -8.9689    3.0048 C   0  0  0  0  0  0  0  0  0  0  0  0
    1.3055  -10.1056    3.6616 C   0  0  0  0  0  0  0  0  0  0  0  0
    1.3094  -11.3364    3.0826 C   0  0  0  0  0  0  0  0  0  0  0  0
    1.1303  -11.4110    1.7288 C   0  0  0  0  0  0  0  0  0  0  0  0
    1.0927  -10.3029    0.9439 C   0  0  0  0  0  0  0  0  0  0  0  0
    1.0434   -9.0638    1.5804 C   0  0  0  0  0  0  0  0  0  0  0  0
    0.9339   -7.8344    0.9219 C   0  0  0  0  0  0  0  0  0  0  0  0
    1.5323  -12.7689    3.8669 C   0  0  0  0  0  0  0  0  0  0  0  0
    1.2322   -7.7693   -0.2859 O   0  0  0  0  0  0  0  0  0  0  0  0
    0.2541   -6.7586    1.3426 N   0  0  0  0  0  0  0  0  0  0  0  0
    1.0753  -13.9310    3.0102 N   0  0  0  0  0  0  0  0  0  0  0  0
    1.1913  -14.9453    3.2971 C   0  0  0  0  0  0  0  0  0  0  0  0
    0.7579  -16.0388    2.4127 C   0  0  0  0  0  0  0  0  0  0  0  0
    0.6914  -15.7826    1.2652 O   0  0  0  0  0  0  0  0  0  0  0  0
    0.0908  -17.0405    3.1037 O   0  0  0  0  0  0  0  0  0  0  0  0
   -0.1091   -5.6962    1.0361 C   0  0  0  0  0  0  0  0  0  0  0  0
    0.5697   -4.4869    1.5043 C   0  0  0  0  0  0  0  0  0  0  0  0
  1  2  1  0
  7  8  1  0
  4  9  1  0
  8 10  2  0
  8 11  1  0
  9 12  1  0
 12 13  1  0
 13 14  1  0
 14 15  2  0
 14 16  1  0
 11 17  1  0
 17 18  1  0
  2  3  2  0
  3  4  1  0
  4  5  2  0
  5  6  1  0
  6  7  2  0
  2  7  1  0
M  END

$$$$
No_4815-/export/home/yangzhenyu/potential_scad_32_flow//YTHDC2/2024-12-06-03-22-00/
     RDKit          3D

 20 21  0  0  0  0  0  0  0  0999 V2000
    1.1787   -8.0297    3.5154 C   0  0  0  0  0  0  0  0  0  0  0  0
    1.1048   -9.2215    3.2892 C   0  0  0  0  0  0  0  0  0  0  0  0
    1.2339   -9.7611    2.0189 C   0  0  0  0  0  0  0  0  0  0  0  0
    1.3583   -9.0036    0.9764 C   0  0  0  0  0  0  0  0  0  0  0  0
    1.5996   -7.6362    1.1311 C   0  0  0  0  0  0  0  0  0  0  0  0
    1.4830   -7.0928    2.3626 C   0  0  0  0  0  0  0  0  0  0  0  0
    1.1008  -11.2372    1.8542 C   0  0  0  0  0  0  0  0  0  0  0  0
    1.9749  -12.0938    2.2342 C   0  0  0  0  0  0  0  0  0  0  0  0
    1.7533  -13.4231    1.8956 C   0  0  0  0  0  0  0  0  0  0  0  0
    0.8624  -13.8318    1.1071 C   0  0  0  0  0  0  0  0  0  0  0  0
    0.5887  -15.0331    0.5602 C   0  0  0  0  0  0  0  0  0  0  0  0
    0.0774  -12.6150    0.5819 C   0  0  0  0  0  0  0  0  0  0  0  0
    0.1613  -11.5240    0.8981 N   0  0  0  0  0  0  0  0  0  0  0  0
    1.5419   -5.6325    2.6534 O   0  0  0  0  0  0  0  0  0  0  0  0
   -0.4259  -15.6235    1.0250 C   0  0  0  0  0  0  0  0  0  0  0  0
   -0.5580  -15.7285    2.4017 C   0  0  0  0  0  0  0  0  0  0  0  0
    0.3324  -16.6308    3.1103 C   0  0  0  0  0  0  0  0  0  0  0  0
    0.0439  -17.2436    4.1822 C   0  0  0  0  0  0  0  0  0  0  0  0
   -1.1015  -16.7956    4.9082 C   0  0  0  0  0  0  0  0  0  0  0  0
   -2.0195  -16.0941    4.2506 C   0  0  0  0  0  0  0  0  0  0  0  0
  3  7  1  0
 10 11  1  0
  6 14  1  0
 11 15  1  0
 15 16  1  0
 16 17  1  0
 17 18  2  3
 18 19  1  0
 19 20  2  0
  1  2  2  0
  2  3  1  0
  3  4  2  0
  4  5  1  0
  5  6  2  0
  1  6  1  0
  7  8  2  0
  8  9  1  0
  9 10  2  0
 10 12  1  0
 12 13  2  0
  7 13  1  0
M  END

$$$$
No_4816-/export/home/yangzhenyu/potential_scad_32_flow//YTHDC2/2024-12-06-03-22-00/
     RDKit          3D

 18 19  0  0  0  0  0  0  0  0999 V2000
    1.1787   -8.0297    3.5154 C   0  0  0  0  0  0  0  0  0  0  0  0
    1.0491   -6.8434    2.9820 C   0  0  0  0  0  0  0  0  0  0  0  0
    0.9905   -9.0774    2.6527 C   0  0  0  0  0  0  0  0  0  0  0  0
    0.7897   -8.9519    1.3691 C   0  0  0  0  0  0  0  0  0  0  0  0
    0.7018   -7.7198    0.7892 C   0  0  0  0  0  0  0  0  0  0  0  0
    0.8918   -6.5957    1.6117 C   0  0  0  0  0  0  0  0  0  0  0  0
    1.0711  -10.4814    3.2282 C   0  0  0  0  0  0  0  0  0  0  0  0
    1.1227  -11.5770    2.4616 C   0  0  0  0  0  0  0  0  0  0  0  0
    1.1500  -12.9052    3.0782 C   0  0  0  0  0  0  0  0  0  0  0  0
    0.6702  -13.9897    2.4998 C   0  0  0  0  0  0  0  0  0  0  0  0
    0.9108  -15.3006    3.2837 C   0  0  0  0  0  0  0  0  0  0  0  0
    1.0731  -16.4534    2.9330 C   0  0  0  0  0  0  0  0  0  0  0  0
    0.8715  -16.7108    1.5999 C   0  0  0  0  0  0  0  0  0  0  0  0
    0.6722  -15.6830    0.6370 C   0  0  0  0  0  0  0  0  0  0  0  0
    0.6528  -14.4417    1.0631 C   0  0  0  0  0  0  0  0  0  0  0  0
    0.4924  -13.3614    0.2415 C   0  0  0  0  0  0  0  0  0  0  0  0
   -0.7961  -13.5168   -0.4266 C   0  0  0  0  0  0  0  0  0  0  0  0
   -1.2021  -12.5261   -1.4597 C   0  0  0  0  0  0  0  0  0  0  0  0
  3  7  1  0
  7  8  2  3
  8  9  1  0
 15 16  1  0
 16 17  2  3
 17 18  1  0
  9 10  1  0
  1  2  2  0
  2  6  1  0
  5  6  2  0
  4  5  1  0
  3  4  2  0
  1  3  1  0
 10 11  2  0
 11 12  1  0
 12 13  2  0
 13 14  1  0
 14 15  2  0
 10 15  1  0
M  END

$$$$
No_4817-/export/home/yangzhenyu/potential_scad_32_flow//YTHDC2/2024-12-06-03-22-00/
     RDKit          3D

 18 18  0  0  1  0  0  0  0  0999 V2000
    1.1787   -8.0297    3.5154 C   0  0  0  0  0  0  0  0  0  0  0  0
    1.0491   -6.8434    2.9820 C   0  0  0  0  0  0  0  0  0  0  0  0
    0.9905   -9.0774    2.6527 C   0  0  0  0  0  0  0  0  0  0  0  0
    0.9687   -8.6883    1.3634 C   0  0  0  0  0  0  0  0  0  0  0  0
    1.0948   -6.3768    1.7686 C   0  0  0  0  0  0  0  0  0  0  0  0
    0.9504   -7.3975    0.8471 C   0  0  0  0  0  0  0  0  0  0  0  0
    0.7712   -9.7492    0.3219 C   0  0  0  0  0  0  0  0  0  0  0  0
    1.2375  -10.9204    0.4464 O   0  0  0  0  0  0  0  0  0  0  0  0
    0.1293   -9.6191   -0.7446 O   0  0  0  0  0  0  0  0  0  0  0  0
    1.0838  -10.5894    3.1320 C   0  0  1  0  0  0  0  0  0  0  0  0
    2.2991  -11.0531    3.5767 C   0  0  0  0  0  0  0  0  0  0  0  0
   -0.0924  -10.7017    4.0552 C   0  0  0  0  0  0  0  0  0  0  0  0
    1.0702   -4.8608    1.3551 O   0  0  0  0  0  0  0  0  0  0  0  0
    2.2350  -12.3834    3.8649 C   0  0  0  0  0  0  0  0  0  0  0  0
    2.1657  -13.1668    2.4893 C   0  0  0  0  0  0  0  0  0  0  0  0
    1.5708  -14.4151    2.4817 C   0  0  0  0  0  0  0  0  0  0  0  0
    0.6429  -14.7119    3.3855 N   0  0  0  0  0  0  0  0  0  0  0  0
    1.9370  -15.3424    1.6748 O   0  0  0  0  0  0  0  0  0  0  0  0
  4  7  1  0
  7  8  1  0
  7  9  2  0
  3 10  1  0
 10 11  1  0
 10 12  1  1
  5 13  1  0
 11 14  1  0
 14 15  1  0
 15 16  1  0
 16 17  1  0
 16 18  2  0
  1  2  2  0
  2  5  1  0
  5  6  2  0
  4  6  1  0
  3  4  2  0
  1  3  1  0
M  END

$$$$
No_4818-/export/home/yangzhenyu/potential_scad_32_flow//YTHDC2/2024-12-06-03-22-00/
     RDKit          3D

 11 11  0  0  0  0  0  0  0  0999 V2000
    1.1787   -8.0297    3.5154 C   0  0  0  0  0  0  0  0  0  0  0  0
    1.1048   -9.2215    3.2892 C   0  0  0  0  0  0  0  0  0  0  0  0
    1.3627  -10.1721    4.3044 C   0  0  0  0  0  0  0  0  0  0  0  0
    1.0682  -11.5187    4.0618 C   0  0  0  0  0  0  0  0  0  0  0  0
    0.6332  -11.9655    2.9682 C   0  0  0  0  0  0  0  0  0  0  0  0
    0.4776  -11.1308    1.9203 C   0  0  0  0  0  0  0  0  0  0  0  0
    0.7470   -9.8274    2.0368 C   0  0  0  0  0  0  0  0  0  0  0  0
    1.0387   -7.0301    2.5175 N   0  0  0  0  0  0  0  0  0  0  0  0
    1.0482   -5.6912    2.8349 O   0  0  0  0  0  0  0  0  0  0  0  0
    0.4216  -13.4229    2.7917 O   0  0  0  0  0  0  0  0  0  0  0  0
    1.4296  -14.3111    3.1117 C   0  0  0  0  0  0  0  0  0  0  0  0
  1  2  1  0
  1  8  1  0
  8  9  2  0
  5 10  1  0
 10 11  1  0
  2  3  2  0
  3  4  1  0
  4  5  2  0
  5  6  1  0
  6  7  2  0
  2  7  1  0
M  END

$$$$
No_4819-/export/home/yangzhenyu/potential_scad_32_flow//YTHDC2/2024-12-06-03-22-00/
     RDKit          3D

 19 19  0  0  0  0  0  0  0  0999 V2000
    1.1787   -8.0297    3.5154 C   0  0  0  0  0  0  0  0  0  0  0  0
    1.1048   -9.2215    3.2892 C   0  0  0  0  0  0  0  0  0  0  0  0
    1.2339   -9.7611    2.0189 C   0  0  0  0  0  0  0  0  0  0  0  0
    1.3583   -9.0036    0.9764 C   0  0  0  0  0  0  0  0  0  0  0  0
    1.7077   -9.6100   -0.3010 C   0  0  0  0  0  0  0  0  0  0  0  0
    1.3637   -7.1087    2.3226 C   0  0  0  0  0  0  0  0  0  0  0  0
    1.4257   -7.6645    1.0231 C   0  0  0  0  0  0  0  0  0  0  0  0
    1.6722  -10.7840   -0.4044 O   0  0  0  0  0  0  0  0  0  0  0  0
    1.4862   -8.9147   -1.4018 O   0  0  0  0  0  0  0  0  0  0  0  0
    1.1436  -10.3161    4.5770 Cl  0  0  0  0  0  0  0  0  0  0  0  0
    1.3171   -5.6009    2.5618 Cl  0  0  0  0  0  0  0  0  0  0  0  0
    1.3238  -11.1721    1.9425 N   0  0  0  0  0  0  0  0  0  0  0  0
    2.3871  -11.8203    2.2429 C   0  0  0  0  0  0  0  0  0  0  0  0
    2.2472  -13.3196    1.9460 C   0  0  0  0  0  0  0  0  0  0  0  0
    1.0534  -13.8300    2.2404 C   0  0  0  0  0  0  0  0  0  0  0  0
    0.0679  -13.6519    1.8547 C   0  0  0  0  0  0  0  0  0  0  0  0
   -0.2412  -13.4904    0.6118 C   0  0  0  0  0  0  0  0  0  0  0  0
    1.2672  -14.9138    3.3067 C   0  0  0  0  0  0  0  0  0  0  0  0
    0.7817  -16.1996    2.9556 N   0  0  0  0  0  0  0  0  0  0  0  0
  4  5  1  0
  5  8  2  0
  5  9  1  0
  2 10  1  0
  6 11  1  0
  3 12  1  0
 12 13  1  0
 13 14  1  0
 14 15  1  0
 15 16  1  0
 16 17  1  0
 15 18  1  0
 18 19  1  0
  1  2  2  0
  2  3  1  0
  3  4  2  0
  4  7  1  0
  6  7  2  0
  1  6  1  0
M  END

$$$$
No_4820-/export/home/yangzhenyu/potential_scad_32_flow//YTHDC2/2024-12-06-03-22-00/
     RDKit          3D

 17 18  0  0  0  0  0  0  0  0999 V2000
    1.1787   -8.0297    3.5154 C   0  0  0  0  0  0  0  0  0  0  0  0
    1.0491   -6.8434    2.9820 C   0  0  0  0  0  0  0  0  0  0  0  0
    0.2462   -8.9560    3.0873 C   0  0  0  0  0  0  0  0  0  0  0  0
    0.3295   -6.5187    1.9069 C   0  0  0  0  0  0  0  0  0  0  0  0
   -0.5260   -8.7862    2.1368 C   0  0  0  0  0  0  0  0  0  0  0  0
   -0.5458   -7.5614    1.5054 C   0  0  0  0  0  0  0  0  0  0  0  0
    0.3663  -10.3301    3.7373 C   0  0  0  0  0  0  0  0  0  0  0  0
    0.4170  -11.5175    2.8838 C   0  0  0  0  0  0  0  0  0  0  0  0
   -0.3838  -11.9594    2.2729 C   0  0  0  0  0  0  0  0  0  0  0  0
   -0.0461  -13.2053    1.5650 C   0  0  0  0  0  0  0  0  0  0  0  0
    1.0728  -13.6578    1.5298 C   0  0  0  0  0  0  0  0  0  0  0  0
    2.1526  -13.1590    2.2932 C   0  0  0  0  0  0  0  0  0  0  0  0
    1.8960  -12.0747    3.0043 C   0  0  0  0  0  0  0  0  0  0  0  0
    0.3349   -5.2758    1.3221 Cl  0  0  0  0  0  0  0  0  0  0  0  0
    2.8236  -11.4510    3.8105 N   0  0  0  0  0  0  0  0  0  0  0  0
   -0.0135  -10.4056    5.0677 O   0  0  0  0  0  0  0  0  0  0  0  0
   -1.1063  -13.7837    0.6595 C   0  0  0  0  0  0  0  0  0  0  0  0
  3  7  1  0
  7  8  1  0
  4 14  1  0
  7 16  2  0
 10 17  1  0
 13 15  1  0
  1  2  2  0
  2  4  1  0
  4  6  2  0
  5  6  1  0
  3  5  2  0
  1  3  1  0
  8  9  2  0
  9 10  1  0
 10 11  2  0
 11 12  1  0
 12 13  2  0
  8 13  1  0
M  END

$$$$
No_4821-/export/home/yangzhenyu/potential_scad_32_flow//YTHDC2/2024-12-06-03-22-00/
     RDKit          3D

 18 19  0  0  0  0  0  0  0  0999 V2000
    1.1787   -8.0297    3.5154 C   0  0  0  0  0  0  0  0  0  0  0  0
    1.0491   -6.8434    2.9820 C   0  0  0  0  0  0  0  0  0  0  0  0
    0.9905   -9.0774    2.6527 C   0  0  0  0  0  0  0  0  0  0  0  0
    0.7897   -8.9519    1.3691 C   0  0  0  0  0  0  0  0  0  0  0  0
    0.7018   -7.7198    0.7892 C   0  0  0  0  0  0  0  0  0  0  0  0
    0.8918   -6.5957    1.6117 C   0  0  0  0  0  0  0  0  0  0  0  0
    1.0600  -10.5680    3.3321 C   0  0  0  0  0  0  0  0  0  0  0  0
   -0.1041  -11.1772    3.5150 C   0  0  0  0  0  0  0  0  0  0  0  0
   -0.1608  -12.4876    3.3268 C   0  0  0  0  0  0  0  0  0  0  0  0
    0.9865  -13.2841    3.1741 C   0  0  0  0  0  0  0  0  0  0  0  0
    2.2316  -12.5817    3.0045 C   0  0  0  0  0  0  0  0  0  0  0  0
    2.2290  -11.2587    2.9229 C   0  0  0  0  0  0  0  0  0  0  0  0
    0.9652  -14.6598    3.2128 C   0  0  0  0  0  0  0  0  0  0  0  0
    0.6316  -15.4207    2.2902 C   0  0  0  0  0  0  0  0  0  0  0  0
    0.8551   -5.2764    1.1190 C   0  0  0  0  0  0  0  0  0  0  0  0
    0.4866  -15.0251    1.1848 C   0  0  0  0  0  0  0  0  0  0  0  0
    0.2034  -15.7048    0.3190 C   0  0  0  0  0  0  0  0  0  0  0  0
    0.1080  -17.0420    0.1818 C   0  0  0  0  0  0  0  0  0  0  0  0
  3  7  1  0
 10 13  1  0
 13 14  1  0
  6 15  1  0
 14 16  1  0
 16 17  2  3
 17 18  1  0
  1  2  2  0
  2  6  1  0
  5  6  2  0
  4  5  1  0
  3  4  2  0
  1  3  1  0
  7  8  2  0
  8  9  1  0
  9 10  2  0
 10 11  1  0
 11 12  2  0
  7 12  1  0
M  END

$$$$
No_4822-/export/home/yangzhenyu/potential_scad_32_flow//YTHDC2/2024-12-06-03-22-00/
     RDKit          3D

 18 18  0  0  1  0  0  0  0  0999 V2000
    1.1787   -8.0297    3.5154 C   0  0  0  0  0  0  0  0  0  0  0  0
    1.0491   -6.8434    2.9820 C   0  0  0  0  0  0  0  0  0  0  0  0
    1.9985   -8.9840    2.8958 C   0  0  0  0  0  0  0  0  0  0  0  0
    1.9135  -10.3404    3.6266 C   0  0  0  0  0  0  0  0  0  0  0  0
    0.7479  -10.9191    3.7202 C   0  0  0  0  0  0  0  0  0  0  0  0
    0.2782   -6.7158    1.8352 O   0  0  0  0  0  0  0  0  0  0  0  0
    0.6700  -12.2876    3.5382 O   0  0  0  0  0  0  0  0  0  0  0  0
    1.6914   -5.7254    3.2653 N   0  0  0  0  0  0  0  0  0  0  0  0
   -0.2656  -10.3536    4.1803 O   0  0  0  0  0  0  0  0  0  0  0  0
    1.4205   -4.5346    2.5783 C   0  0  0  0  0  0  0  0  0  0  0  0
    0.1887   -4.1447    2.4689 C   0  0  1  0  0  0  0  0  0  0  0  0
   -0.4399   -3.4215    3.4862 C   0  0  0  0  0  0  0  0  0  0  0  0
   -0.7125   -2.3855    3.3991 C   0  0  0  0  0  0  0  0  0  0  0  0
   -0.3794   -4.2111    1.2761 C   0  0  0  0  0  0  0  0  0  0  0  0
   -0.2430   -3.0454    0.5014 C   0  0  0  0  0  0  0  0  0  0  0  0
    0.7097   -2.2524    0.8626 C   0  0  0  0  0  0  0  0  0  0  0  0
    0.0639   -1.2878    1.9870 C   0  0  0  0  0  0  0  0  0  0  0  0
   -0.5420   -3.1917   -0.8376 O   0  0  0  0  0  0  0  0  0  0  0  0
  1  2  1  0
  1  3  1  0
  3  4  1  0
  4  5  1  0
  2  6  2  0
  5  7  1  0
  2  8  1  0
  5  9  2  0
  8 10  1  0
 11 10  1  6
 11 12  1  0
 12 13  1  0
 11 14  1  0
 14 15  1  0
 15 16  1  0
 13 17  1  0
 16 17  1  0
 15 18  2  0
M  END

$$$$
No_4823-/export/home/yangzhenyu/potential_scad_32_flow//YTHDC2/2024-12-06-03-22-00/
     RDKit          3D

 19 19  0  0  0  0  0  0  0  0999 V2000
    1.1787   -8.0297    3.5154 C   0  0  0  0  0  0  0  0  0  0  0  0
    1.1048   -9.2215    3.2892 C   0  0  0  0  0  0  0  0  0  0  0  0
    1.2339   -9.7611    2.0189 C   0  0  0  0  0  0  0  0  0  0  0  0
    1.3583   -9.0036    0.9764 C   0  0  0  0  0  0  0  0  0  0  0  0
    1.7077   -9.6100   -0.3010 C   0  0  0  0  0  0  0  0  0  0  0  0
    1.3637   -7.1087    2.3226 C   0  0  0  0  0  0  0  0  0  0  0  0
    1.4257   -7.6645    1.0231 C   0  0  0  0  0  0  0  0  0  0  0  0
    1.9364   -8.8976   -1.3212 O   0  0  0  0  0  0  0  0  0  0  0  0
    1.5810  -10.8409   -0.4184 O   0  0  0  0  0  0  0  0  0  0  0  0
    1.3320   -5.4489    2.5095 C   0  0  0  0  0  0  0  0  0  0  0  0
    1.0620  -10.1759    4.3808 C   0  0  0  0  0  0  0  0  0  0  0  0
    1.0083  -11.7032    4.0239 N   0  0  0  0  0  0  0  0  0  0  0  0
    2.1306  -12.3751    4.0211 C   0  0  0  0  0  0  0  0  0  0  0  0
    2.0550  -13.2716    2.7294 C   0  0  0  0  0  0  0  0  0  0  0  0
    0.8995  -14.2219    2.9635 F   0  0  0  0  0  0  0  0  0  0  0  0
    1.7650  -12.5347    1.6772 F   0  0  0  0  0  0  0  0  0  0  0  0
    3.0145  -13.9767    2.4568 F   0  0  0  0  0  0  0  0  0  0  0  0
    1.1537   -4.8051    1.3668 O   0  0  0  0  0  0  0  0  0  0  0  0
    1.6775   -4.9973    3.6014 O   0  0  0  0  0  0  0  0  0  0  0  0
  4  5  1  0
  5  8  1  0
  5  9  2  0
  6 10  1  0
  2 11  1  0
 11 12  1  0
 12 13  1  0
 13 14  1  0
 14 15  1  0
 14 16  1  0
 14 17  1  0
 10 18  1  0
 10 19  2  0
  1  2  2  0
  2  3  1  0
  3  4  2  0
  4  7  1  0
  6  7  2  0
  1  6  1  0
M  END

$$$$
No_4824-/export/home/yangzhenyu/potential_scad_32_flow//YTHDC2/2024-12-06-03-22-00/
     RDKit          3D

 19 20  0  0  0  0  0  0  0  0999 V2000
    1.1787   -8.0297    3.5154 C   0  0  0  0  0  0  0  0  0  0  0  0
    1.0491   -6.8434    2.9820 C   0  0  0  0  0  0  0  0  0  0  0  0
    0.2462   -8.9560    3.0873 C   0  0  0  0  0  0  0  0  0  0  0  0
    0.3295   -6.5187    1.9069 C   0  0  0  0  0  0  0  0  0  0  0  0
   -0.5260   -8.7862    2.1368 C   0  0  0  0  0  0  0  0  0  0  0  0
   -0.5458   -7.5614    1.5054 C   0  0  0  0  0  0  0  0  0  0  0  0
    0.3636   -5.3203    1.2895 C   0  0  0  0  0  0  0  0  0  0  0  0
   -0.3374   -4.2631    1.7514 O   0  0  0  0  0  0  0  0  0  0  0  0
    0.3666  -10.3437    3.6539 C   0  0  0  0  0  0  0  0  0  0  0  0
    1.5249  -10.9291    3.9639 C   0  0  0  0  0  0  0  0  0  0  0  0
    1.9099  -11.9927    3.1987 N   0  0  0  0  0  0  0  0  0  0  0  0
    1.6673  -13.2272    3.5768 C   0  0  0  0  0  0  0  0  0  0  0  0
    1.9547  -14.3084    2.4808 C   0  0  0  0  0  0  0  0  0  0  0  0
    1.3175  -14.4864    1.5514 C   0  0  0  0  0  0  0  0  0  0  0  0
    0.3031  -14.1741    1.4374 C   0  0  0  0  0  0  0  0  0  0  0  0
   -0.4014  -14.0625    0.0701 C   0  0  0  0  0  0  0  0  0  0  0  0
   -0.2309  -15.0338   -0.7847 C   0  0  0  0  0  0  0  0  0  0  0  0
    1.1036  -15.6589   -0.7329 C   0  0  0  0  0  0  0  0  0  0  0  0
    1.8723  -15.3613    0.4345 C   0  0  0  0  0  0  0  0  0  0  0  0
  4  7  1  0
  7  8  1  0
  3  9  1  0
  9 10  1  0
 10 11  1  0
 11 12  1  0
 12 13  1  0
 13 14  1  0
 14 15  2  0
 15 16  1  0
 16 17  2  0
 17 18  1  0
 18 19  2  0
 14 19  1  0
  1  2  2  0
  2  4  1  0
  4  6  2  0
  5  6  1  0
  3  5  2  0
  1  3  1  0
M  END

$$$$
No_4825-/export/home/yangzhenyu/potential_scad_32_flow//YTHDC2/2024-12-06-03-22-00/
     RDKit          3D

 18 19  0  0  0  0  0  0  0  0999 V2000
    1.1787   -8.0297    3.5154 C   0  0  0  0  0  0  0  0  0  0  0  0
    1.0491   -6.8434    2.9820 C   0  0  0  0  0  0  0  0  0  0  0  0
    0.9905   -9.0774    2.6527 C   0  0  0  0  0  0  0  0  0  0  0  0
    0.7897   -8.9519    1.3691 C   0  0  0  0  0  0  0  0  0  0  0  0
    0.7018   -7.7198    0.7892 C   0  0  0  0  0  0  0  0  0  0  0  0
    0.8918   -6.5957    1.6117 C   0  0  0  0  0  0  0  0  0  0  0  0
    1.0711  -10.4814    3.2282 C   0  0  0  0  0  0  0  0  0  0  0  0
    2.1432  -11.0138    3.5962 C   0  0  0  0  0  0  0  0  0  0  0  0
   -0.0553  -11.2345    3.2841 C   0  0  0  0  0  0  0  0  0  0  0  0
   -0.1131  -12.4857    3.1636 C   0  0  0  0  0  0  0  0  0  0  0  0
    1.1361  -13.1925    3.4825 C   0  0  0  0  0  0  0  0  0  0  0  0
    2.2643  -12.4364    3.7039 C   0  0  0  0  0  0  0  0  0  0  0  0
    0.8285   -5.2828    1.0964 O   0  0  0  0  0  0  0  0  0  0  0  0
    1.2118  -14.5654    3.5957 Br  0  0  0  0  0  0  0  0  0  0  0  0
    0.4198   -4.1925    1.8185 C   0  0  0  0  0  0  0  0  0  0  0  0
   -0.9675   -4.0739    1.8587 C   0  0  0  0  0  0  0  0  0  0  0  0
   -1.6876   -4.2584    0.8712 C   0  0  0  0  0  0  0  0  0  0  0  0
   -1.5383   -3.5198   -0.2377 C   0  0  0  0  0  0  0  0  0  0  0  0
  3  7  1  0
  6 13  1  0
 11 14  1  0
 13 15  1  0
 15 16  1  0
 16 17  1  0
 17 18  1  0
  1  2  2  0
  2  6  1  0
  5  6  2  0
  4  5  1  0
  3  4  2  0
  1  3  1  0
  7  8  2  0
  8 12  1  0
 11 12  2  0
 10 11  1  0
  9 10  2  0
  7  9  1  0
M  END

$$$$
No_4826-/export/home/yangzhenyu/potential_scad_32_flow//YTHDC2/2024-12-06-03-22-00/
     RDKit          3D

 18 19  0  0  1  0  0  0  0  0999 V2000
    1.1787   -8.0297    3.5154 C   0  0  0  0  0  0  0  0  0  0  0  0
    1.1048   -9.2215    3.2892 C   0  0  0  0  0  0  0  0  0  0  0  0
    1.2339   -9.7611    2.0189 C   0  0  0  0  0  0  0  0  0  0  0  0
    1.3583   -9.0036    0.9764 C   0  0  0  0  0  0  0  0  0  0  0  0
    1.5996   -7.6362    1.1311 C   0  0  0  0  0  0  0  0  0  0  0  0
    1.4830   -7.0928    2.3626 C   0  0  0  0  0  0  0  0  0  0  0  0
    1.5395   -5.7300    2.6182 C   0  0  0  0  0  0  0  0  0  0  0  0
    1.1775  -11.2233    1.8407 C   0  0  0  0  0  0  0  0  0  0  0  0
    1.9057  -12.1147    2.3397 C   0  0  0  0  0  0  0  0  0  0  0  0
    1.6867  -13.4551    2.0621 C   0  0  2  0  0  0  0  0  0  0  0  0
    0.7025  -13.8511    1.3021 C   0  0  0  0  0  0  0  0  0  0  0  0
   -0.1111  -12.9140    0.6527 C   0  0  0  0  0  0  0  0  0  0  0  0
    0.1535  -11.5434    0.9240 C   0  0  0  0  0  0  0  0  0  0  0  0
    1.2825   -4.8055    1.6933 O   0  0  0  0  0  0  0  0  0  0  0  0
    1.8129   -5.1761    3.8058 O   0  0  0  0  0  0  0  0  0  0  0  0
    2.5147  -14.4250    2.7642 O   0  0  0  0  0  0  0  0  0  0  0  0
   -0.7720  -10.7106    0.4405 O   0  0  0  0  0  0  0  0  0  0  0  0
   -1.0873  -13.3937   -0.2564 O   0  0  0  0  0  0  0  0  0  0  0  0
  6  7  1  0
  3  8  1  0
  8  9  1  0
 10 11  1  0
  8 13  1  0
 12 13  1  0
  7 14  1  0
  7 15  2  0
 10 16  1  1
 13 17  2  0
 12 18  1  0
  9 10  1  0
 11 12  1  0
  1  2  2  0
  2  3  1  0
  3  4  2  0
  4  5  1  0
  5  6  2  0
  1  6  1  0
M  END

$$$$
No_4827-/export/home/yangzhenyu/potential_scad_32_flow//YTHDC2/2024-12-06-03-22-00/
     RDKit          3D

 19 20  0  0  0  0  0  0  0  0999 V2000
    1.1787   -8.0297    3.5154 C   0  0  0  0  0  0  0  0  0  0  0  0
    1.0491   -6.8434    2.9820 C   0  0  0  0  0  0  0  0  0  0  0  0
    0.0950   -8.8404    3.2292 C   0  0  0  0  0  0  0  0  0  0  0  0
   -0.9173   -8.4596    2.5152 C   0  0  0  0  0  0  0  0  0  0  0  0
   -1.0331   -7.2162    2.0653 C   0  0  0  0  0  0  0  0  0  0  0  0
   -0.0105   -6.3168    2.3081 C   0  0  0  0  0  0  0  0  0  0  0  0
    0.1465  -10.2446    3.6981 C   0  0  0  0  0  0  0  0  0  0  0  0
    1.2433  -10.8239    4.0166 C   0  0  0  0  0  0  0  0  0  0  0  0
    1.0790  -12.2885    4.3778 N   0  0  0  0  0  0  0  0  0  0  0  0
    0.6753  -12.8866    3.3340 C   0  0  0  0  0  0  0  0  0  0  0  0
    0.7075  -14.3636    3.4679 N   0  0  0  0  0  0  0  0  0  0  0  0
    0.1485  -12.4456    2.1903 C   0  0  0  0  0  0  0  0  0  0  0  0
   -0.1949  -13.4304    1.2256 C   0  0  0  0  0  0  0  0  0  0  0  0
   -0.8318  -12.7761    0.0656 C   0  0  0  0  0  0  0  0  0  0  0  0
   -0.7193  -11.4468   -0.1189 C   0  0  0  0  0  0  0  0  0  0  0  0
   -0.3096  -10.5968    0.8273 C   0  0  0  0  0  0  0  0  0  0  0  0
    0.3053  -11.0752    1.9495 C   0  0  0  0  0  0  0  0  0  0  0  0
   -0.0349   -4.8218    1.7840 C   0  0  0  0  0  0  0  0  0  0  0  0
   -0.6552   -4.5606    0.7662 C   0  0  0  0  0  0  0  0  0  0  0  0
  3  7  1  0
  7  8  2  3
  8  9  1  0
  9 10  2  3
 10 11  1  0
 10 12  1  0
  6 18  1  0
 18 19  1  0
 12 13  2  0
 13 14  1  0
 14 15  2  0
 15 16  1  0
 16 17  2  0
 12 17  1  0
  1  2  2  0
  2  6  1  0
  5  6  2  0
  4  5  1  0
  3  4  2  0
  1  3  1  0
M  END

$$$$
No_4828-/export/home/yangzhenyu/potential_scad_32_flow//YTHDC2/2024-12-06-03-22-00/
     RDKit          3D

 19 20  0  0  1  0  0  0  0  0999 V2000
    1.1787   -8.0297    3.5154 C   0  0  0  0  0  0  0  0  0  0  0  0
    1.0491   -6.8434    2.9820 C   0  0  0  0  0  0  0  0  0  0  0  0
    0.9905   -9.0774    2.6527 C   0  0  0  0  0  0  0  0  0  0  0  0
    1.1655  -10.4663    3.1286 C   0  0  2  0  0  0  0  0  0  0  0  0
    1.7409  -10.6480    4.4599 N   0  0  0  0  0  0  0  0  0  0  0  0
    0.5943   -6.5858    1.7072 C   0  0  0  0  0  0  0  0  0  0  0  0
    0.3327   -7.6176    0.9190 C   0  0  0  0  0  0  0  0  0  0  0  0
    0.5024   -8.9174    1.3220 C   0  0  0  0  0  0  0  0  0  0  0  0
    1.0502  -11.4822    2.3750 C   0  0  0  0  0  0  0  0  0  0  0  0
    0.8543  -12.7698    3.0859 C   0  0  0  0  0  0  0  0  0  0  0  0
    1.1551  -13.8140    2.5417 C   0  0  0  0  0  0  0  0  0  0  0  0
    1.5052  -13.9901    1.2608 C   0  0  0  0  0  0  0  0  0  0  0  0
    1.7105  -12.9469    0.5157 C   0  0  0  0  0  0  0  0  0  0  0  0
    1.5181  -11.7074    1.0538 C   0  0  0  0  0  0  0  0  0  0  0  0
    0.4112   -5.2647    1.1526 C   0  0  0  0  0  0  0  0  0  0  0  0
   -0.6474   -4.8357    0.5780 C   0  0  0  0  0  0  0  0  0  0  0  0
   -1.3568   -4.0271    0.9450 C   0  0  0  0  0  0  0  0  0  0  0  0
   -0.7722   -2.9404    1.7713 C   0  0  0  0  0  0  0  0  0  0  0  0
    0.3362   -3.1352    2.4262 C   0  0  0  0  0  0  0  0  0  0  0  0
  3  4  1  0
  4  5  1  6
  4  9  1  0
  6 15  1  0
 15 16  1  0
 16 17  2  3
 17 18  1  0
 18 19  2  0
  9 10  2  0
 10 11  1  0
 11 12  2  0
 12 13  1  0
 13 14  2  0
  9 14  1  0
  1  2  2  0
  2  6  1  0
  6  7  2  0
  7  8  1  0
  3  8  2  0
  1  3  1  0
M  END

$$$$
No_4829-/export/home/yangzhenyu/potential_scad_32_flow//YTHDC2/2024-12-06-03-22-00/
     RDKit          3D

 20 21  0  0  0  0  0  0  0  0999 V2000
    1.1787   -8.0297    3.5154 C   0  0  0  0  0  0  0  0  0  0  0  0
    1.0491   -6.8434    2.9820 C   0  0  0  0  0  0  0  0  0  0  0  0
    1.0690   -9.1150    2.7206 C   0  0  0  0  0  0  0  0  0  0  0  0
    0.9689   -6.6391    1.6260 C   0  0  0  0  0  0  0  0  0  0  0  0
    0.9670   -9.0334    1.3824 C   0  0  0  0  0  0  0  0  0  0  0  0
    0.8189   -7.7113    0.8022 C   0  0  0  0  0  0  0  0  0  0  0  0
    1.2122  -10.5176    3.2445 C   0  0  0  0  0  0  0  0  0  0  0  0
    0.3325  -11.3891    3.1392 N   0  0  0  0  0  0  0  0  0  0  0  0
    0.3839  -12.3178    2.6424 C   0  0  0  0  0  0  0  0  0  0  0  0
    1.5978  -13.1178    2.5813 C   0  0  0  0  0  0  0  0  0  0  0  0
    1.6454  -14.4564    2.0264 C   0  0  0  0  0  0  0  0  0  0  0  0
    0.6774  -15.0036    1.5337 C   0  0  0  0  0  0  0  0  0  0  0  0
   -0.5198  -14.3714    1.4144 C   0  0  0  0  0  0  0  0  0  0  0  0
   -0.6549  -13.0811    1.8989 C   0  0  0  0  0  0  0  0  0  0  0  0
    0.9398   -5.3788    1.0587 C   0  0  0  0  0  0  0  0  0  0  0  0
    2.3674  -10.6758    4.0454 O   0  0  0  0  0  0  0  0  0  0  0  0
    0.2046   -4.3520    1.8285 C   0  0  0  0  0  0  0  0  0  0  0  0
   -1.1617   -4.4480    1.6964 C   0  0  0  0  0  0  0  0  0  0  0  0
   -1.8532   -3.6954    2.0129 C   0  0  0  0  0  0  0  0  0  0  0  0
   -1.3381   -2.5011    2.6223 C   0  0  0  0  0  0  0  0  0  0  0  0
  3  7  1  0
  7  8  1  0
  8  9  1  0
  4 15  1  0
  7 16  2  0
 15 17  1  0
 17 18  1  0
 18 19  2  3
 19 20  1  0
  1  2  2  0
  2  4  1  0
  4  6  2  0
  5  6  1  0
  3  5  2  0
  1  3  1  0
  9 10  2  0
 10 11  1  0
 11 12  2  0
 12 13  1  0
 13 14  2  0
  9 14  1  0
M  END

$$$$
No_4830-/export/home/yangzhenyu/potential_scad_32_flow//YTHDC2/2024-12-06-03-22-00/
     RDKit          3D

 19 20  0  0  0  0  0  0  0  0999 V2000
    1.1787   -8.0297    3.5154 C   0  0  0  0  0  0  0  0  0  0  0  0
    1.0491   -6.8434    2.9820 C   0  0  0  0  0  0  0  0  0  0  0  0
    0.9905   -9.0774    2.6527 C   0  0  0  0  0  0  0  0  0  0  0  0
    1.1655  -10.4663    3.1286 C   0  0  0  0  0  0  0  0  0  0  0  0
    1.2197  -11.4898    2.5831 C   0  0  0  0  0  0  0  0  0  0  0  0
    1.0589  -11.4458    1.1293 C   0  0  0  0  0  0  0  0  0  0  0  0
    0.9638  -10.3069    0.4651 C   0  0  0  0  0  0  0  0  0  0  0  0
    0.9191   -9.0789    1.1942 C   0  0  0  0  0  0  0  0  0  0  0  0
    0.9198   -7.8339    0.6158 C   0  0  0  0  0  0  0  0  0  0  0  0
    1.0184   -6.6904    1.4953 C   0  0  0  0  0  0  0  0  0  0  0  0
    1.3445  -12.8198    3.0746 C   0  0  0  0  0  0  0  0  0  0  0  0
    2.4561  -13.4589    3.0887 N   0  0  0  0  0  0  0  0  0  0  0  0
    1.3978   -5.5985    3.6202 C   0  0  0  0  0  0  0  0  0  0  0  0
    1.0572   -4.3775    3.2402 O   0  0  0  0  0  0  0  0  0  0  0  0
    0.2312  -13.4770    3.4419 O   0  0  0  0  0  0  0  0  0  0  0  0
    1.6431   -5.6491    4.8196 O   0  0  0  0  0  0  0  0  0  0  0  0
    1.3378  -10.4863    4.6003 O   0  0  0  0  0  0  0  0  0  0  0  0
    3.1533  -13.7882    2.3409 O   0  0  0  0  0  0  0  0  0  0  0  0
    0.8614   -7.6977   -0.6031 O   0  0  0  0  0  0  0  0  0  0  0  0
  5 11  1  0
 11 12  1  0
  2 13  1  0
 13 14  2  0
 11 15  2  0
 13 16  1  0
  4 17  1  0
 12 18  2  0
  9 19  1  0
  1  2  2  0
  2 10  1  0
  9 10  2  0
  8  9  1  0
  1  3  1  0
  3  4  2  0
  4  5  1  0
  5  6  2  0
  6  7  1  0
  7  8  2  0
  3  8  1  0
M  END

$$$$
No_4831-/export/home/yangzhenyu/potential_scad_32_flow//YTHDC2/2024-12-06-03-22-00/
     RDKit          3D

 18 19  0  0  0  0  0  0  0  0999 V2000
    1.1787   -8.0297    3.5154 C   0  0  0  0  0  0  0  0  0  0  0  0
    1.0491   -6.8434    2.9820 C   0  0  0  0  0  0  0  0  0  0  0  0
    0.0950   -8.8404    3.2292 C   0  0  0  0  0  0  0  0  0  0  0  0
   -0.9173   -8.4596    2.5152 C   0  0  0  0  0  0  0  0  0  0  0  0
   -1.0331   -7.2162    2.0653 C   0  0  0  0  0  0  0  0  0  0  0  0
   -0.0105   -6.3168    2.3081 C   0  0  0  0  0  0  0  0  0  0  0  0
    0.0485   -4.9783    1.8782 C   0  0  0  0  0  0  0  0  0  0  0  0
    0.9625   -4.1072    2.3252 C   0  0  0  0  0  0  0  0  0  0  0  0
    0.1334  -10.2884    3.6719 C   0  0  0  0  0  0  0  0  0  0  0  0
    1.1796  -10.9472    4.0916 C   0  0  0  0  0  0  0  0  0  0  0  0
    1.6950  -11.8186    3.2046 C   0  0  0  0  0  0  0  0  0  0  0  0
    1.5066  -11.4965    1.8636 C   0  0  0  0  0  0  0  0  0  0  0  0
    1.0300  -12.5287    1.0114 C   0  0  0  0  0  0  0  0  0  0  0  0
    0.7821  -13.7845    1.4598 C   0  0  0  0  0  0  0  0  0  0  0  0
    1.0945  -14.2106    2.4884 C   0  0  0  0  0  0  0  0  0  0  0  0
    1.5261  -13.2512    3.6242 C   0  0  0  0  0  0  0  0  0  0  0  0
    0.8065  -15.5519    3.1050 C   0  0  0  0  0  0  0  0  0  0  0  0
   -0.6601   -4.4968    0.7709 O   0  0  0  0  0  0  0  0  0  0  0  0
  6  7  1  0
  7  8  2  0
  3  9  1  0
  9 10  1  0
 10 11  1  0
 15 17  1  0
  7 18  1  0
 11 12  2  0
 12 13  1  0
 13 14  2  0
 14 15  1  0
 15 16  2  0
 11 16  1  0
  1  2  2  0
  2  6  1  0
  5  6  2  0
  4  5  1  0
  3  4  2  0
  1  3  1  0
M  END

$$$$
No_4832-/export/home/yangzhenyu/potential_scad_32_flow//YTHDC2/2024-12-06-03-22-00/
     RDKit          3D

 18 19  0  0  0  0  0  0  0  0999 V2000
    1.1787   -8.0297    3.5154 C   0  0  0  0  0  0  0  0  0  0  0  0
    1.0491   -6.8434    2.9820 C   0  0  0  0  0  0  0  0  0  0  0  0
    0.9905   -9.0774    2.6527 C   0  0  0  0  0  0  0  0  0  0  0  0
    0.7897   -8.9519    1.3691 C   0  0  0  0  0  0  0  0  0  0  0  0
    0.7018   -7.7198    0.7892 C   0  0  0  0  0  0  0  0  0  0  0  0
    0.8918   -6.5957    1.6117 C   0  0  0  0  0  0  0  0  0  0  0  0
    1.0774  -10.6059    3.3145 C   0  0  0  0  0  0  0  0  0  0  0  0
   -0.1032  -11.1934    3.4585 C   0  0  0  0  0  0  0  0  0  0  0  0
   -0.6526  -11.6596    2.5137 C   0  0  0  0  0  0  0  0  0  0  0  0
    0.0987  -12.0995    1.4264 C   0  0  0  0  0  0  0  0  0  0  0  0
    1.4570  -11.6566    1.3384 C   0  0  0  0  0  0  0  0  0  0  0  0
    1.9301  -10.9176    2.3091 C   0  0  0  0  0  0  0  0  0  0  0  0
    0.8827   -5.0396    1.0449 I   0  0  0  0  0  0  0  0  0  0  0  0
   -1.9745  -12.2735    2.6690 O   0  0  0  0  0  0  0  0  0  0  0  0
   -2.9134  -11.3285    2.9634 C   0  0  0  0  0  0  0  0  0  0  0  0
   -3.1035  -10.3879    2.1982 C   0  0  0  0  0  0  0  0  0  0  0  0
   -3.9609   -9.6438    2.2306 N   0  0  0  0  0  0  0  0  0  0  0  0
   -4.6695   -9.7206    2.9462 H   0  0  0  0  0  0  0  0  0  0  0  0
  3  7  1  0
  6 13  1  0
  9 14  1  0
 14 15  1  0
 15 16  1  0
 16 17  2  0
  1  2  2  0
  2  6  1  0
  5  6  2  0
  4  5  1  0
  3  4  2  0
  1  3  1  0
  7  8  2  0
  8  9  1  0
  9 10  2  0
 10 11  1  0
 11 12  2  0
  7 12  1  0
 17 18  1  0
M  END

$$$$
No_4833-/export/home/yangzhenyu/potential_scad_32_flow//YTHDC2/2024-12-06-03-22-00/
     RDKit          3D

 17 17  0  0  1  0  0  0  0  0999 V2000
    1.1787   -8.0297    3.5154 C   0  0  0  0  0  0  0  0  0  0  0  0
    1.1048   -9.2215    3.2892 C   0  0  0  0  0  0  0  0  0  0  0  0
    1.2339   -9.7611    2.0189 C   0  0  0  0  0  0  0  0  0  0  0  0
    1.3583   -9.0036    0.9764 C   0  0  0  0  0  0  0  0  0  0  0  0
    1.5996   -7.6362    1.1311 C   0  0  0  0  0  0  0  0  0  0  0  0
    1.4830   -7.0928    2.3626 C   0  0  0  0  0  0  0  0  0  0  0  0
    1.1171  -11.3311    1.8661 C   0  0  0  0  0  0  0  0  0  0  0  0
    0.5042  -11.9974    2.3631 C   0  0  0  0  0  0  0  0  0  0  0  0
    0.4547  -13.3874    2.1599 C   0  0  2  0  0  0  0  0  0  0  0  0
   -0.5486  -14.0819    1.9701 C   0  0  0  0  0  0  0  0  0  0  0  0
    1.7529  -13.8238    2.4893 C   0  0  0  0  0  0  0  0  0  0  0  0
    1.5733   -5.6530    2.6416 C   0  0  0  0  0  0  0  0  0  0  0  0
    1.9888  -15.3779    2.3309 O   0  0  0  0  0  0  0  0  0  0  0  0
   -1.2462  -14.0966    0.8383 C   0  0  0  0  0  0  0  0  0  0  0  0
   -0.5804  -14.5386   -0.2614 C   0  0  0  0  0  0  0  0  0  0  0  0
   -1.1223  -14.3094   -1.5311 C   0  0  0  0  0  0  0  0  0  0  0  0
   -2.2747  -13.7821   -1.7249 F   0  0  0  0  0  0  0  0  0  0  0  0
  3  7  1  0
  7  8  2  3
  8  9  1  0
  9 10  1  1
  9 11  1  0
  6 12  1  0
 11 13  1  0
 10 14  1  0
 14 15  1  0
 15 16  2  3
 16 17  1  0
  1  2  2  0
  2  3  1  0
  3  4  2  0
  4  5  1  0
  5  6  2  0
  1  6  1  0
M  END

$$$$
No_4834-/export/home/yangzhenyu/potential_scad_32_flow//YTHDC2/2024-12-06-03-22-00/
     RDKit          3D

 18 19  0  0  0  0  0  0  0  0999 V2000
    1.1787   -8.0297    3.5154 C   0  0  0  0  0  0  0  0  0  0  0  0
    1.0491   -6.8434    2.9820 C   0  0  0  0  0  0  0  0  0  0  0  0
    1.9985   -8.9840    2.8958 C   0  0  0  0  0  0  0  0  0  0  0  0
    1.1815  -10.1889    2.5497 C   0  0  0  0  0  0  0  0  0  0  0  0
    0.3496  -10.1352    1.6537 C   0  0  0  0  0  0  0  0  0  0  0  0
    0.2726  -10.8443    0.9221 C   0  0  0  0  0  0  0  0  0  0  0  0
    0.8884  -12.2473    1.0851 C   0  0  0  0  0  0  0  0  0  0  0  0
    1.9321  -12.4155    1.9755 C   0  0  0  0  0  0  0  0  0  0  0  0
    2.0858  -11.2296    2.8823 C   0  0  0  0  0  0  0  0  0  0  0  0
    0.2681   -6.5509    1.8745 C   0  0  0  0  0  0  0  0  0  0  0  0
   -0.8730   -6.6905    2.1791 C   0  0  0  0  0  0  0  0  0  0  0  0
   -1.4432   -6.1466    3.1665 C   0  0  0  0  0  0  0  0  0  0  0  0
   -2.8421   -6.3943    3.5008 C   0  0  0  0  0  0  0  0  0  0  0  0
   -3.4998   -7.2589    2.7364 C   0  0  0  0  0  0  0  0  0  0  0  0
   -3.0100   -7.8992    1.6745 C   0  0  0  0  0  0  0  0  0  0  0  0
   -1.7096   -7.5880    1.2173 C   0  0  0  0  0  0  0  0  0  0  0  0
    0.7498   -6.1297    0.7293 C   0  0  0  0  0  0  0  0  0  0  0  0
    2.7852  -11.3237    4.0090 C   0  0  0  0  0  0  0  0  0  0  0  0
  1  2  1  0
  1  3  1  0
  3  4  1  0
  2 10  1  0
 10 11  1  0
 10 17  1  0
  9 18  1  0
 11 12  2  0
 12 13  1  0
 13 14  2  0
 14 15  1  0
 15 16  2  0
 11 16  1  0
  4  5  2  0
  5  6  1  0
  6  7  2  0
  7  8  1  0
  8  9  2  0
  4  9  1  0
M  END

$$$$
No_4835-/export/home/yangzhenyu/potential_scad_32_flow//YTHDC2/2024-12-06-03-22-00/
     RDKit          3D

 19 20  0  0  1  0  0  0  0  0999 V2000
    1.1787   -8.0297    3.5154 C   0  0  0  0  0  0  0  0  0  0  0  0
    1.0491   -6.8434    2.9820 C   0  0  1  0  0  0  0  0  0  0  0  0
    0.9905   -9.0774    2.6527 C   0  0  0  0  0  0  0  0  0  0  0  0
    0.7897   -8.9519    1.3691 C   0  0  0  0  0  0  0  0  0  0  0  0
    0.7018   -7.7198    0.7892 C   0  0  0  0  0  0  0  0  0  0  0  0
    1.4312   -5.5794    3.7443 O   0  0  0  0  0  0  0  0  0  0  0  0
    0.9501   -6.6506    1.5469 C   0  0  0  0  0  0  0  0  0  0  0  0
    1.0197  -10.4509    3.2467 C   0  0  0  0  0  0  0  0  0  0  0  0
   -0.1359  -11.1295    3.5149 C   0  0  1  0  0  0  0  0  0  0  0  0
   -1.2391  -10.3503    3.8953 C   0  0  0  0  0  0  0  0  0  0  0  0
    0.9616   -5.3317    1.1438 O   0  0  0  0  0  0  0  0  0  0  0  0
   -2.3998  -10.5254    3.2307 C   0  0  0  0  0  0  0  0  0  0  0  0
   -2.5455  -11.5538    2.4014 C   0  0  0  0  0  0  0  0  0  0  0  0
   -1.5100  -12.4402    2.1869 C   0  0  0  0  0  0  0  0  0  0  0  0
   -0.2610  -12.2442    2.6684 C   0  0  0  0  0  0  0  0  0  0  0  0
    2.2857  -10.8764    3.4894 C   0  0  0  0  0  0  0  0  0  0  0  0
    2.4961  -11.5959    4.5846 N   0  0  0  0  0  0  0  0  0  0  0  0
    0.7596  -13.1080    2.5580 O   0  0  0  0  0  0  0  0  0  0  0  0
    1.7275  -11.8092    5.2041 H   0  0  0  0  0  0  0  0  0  0  0  0
  1  2  1  0
  3  4  1  0
  2  6  1  6
  2  7  1  0
  5  7  1  0
  3  8  1  0
  9  8  1  6
  9 10  1  0
  7 11  2  0
 12 13  1  0
  9 15  1  0
 14 15  1  0
  8 16  1  0
 16 17  2  0
 15 18  2  0
  1  3  1  0
  4  5  1  0
 10 12  1  0
 13 14  1  0
 17 19  1  0
M  END

$$$$
No_4836-/export/home/yangzhenyu/potential_scad_32_flow//YTHDC2/2024-12-06-03-22-00/
     RDKit          3D

 17 17  0  0  0  0  0  0  0  0999 V2000
    1.1787   -8.0297    3.5154 C   0  0  0  0  0  0  0  0  0  0  0  0
    1.1048   -9.2215    3.2892 C   0  0  0  0  0  0  0  0  0  0  0  0
    1.2339   -9.7611    2.0189 C   0  0  0  0  0  0  0  0  0  0  0  0
    1.3583   -9.0036    0.9764 C   0  0  0  0  0  0  0  0  0  0  0  0
    1.5996   -7.6362    1.1311 C   0  0  0  0  0  0  0  0  0  0  0  0
    1.4830   -7.0928    2.3626 C   0  0  0  0  0  0  0  0  0  0  0  0
    1.5395   -5.7300    2.6182 C   0  0  0  0  0  0  0  0  0  0  0  0
    1.1775  -11.2233    1.8407 C   0  0  0  0  0  0  0  0  0  0  0  0
    0.7252  -11.5870    0.5412 O   0  0  0  0  0  0  0  0  0  0  0  0
    1.6561  -12.0585    2.6191 N   0  0  0  0  0  0  0  0  0  0  0  0
    1.6681  -13.4386    2.3529 C   0  0  0  0  0  0  0  0  0  0  0  0
    0.4974  -14.0334    2.8945 C   0  0  0  0  0  0  0  0  0  0  0  0
    0.6109  -15.5169    2.8669 O   0  0  0  0  0  0  0  0  0  0  0  0
   -0.4618  -13.5777    3.3184 O   0  0  0  0  0  0  0  0  0  0  0  0
    1.2722   -4.7966    1.7098 C   0  0  0  0  0  0  0  0  0  0  0  0
    1.2254   -3.3746    1.9462 C   0  0  0  0  0  0  0  0  0  0  0  0
    1.0387   -2.5001    1.0649 C   0  0  0  0  0  0  0  0  0  0  0  0
  6  7  1  0
  3  8  1  0
  8  9  2  0
  8 10  1  0
 10 11  1  0
 11 12  1  0
 12 13  2  0
 12 14  1  0
  7 15  2  3
 15 16  1  0
 16 17  2  0
  1  2  2  0
  2  3  1  0
  3  4  2  0
  4  5  1  0
  5  6  2  0
  1  6  1  0
M  END

$$$$
No_4837-/export/home/yangzhenyu/potential_scad_32_flow//YTHDC2/2024-12-06-03-22-00/
     RDKit          3D

 18 18  0  0  0  0  0  0  0  0999 V2000
    1.1787   -8.0297    3.5154 C   0  0  0  0  0  0  0  0  0  0  0  0
    1.1048   -9.2215    3.2892 C   0  0  0  0  0  0  0  0  0  0  0  0
    1.2339   -9.7611    2.0189 C   0  0  0  0  0  0  0  0  0  0  0  0
    1.1954  -11.2312    1.8661 C   0  0  0  0  0  0  0  0  0  0  0  0
    1.5546  -12.1691    2.7931 C   0  0  0  0  0  0  0  0  0  0  0  0
    0.5849   -7.0929    2.5729 C   0  0  0  0  0  0  0  0  0  0  0  0
    0.5974   -7.2783    1.4628 C   0  0  0  0  0  0  0  0  0  0  0  0
    0.8014   -8.7714    0.9785 C   0  0  0  0  0  0  0  0  0  0  0  0
    0.7674  -13.2905    2.8421 C   0  0  0  0  0  0  0  0  0  0  0  0
    1.4497  -14.5684    2.7958 N   0  0  0  0  0  0  0  0  0  0  0  0
    1.3271  -15.3947    2.2224 C   0  0  0  0  0  0  0  0  0  0  0  0
    0.4430  -15.2618    1.0862 C   0  0  0  0  0  0  0  0  0  0  0  0
    1.9799  -16.6477    2.5073 C   0  0  0  0  0  0  0  0  0  0  0  0
    0.6807   -9.2618   -0.3929 C   0  0  0  0  0  0  0  0  0  0  0  0
   -0.5187   -9.7632   -0.7541 O   0  0  0  0  0  0  0  0  0  0  0  0
    1.5403   -8.8213   -1.2254 O   0  0  0  0  0  0  0  0  0  0  0  0
    3.2780  -16.6750    2.6640 O   0  0  0  0  0  0  0  0  0  0  0  0
    1.3328  -17.8032    2.0384 Cl  0  0  0  0  0  0  0  0  0  0  0  0
  3  4  1  0
  4  5  1  0
  5  9  1  0
  9 10  1  0
 10 11  1  0
 11 12  1  0
 11 13  1  0
  8 14  1  0
 14 15  2  0
 14 16  1  0
 13 17  2  0
 13 18  1  0
  1  2  2  0
  2  3  1  0
  3  8  2  0
  7  8  1  0
  6  7  2  0
  1  6  1  0
M  END

$$$$
No_4838-/export/home/yangzhenyu/potential_scad_32_flow//YTHDC2/2024-12-06-03-22-00/
     RDKit          3D

 17 18  0  0  1  0  0  0  0  0999 V2000
    1.1787   -8.0297    3.5154 N   0  0  0  0  0  0  0  0  0  0  0  0
    1.0818   -9.0751    3.2053 C   0  0  0  0  0  0  0  0  0  0  0  0
    1.5216  -10.1164    3.9747 C   0  0  0  0  0  0  0  0  0  0  0  0
    1.4420  -11.4363    3.6461 C   0  0  0  0  0  0  0  0  0  0  0  0
    0.5969  -11.7648    2.6785 C   0  0  0  0  0  0  0  0  0  0  0  0
    0.0096  -10.8332    1.9506 C   0  0  0  0  0  0  0  0  0  0  0  0
    0.3359   -9.5186    2.1388 C   0  0  0  0  0  0  0  0  0  0  0  0
    0.8819   -6.9011    2.6487 C   0  0  1  0  0  0  0  0  0  0  0  0
    1.2415   -5.5456    2.9609 N   0  0  0  0  0  0  0  0  0  0  0  0
    0.6135   -7.1221    1.3080 C   0  0  0  0  0  0  0  0  0  0  0  0
    0.2104   -8.4712    1.0789 C   0  0  0  0  0  0  0  0  0  0  0  0
   -0.2849   -8.7811   -0.1756 O   0  0  0  0  0  0  0  0  0  0  0  0
    0.3286  -13.1870    2.4168 C   0  0  0  0  0  0  0  0  0  0  0  0
   -0.9266  -13.5985    2.2507 C   0  0  0  0  0  0  0  0  0  0  0  0
    1.4604  -14.1146    2.3236 C   0  0  0  0  0  0  0  0  0  0  0  0
    2.5638  -13.7822    1.5865 C   0  0  0  0  0  0  0  0  0  0  0  0
   -1.9364  -13.1290    2.9249 O   0  0  0  0  0  0  0  0  0  0  0  0
  1  2  1  0
  8  9  1  6
  8 10  1  0
  7 11  1  0
 10 11  1  0
 11 12  2  0
  5 13  1  0
 13 14  1  0
 13 15  1  0
 15 16  1  0
 14 17  1  0
  1  8  1  0
  2  3  2  0
  3  4  1  0
  4  5  2  0
  5  6  1  0
  6  7  2  0
  2  7  1  0
M  END

$$$$
No_4839-/export/home/yangzhenyu/potential_scad_32_flow//YTHDC2/2024-12-06-03-22-00/
     RDKit          3D

 17 18  0  0  1  0  0  0  0  0999 V2000
    1.1787   -8.0297    3.5154 Cl  0  0  0  0  0  0  0  0  0  0  0  0
    0.6122   -7.9650    2.5747 C   0  0  0  0  0  0  0  0  0  0  0  0
    0.4809   -9.1882    1.8138 C   0  0  0  0  0  0  0  0  0  0  0  0
    0.0192   -9.0891    0.5546 C   0  0  0  0  0  0  0  0  0  0  0  0
   -0.4655   -7.9863   -0.1524 C   0  0  0  0  0  0  0  0  0  0  0  0
   -0.3636   -6.8187    0.6504 C   0  0  0  0  0  0  0  0  0  0  0  0
    0.1144   -6.8137    1.9877 C   0  0  0  0  0  0  0  0  0  0  0  0
    0.2341   -5.5482    2.5704 C   0  0  0  0  0  0  0  0  0  0  0  0
   -0.8237   -4.7888    2.7246 C   0  0  0  0  0  0  0  0  0  0  0  0
   -0.8196   -3.4195    3.0759 C   0  0  0  0  0  0  0  0  0  0  0  0
    0.9781  -10.4632    2.2317 C   0  0  1  0  0  0  0  0  0  0  0  0
    2.1575  -10.9309    2.0321 C   0  0  0  0  0  0  0  0  0  0  0  0
    0.2439  -11.0530    3.2815 C   0  0  0  0  0  0  0  0  0  0  0  0
    0.8569  -12.3511    3.6928 C   0  0  0  0  0  0  0  0  0  0  0  0
    1.5676  -12.7703    2.7170 C   0  0  0  0  0  0  0  0  0  0  0  0
    2.5613  -12.1323    2.0707 C   0  0  0  0  0  0  0  0  0  0  0  0
   -0.8163  -10.6355    3.8792 Cl  0  0  0  0  0  0  0  0  0  0  0  0
  1  2  1  0
  7  8  1  0
  8  9  2  3
  9 10  1  0
 11  3  1  1
 11 12  1  0
 11 13  1  0
 13 14  1  0
 14 15  1  0
 12 16  1  0
 15 16  1  0
 13 17  1  0
  2  3  2  0
  3  4  1  0
  4  5  2  0
  5  6  1  0
  6  7  2  0
  2  7  1  0
M  END

$$$$
No_4840-/export/home/yangzhenyu/potential_scad_32_flow//YTHDC2/2024-12-06-03-22-00/
     RDKit          3D

 19 19  0  0  1  0  0  0  0  0999 V2000
    1.1787   -8.0297    3.5154 O   0  0  0  0  0  0  0  0  0  0  0  0
    0.6747   -7.4019    2.7838 C   0  0  0  0  0  0  0  0  0  0  0  0
    0.7594   -8.0032    1.4295 C   0  0  0  0  0  0  0  0  0  0  0  0
    0.3459   -9.1500    1.3581 C   0  0  2  0  0  0  0  0  0  0  0  0
    0.9462   -9.9230    0.3351 C   0  0  0  0  0  0  0  0  0  0  0  0
    0.6395  -11.0790    0.1456 O   0  0  0  0  0  0  0  0  0  0  0  0
    1.7820   -9.2531   -0.5227 O   0  0  0  0  0  0  0  0  0  0  0  0
    0.2957   -6.2780    3.0749 O   0  0  0  0  0  0  0  0  0  0  0  0
   -1.1591   -9.2296    1.2337 C   0  0  0  0  0  0  0  0  0  0  0  0
   -1.7950   -9.8080    2.2041 C   0  0  0  0  0  0  0  0  0  0  0  0
   -1.2257  -10.8199    2.9128 C   0  0  0  0  0  0  0  0  0  0  0  0
   -1.7090  -12.0532    2.5545 C   0  0  0  0  0  0  0  0  0  0  0  0
   -2.9786  -12.2482    2.2665 C   0  0  0  0  0  0  0  0  0  0  0  0
   -3.7126  -11.0672    1.9371 C   0  0  0  0  0  0  0  0  0  0  0  0
   -3.1129   -9.8387    1.8944 C   0  0  0  0  0  0  0  0  0  0  0  0
   -3.6475  -13.4627    2.4660 C   0  0  0  0  0  0  0  0  0  0  0  0
   -4.8198  -13.6107    3.0764 C   0  0  0  0  0  0  0  0  0  0  0  0
   -5.4360  -14.8232    3.3333 C   0  0  0  0  0  0  0  0  0  0  0  0
   -4.8287  -15.9410    2.9157 C   0  0  0  0  0  0  0  0  0  0  0  0
  1  2  1  0
  2  3  1  0
  4  3  1  6
  4  5  1  0
  5  6  1  0
  5  7  2  0
  2  8  2  0
  4  9  1  0
  9 10  1  0
 13 16  1  0
 16 17  2  3
 17 18  1  0
 18 19  2  0
 10 11  2  0
 11 12  1  0
 12 13  2  0
 13 14  1  0
 14 15  2  0
 10 15  1  0
M  END

$$$$
No_4841-/export/home/yangzhenyu/potential_scad_32_flow//YTHDC2/2024-12-06-03-22-00/
     RDKit          3D

 18 20  0  0  0  0  0  0  0  0999 V2000
    1.1787   -8.0297    3.5154 C   0  0  0  0  0  0  0  0  0  0  0  0
    1.0491   -6.8434    2.9820 C   0  0  0  0  0  0  0  0  0  0  0  0
    0.9905   -9.0774    2.6527 C   0  0  0  0  0  0  0  0  0  0  0  0
    0.7897   -8.9519    1.3691 C   0  0  0  0  0  0  0  0  0  0  0  0
    0.7018   -7.7198    0.7892 C   0  0  0  0  0  0  0  0  0  0  0  0
    0.8918   -6.5957    1.6117 C   0  0  0  0  0  0  0  0  0  0  0  0
    1.0774  -10.6059    3.3145 C   0  0  0  0  0  0  0  0  0  0  0  0
   -0.1032  -11.1934    3.4585 C   0  0  0  0  0  0  0  0  0  0  0  0
   -0.1482  -12.5102    3.2815 C   0  0  0  0  0  0  0  0  0  0  0  0
    0.9780  -13.3047    3.1595 C   0  0  0  0  0  0  0  0  0  0  0  0
    0.9845  -14.7777    2.9717 C   0  0  0  0  0  0  0  0  0  0  0  0
    0.0339  -15.5240    3.2034 N   0  0  0  0  0  0  0  0  0  0  0  0
    2.2105  -15.3189    2.5877 C   0  0  0  0  0  0  0  0  0  0  0  0
    2.2520  -16.7148    2.5406 N   0  0  0  0  0  0  0  0  0  0  0  0
    1.3918  -17.4094    2.6837 C   0  0  0  0  0  0  0  0  0  0  0  0
    0.1802  -16.9208    3.0125 C   0  0  0  0  0  0  0  0  0  0  0  0
    2.2894  -11.2126    3.4289 C   0  0  0  0  0  0  0  0  0  0  0  0
    2.2540  -12.5689    3.2715 N   0  0  0  0  0  0  0  0  0  0  0  0
  3  7  1  0
 10 11  1  0
 11 12  2  0
 12 16  1  0
 15 16  2  0
 14 15  1  0
 13 14  2  0
 11 13  1  0
  1  2  2  0
  2  6  1  0
  5  6  2  0
  4  5  1  0
  3  4  2  0
  1  3  1  0
  7  8  2  0
  8  9  1  0
  9 10  2  0
 10 18  1  0
 17 18  2  0
  7 17  1  0
M  END

$$$$
No_4842-/export/home/yangzhenyu/potential_scad_32_flow//YTHDC2/2024-12-06-03-22-00/
     RDKit          3D

 20 22  0  0  0  0  0  0  0  0999 V2000
    1.1787   -8.0297    3.5154 C   0  0  0  0  0  0  0  0  0  0  0  0
    1.0491   -6.8434    2.9820 C   0  0  0  0  0  0  0  0  0  0  0  0
    0.9905   -9.0774    2.6527 C   0  0  0  0  0  0  0  0  0  0  0  0
    0.7897   -8.9519    1.3691 C   0  0  0  0  0  0  0  0  0  0  0  0
    0.7018   -7.7198    0.7892 C   0  0  0  0  0  0  0  0  0  0  0  0
    0.8918   -6.5957    1.6117 C   0  0  0  0  0  0  0  0  0  0  0  0
    1.0711  -10.4814    3.2282 C   0  0  0  0  0  0  0  0  0  0  0  0
   -0.1055  -11.1328    3.5223 C   0  0  0  0  0  0  0  0  0  0  0  0
   -0.1824  -12.4513    3.3816 C   0  0  0  0  0  0  0  0  0  0  0  0
    0.9472  -13.2655    3.1726 C   0  0  0  0  0  0  0  0  0  0  0  0
    2.1715  -12.6012    2.9116 C   0  0  0  0  0  0  0  0  0  0  0  0
    2.2064  -11.2741    2.8264 C   0  0  0  0  0  0  0  0  0  0  0  0
    0.8996  -14.6381    3.2447 C   0  0  0  0  0  0  0  0  0  0  0  0
   -0.1167  -15.3378    3.6297 C   0  0  0  0  0  0  0  0  0  0  0  0
   -0.0796  -16.7650    3.7305 C   0  0  0  0  0  0  0  0  0  0  0  0
    1.0437  -17.5119    3.6123 C   0  0  0  0  0  0  0  0  0  0  0  0
    2.2350  -16.7558    3.2093 C   0  0  0  0  0  0  0  0  0  0  0  0
    2.2296  -15.3625    2.9495 C   0  0  0  0  0  0  0  0  0  0  0  0
    0.8509   -5.0511    1.0497 O   0  0  0  0  0  0  0  0  0  0  0  0
    1.2244  -18.8536    3.5809 Cl  0  0  0  0  0  0  0  0  0  0  0  0
  3  7  1  0
 10 13  1  0
  6 19  1  0
 16 20  1  0
 13 14  2  0
 14 15  1  0
 15 16  2  0
 16 17  1  0
 17 18  2  0
 13 18  1  0
  1  2  2  0
  2  6  1  0
  5  6  2  0
  4  5  1  0
  3  4  2  0
  1  3  1  0
  7  8  2  0
  8  9  1  0
  9 10  2  0
 10 11  1  0
 11 12  2  0
  7 12  1  0
M  END

$$$$
No_4843-/export/home/yangzhenyu/potential_scad_32_flow//YTHDC2/2024-12-06-03-22-00/
     RDKit          3D

 19 20  0  0  1  0  0  0  0  0999 V2000
    1.1787   -8.0297    3.5154 C   0  0  0  0  0  0  0  0  0  0  0  0
    1.0491   -6.8434    2.9820 C   0  0  0  0  0  0  0  0  0  0  0  0
    0.9905   -9.0774    2.6527 C   0  0  0  0  0  0  0  0  0  0  0  0
    0.7897   -8.9519    1.3691 C   0  0  0  0  0  0  0  0  0  0  0  0
    0.7018   -7.7198    0.7892 C   0  0  0  0  0  0  0  0  0  0  0  0
    0.8918   -6.5957    1.6117 C   0  0  0  0  0  0  0  0  0  0  0  0
    1.0600  -10.5680    3.3321 C   0  0  1  0  0  0  0  0  0  0  0  0
    2.1422  -11.0089    3.6867 C   0  0  0  0  0  0  0  0  0  0  0  0
    0.8608   -5.2505    1.2071 O   0  0  0  0  0  0  0  0  0  0  0  0
   -0.0330  -10.6487    4.3367 C   0  0  0  0  0  0  0  0  0  0  0  0
    2.2077  -12.3664    3.8143 C   0  0  0  0  0  0  0  0  0  0  0  0
    2.0207  -13.1890    2.5087 C   0  0  0  0  0  0  0  0  0  0  0  0
    1.0579  -13.2860    2.0643 C   0  0  2  0  0  0  0  0  0  0  0  0
    0.5824  -12.7425    0.8952 C   0  0  0  0  0  0  0  0  0  0  0  0
   -0.3694  -12.1432    0.6733 C   0  0  0  0  0  0  0  0  0  0  0  0
   -1.5460  -12.4656    1.2989 C   0  0  0  0  0  0  0  0  0  0  0  0
   -1.2965  -13.3865    2.4740 C   0  0  0  0  0  0  0  0  0  0  0  0
   -0.0884  -13.7068    2.8245 C   0  0  0  0  0  0  0  0  0  0  0  0
    0.1490  -14.7241    3.6675 O   0  0  0  0  0  0  0  0  0  0  0  0
  1  2  1  0
  3  4  1  0
  2  6  1  0
  5  6  1  0
  3  7  1  0
  7  8  1  0
  6  9  2  0
  7 10  1  1
  8 11  1  0
 11 12  1  0
 13 12  1  1
 13 14  1  0
 15 16  1  0
 13 18  1  0
 17 18  1  0
 18 19  2  0
 14 15  1  0
 16 17  1  0
  1  3  1  0
  4  5  1  0
M  END

$$$$
No_4844-/export/home/yangzhenyu/potential_scad_32_flow//YTHDC2/2024-12-06-03-22-00/
     RDKit          3D

 21 22  0  0  1  0  0  0  0  0999 V2000
    1.1787   -8.0297    3.5154 C   0  0  0  0  0  0  0  0  0  0  0  0
    1.1048   -9.2215    3.2892 C   0  0  0  0  0  0  0  0  0  0  0  0
    1.3627  -10.1721    4.3044 C   0  0  0  0  0  0  0  0  0  0  0  0
    1.0682  -11.5187    4.0618 C   0  0  0  0  0  0  0  0  0  0  0  0
    0.6332  -11.9655    2.9682 C   0  0  0  0  0  0  0  0  0  0  0  0
    0.4776  -11.1308    1.9203 C   0  0  0  0  0  0  0  0  0  0  0  0
    0.7470   -9.8274    2.0368 C   0  0  0  0  0  0  0  0  0  0  0  0
    0.5536   -7.1314    2.6860 C   0  0  0  0  0  0  0  0  0  0  0  0
    0.7497   -5.5830    2.7890 C   0  0  1  0  0  0  0  0  0  0  0  0
    1.6474   -5.1091    3.6117 I   0  0  0  0  0  0  0  0  0  0  0  0
    0.3609  -13.3366    2.7026 C   0  0  0  0  0  0  0  0  0  0  0  0
   -0.7799  -13.8872    2.3288 C   0  0  0  0  0  0  0  0  0  0  0  0
   -0.8475  -15.3165    2.2619 C   0  0  0  0  0  0  0  0  0  0  0  0
    0.2057  -16.1455    2.3755 C   0  0  0  0  0  0  0  0  0  0  0  0
    1.4839  -15.6341    2.7546 C   0  0  0  0  0  0  0  0  0  0  0  0
    1.6095  -14.2422    2.9520 C   0  0  0  0  0  0  0  0  0  0  0  0
   -0.0895   -4.9489    1.7703 C   0  0  0  0  0  0  0  0  0  0  0  0
    0.4480   -4.1759    0.9421 O   0  0  0  0  0  0  0  0  0  0  0  0
   -1.3513   -5.2950    1.6476 N   0  0  0  0  0  0  0  0  0  0  0  0
   -2.1980   -4.6986    0.6791 C   0  0  0  0  0  0  0  0  0  0  0  0
   -3.4289   -5.0681    0.6416 C   0  0  0  0  0  0  0  0  0  0  0  0
  1  2  1  0
  1  8  2  3
  8  9  1  0
  9 10  1  6
  5 11  1  0
  9 17  1  0
 17 18  2  0
 17 19  1  0
 19 20  1  0
 20 21  1  0
 11 12  2  0
 12 13  1  0
 13 14  2  0
 14 15  1  0
 15 16  2  0
 11 16  1  0
  2  3  2  0
  3  4  1  0
  4  5  2  0
  5  6  1  0
  6  7  2  0
  2  7  1  0
M  END

$$$$
No_4845-/export/home/yangzhenyu/potential_scad_32_flow//YTHDC2/2024-12-06-03-22-00/
     RDKit          3D

 17 18  0  0  1  0  0  0  0  0999 V2000
    1.1787   -8.0297    3.5154 Cl  0  0  0  0  0  0  0  0  0  0  0  0
    0.6122   -7.9650    2.5747 C   0  0  0  0  0  0  0  0  0  0  0  0
    0.4809   -9.1882    1.8138 C   0  0  0  0  0  0  0  0  0  0  0  0
    0.0192   -9.0891    0.5546 C   0  0  0  0  0  0  0  0  0  0  0  0
   -0.4655   -7.9863   -0.1524 C   0  0  0  0  0  0  0  0  0  0  0  0
   -0.3636   -6.8187    0.6504 C   0  0  0  0  0  0  0  0  0  0  0  0
    0.1144   -6.8137    1.9877 C   0  0  0  0  0  0  0  0  0  0  0  0
    0.2341   -5.5482    2.5704 C   0  0  0  0  0  0  0  0  0  0  0  0
    1.5179   -4.8929    2.6848 C   0  0  0  0  0  0  0  0  0  0  0  0
   -1.0504   -8.1234   -1.3522 O   0  0  0  0  0  0  0  0  0  0  0  0
    0.9285  -10.4855    2.2120 C   0  0  2  0  0  0  0  0  0  0  0  0
    2.0032  -10.6806    2.5863 C   0  0  0  0  0  0  0  0  0  0  0  0
    2.2391  -11.7655    3.6450 C   0  0  0  0  0  0  0  0  0  0  0  0
    1.6332  -12.9328    3.2946 C   0  0  0  0  0  0  0  0  0  0  0  0
    0.3178  -12.7696    2.5981 C   0  0  1  0  0  0  0  0  0  0  0  0
    0.2068  -11.5853    1.8749 C   0  0  0  0  0  0  0  0  0  0  0  0
   -0.3802  -13.8348    2.4066 C   0  0  0  0  0  0  0  0  0  0  0  0
  1  2  1  0
  7  8  1  0
  8  9  1  0
  5 10  1  0
 11  3  1  6
 11 12  1  0
 12 13  1  0
 13 14  1  0
 14 15  1  0
 11 16  1  0
 15 16  1  0
 15 17  1  6
  2  3  2  0
  3  4  1  0
  4  5  2  0
  5  6  1  0
  6  7  2  0
  2  7  1  0
M  END

$$$$
No_4846-/export/home/yangzhenyu/potential_scad_32_flow//YTHDC2/2024-12-06-03-22-00/
     RDKit          3D

 19 20  0  0  1  0  0  0  0  0999 V2000
    1.1787   -8.0297    3.5154 C   0  0  2  0  0  0  0  0  0  0  0  0
    1.0491   -6.8434    2.9820 C   0  0  0  0  0  0  0  0  0  0  0  0
    1.9985   -8.9840    2.8958 C   0  0  0  0  0  0  0  0  0  0  0  0
    1.9135  -10.3404    3.6266 C   0  0  0  0  0  0  0  0  0  0  0  0
    0.9460  -10.6347    4.5748 C   0  0  1  0  0  0  0  0  0  0  0  0
   -0.0977   -9.6850    4.6652 C   0  0  0  0  0  0  0  0  0  0  0  0
   -0.0465   -8.4791    4.1040 C   0  0  0  0  0  0  0  0  0  0  0  0
    1.1124   -5.6985    3.4928 N   0  0  0  0  0  0  0  0  0  0  0  0
    1.2324   -6.6629    1.5709 C   0  0  0  0  0  0  0  0  0  0  0  0
    1.2121   -5.2581    1.1854 C   0  0  0  0  0  0  0  0  0  0  0  0
    1.0571   -4.4771    2.4364 C   0  0  2  0  0  0  0  0  0  0  0  0
    1.3748   -7.4948    0.4402 N   0  0  0  0  0  0  0  0  0  0  0  0
    2.4370   -8.1714    0.0249 C   0  0  0  0  0  0  0  0  0  0  0  0
    2.2473   -8.9960   -1.0640 C   0  0  0  0  0  0  0  0  0  0  0  0
    1.2667   -9.1046   -1.4197 O   0  0  0  0  0  0  0  0  0  0  0  0
    3.4029   -9.2831   -1.6179 O   0  0  0  0  0  0  0  0  0  0  0  0
    0.8779  -11.9454    4.8114 F   0  0  0  0  0  0  0  0  0  0  0  0
   -1.0360   -7.6582    4.4961 O   0  0  0  0  0  0  0  0  0  0  0  0
    0.9805   -3.1813    2.7802 C   0  0  0  0  0  0  0  0  0  0  0  0
  1  2  1  6
  1  3  1  0
  4  5  1  0
  1  7  1  0
  6  7  1  0
  2  8  2  0
  2  9  1  0
  9 10  2  0
  8 11  1  0
 10 11  1  0
  9 12  1  0
 12 13  1  0
 13 14  1  0
 14 15  1  0
 14 16  2  0
  5 17  1  6
  7 18  2  0
 11 19  1  1
  3  4  1  0
  5  6  1  0
M  END

$$$$
No_4847-/export/home/yangzhenyu/potential_scad_32_flow//YTHDC2/2024-12-06-03-22-00/
     RDKit          3D

 18 19  0  0  1  0  0  0  0  0999 V2000
    1.1787   -8.0297    3.5154 C   0  0  0  0  0  0  0  0  0  0  0  0
    1.1048   -9.2215    3.2892 C   0  0  0  0  0  0  0  0  0  0  0  0
    1.3627  -10.1721    4.3044 C   0  0  0  0  0  0  0  0  0  0  0  0
    1.0682  -11.5187    4.0618 C   0  0  0  0  0  0  0  0  0  0  0  0
    0.6332  -11.9655    2.9682 C   0  0  0  0  0  0  0  0  0  0  0  0
    0.4776  -11.1308    1.9203 C   0  0  0  0  0  0  0  0  0  0  0  0
    0.7470   -9.8274    2.0368 C   0  0  0  0  0  0  0  0  0  0  0  0
    1.0387   -7.0301    2.5175 O   0  0  0  0  0  0  0  0  0  0  0  0
    0.4220  -13.4291    2.8032 C   0  0  0  0  0  0  0  0  0  0  0  0
    0.8592  -14.0541    1.7006 C   0  0  0  0  0  0  0  0  0  0  0  0
    1.4821  -15.2667    1.8332 C   0  0  0  0  0  0  0  0  0  0  0  0
    1.3124  -16.0860    3.0056 C   0  0  0  0  0  0  0  0  0  0  0  0
    0.7276  -15.4071    4.1155 C   0  0  0  0  0  0  0  0  0  0  0  0
    0.3175  -14.1545    4.0127 C   0  0  0  0  0  0  0  0  0  0  0  0
    1.7534  -17.3985    3.0380 C   0  0  1  0  0  0  0  0  0  0  0  0
    3.0634  -17.6729    2.5599 C   0  0  0  0  0  0  0  0  0  0  0  0
    1.0899  -18.4204    3.5507 C   0  0  0  0  0  0  0  0  0  0  0  0
    1.6955  -19.6508    3.8555 O   0  0  0  0  0  0  0  0  0  0  0  0
  1  2  1  0
  1  8  2  0
  5  9  1  0
 12 15  1  0
 15 16  1  1
 15 17  1  0
 17 18  2  0
  2  3  2  0
  3  4  1  0
  4  5  2  0
  5  6  1  0
  6  7  2  0
  2  7  1  0
  9 10  2  0
 10 11  1  0
 11 12  2  0
 12 13  1  0
 13 14  2  0
  9 14  1  0
M  END

$$$$
No_4848-/export/home/yangzhenyu/potential_scad_32_flow//YTHDC2/2024-12-06-03-22-00/
     RDKit          3D

 17 18  0  0  0  0  0  0  0  0999 V2000
    1.1787   -8.0297    3.5154 C   0  0  0  0  0  0  0  0  0  0  0  0
    1.0491   -6.8434    2.9820 C   0  0  0  0  0  0  0  0  0  0  0  0
    0.0950   -8.8404    3.2292 C   0  0  0  0  0  0  0  0  0  0  0  0
   -0.9173   -8.4596    2.5152 C   0  0  0  0  0  0  0  0  0  0  0  0
   -1.0331   -7.2162    2.0653 C   0  0  0  0  0  0  0  0  0  0  0  0
    0.1897   -6.3124    2.3579 C   0  0  0  0  0  0  0  0  0  0  0  0
    0.1649  -10.3779    3.7387 C   0  0  0  0  0  0  0  0  0  0  0  0
   -1.0282  -11.0502    3.6299 C   0  0  0  0  0  0  0  0  0  0  0  0
   -2.0875  -10.5447    2.8990 C   0  0  0  0  0  0  0  0  0  0  0  0
   -2.0384   -9.2540    2.3505 C   0  0  0  0  0  0  0  0  0  0  0  0
    0.0569   -4.7238    1.8672 C   0  0  0  0  0  0  0  0  0  0  0  0
   -0.7731   -4.1206    2.2470 O   0  0  0  0  0  0  0  0  0  0  0  0
    1.2411  -10.7794    4.5695 N   0  0  0  0  0  0  0  0  0  0  0  0
    2.0283  -11.8803    3.9979 C   0  0  0  0  0  0  0  0  0  0  0  0
    1.3646  -12.6727    3.1269 C   0  0  0  0  0  0  0  0  0  0  0  0
    1.0442  -14.0561    3.7106 C   0  0  0  0  0  0  0  0  0  0  0  0
    0.4505  -15.0038    2.9885 C   0  0  0  0  0  0  0  0  0  0  0  0
  6 11  1  0
 11 12  1  0
  7 13  1  0
 13 14  1  0
 14 15  1  0
 15 16  1  0
 16 17  2  0
  4 10  2  0
  9 10  1  0
  8  9  2  0
  7  8  1  0
  3  7  2  0
  1  2  2  0
  2  6  1  0
  5  6  2  0
  4  5  1  0
  3  4  1  0
  1  3  1  0
M  END

$$$$
No_4849-/export/home/yangzhenyu/potential_scad_32_flow//YTHDC2/2024-12-06-03-22-00/
     RDKit          3D

 16 17  0  0  1  0  0  0  0  0999 V2000
    1.1787   -8.0297    3.5154 N   0  0  0  0  0  0  0  0  0  0  0  0
    1.0818   -9.0751    3.2053 C   0  0  0  0  0  0  0  0  0  0  0  0
    0.7576   -9.3725    1.9159 C   0  0  0  0  0  0  0  0  0  0  0  0
    0.7445  -10.8746    1.6491 C   0  0  0  0  0  0  0  0  0  0  0  0
    0.9910  -11.7526    2.6067 C   0  0  0  0  0  0  0  0  0  0  0  0
    1.4405  -11.4331    3.8064 C   0  0  0  0  0  0  0  0  0  0  0  0
    1.4304  -10.0463    4.1669 C   0  0  0  0  0  0  0  0  0  0  0  0
    1.1048   -6.8241    2.6625 C   0  0  2  0  0  0  0  0  0  0  0  0
    0.9671   -7.2362    1.3168 N   0  0  0  0  0  0  0  0  0  0  0  0
    0.8819   -8.4374    0.9256 C   0  0  0  0  0  0  0  0  0  0  0  0
    0.7158   -8.6680   -0.3420 O   0  0  0  0  0  0  0  0  0  0  0  0
    0.9321  -13.1697    2.3298 C   0  0  0  0  0  0  0  0  0  0  0  0
    1.7658  -14.0699    2.6833 O   0  0  0  0  0  0  0  0  0  0  0  0
   -0.2396  -13.6924    1.8999 O   0  0  0  0  0  0  0  0  0  0  0  0
    1.2823   -5.4618    3.0011 C   0  0  0  0  0  0  0  0  0  0  0  0
    1.8734   -5.1059    4.0005 C   0  0  0  0  0  0  0  0  0  0  0  0
  1  2  1  0
  8  9  1  0
  3 10  1  0
  9 10  1  0
 10 11  2  0
  5 12  1  0
 12 13  1  0
 12 14  2  0
  8 15  1  6
 15 16  2  0
  1  8  1  0
  2  7  2  0
  6  7  1  0
  5  6  2  0
  4  5  1  0
  3  4  2  0
  2  3  1  0
M  END

$$$$
No_4850-/export/home/yangzhenyu/potential_scad_32_flow//YTHDC2/2024-12-06-03-22-00/
     RDKit          3D

 18 19  0  0  1  0  0  0  0  0999 V2000
    1.1787   -8.0297    3.5154 C   0  0  0  0  0  0  0  0  0  0  0  0
    1.1048   -9.2215    3.2892 C   0  0  0  0  0  0  0  0  0  0  0  0
    1.2339   -9.7611    2.0189 C   0  0  0  0  0  0  0  0  0  0  0  0
    1.3583   -9.0036    0.9764 C   0  0  0  0  0  0  0  0  0  0  0  0
    1.7077   -9.6100   -0.3010 C   0  0  0  0  0  0  0  0  0  0  0  0
    1.3637   -7.1087    2.3226 C   0  0  0  0  0  0  0  0  0  0  0  0
    1.4257   -7.6645    1.0231 C   0  0  0  0  0  0  0  0  0  0  0  0
    1.9364   -8.8976   -1.3212 O   0  0  0  0  0  0  0  0  0  0  0  0
    1.5161  -10.9175   -0.4592 O   0  0  0  0  0  0  0  0  0  0  0  0
    1.1228  -10.1701    4.3932 Cl  0  0  0  0  0  0  0  0  0  0  0  0
    1.3198   -5.5897    2.5211 Br  0  0  0  0  0  0  0  0  0  0  0  0
    1.3074  -11.1652    1.9351 C   0  0  0  0  0  0  0  0  0  0  0  0
    1.3389  -11.7095    0.4413 C   0  0  2  0  0  0  0  0  0  0  0  0
    1.2678  -13.0270    0.3464 C   0  0  0  0  0  0  0  0  0  0  0  0
    2.1304  -13.8726    0.8429 C   0  0  0  0  0  0  0  0  0  0  0  0
    1.8995  -14.4803    2.0741 C   0  0  0  0  0  0  0  0  0  0  0  0
    0.8326  -15.2988    2.1443 C   0  0  0  0  0  0  0  0  0  0  0  0
   -0.1387  -14.8990    2.9351 C   0  0  0  0  0  0  0  0  0  0  0  0
  4  5  1  0
  5  8  2  0
  5  9  1  0
  2 10  1  0
  6 11  1  0
  3 12  1  0
  9 13  1  0
 12 13  1  0
 13 14  1  1
 14 15  1  0
 15 16  1  0
 16 17  1  0
 17 18  1  0
  1  2  2  0
  2  3  1  0
  3  4  2  0
  4  7  1  0
  6  7  2  0
  1  6  1  0
M  END

$$$$
No_4851-/export/home/yangzhenyu/potential_scad_32_flow//YTHDC2/2024-12-06-03-22-00/
     RDKit          3D

 17 17  0  0  0  0  0  0  0  0999 V2000
    1.1787   -8.0297    3.5154 C   0  0  0  0  0  0  0  0  0  0  0  0
    1.1048   -9.2215    3.2892 C   0  0  0  0  0  0  0  0  0  0  0  0
    1.3627  -10.1721    4.3044 C   0  0  0  0  0  0  0  0  0  0  0  0
    1.0682  -11.5187    4.0618 C   0  0  0  0  0  0  0  0  0  0  0  0
    0.6332  -11.9655    2.9682 C   0  0  0  0  0  0  0  0  0  0  0  0
    0.4776  -11.1308    1.9203 C   0  0  0  0  0  0  0  0  0  0  0  0
    0.1540  -11.7530    0.6168 C   0  0  0  0  0  0  0  0  0  0  0  0
    0.7979   -9.8320    2.0306 C   0  0  0  0  0  0  0  0  0  0  0  0
   -1.3071  -11.9040    0.4813 O   0  0  0  0  0  0  0  0  0  0  0  0
    0.5581   -8.8699    1.0966 C   0  0  0  0  0  0  0  0  0  0  0  0
    1.7642   -8.6811    0.2072 C   0  0  0  0  0  0  0  0  0  0  0  0
    2.7292   -9.5920    0.0689 O   0  0  0  0  0  0  0  0  0  0  0  0
    2.0544   -7.7152   -0.5760 O   0  0  0  0  0  0  0  0  0  0  0  0
    0.3792  -13.5033    2.7262 O   0  0  0  0  0  0  0  0  0  0  0  0
    1.5409  -14.2660    2.5815 C   0  0  0  0  0  0  0  0  0  0  0  0
    1.2838   -7.0310    2.9862 O   0  0  0  0  0  0  0  0  0  0  0  0
    2.1980  -14.3729    1.5897 C   0  0  0  0  0  0  0  0  0  0  0  0
  1  2  1  0
  6  7  1  0
  7  9  1  0
  8 10  1  0
 10 11  1  0
 11 12  2  0
 11 13  1  0
  5 14  1  0
 14 15  1  0
  1 16  2  0
 15 17  1  0
  2  3  2  0
  3  4  1  0
  4  5  2  0
  5  6  1  0
  6  8  2  0
  2  8  1  0
M  END

$$$$
No_4852-/export/home/yangzhenyu/potential_scad_32_flow//YTHDC2/2024-12-06-03-22-00/
     RDKit          3D

 20 21  0  0  0  0  0  0  0  0999 V2000
    1.1787   -8.0297    3.5154 C   0  0  0  0  0  0  0  0  0  0  0  0
    1.1048   -9.2215    3.2892 C   0  0  0  0  0  0  0  0  0  0  0  0
    1.2339   -9.7611    2.0189 C   0  0  0  0  0  0  0  0  0  0  0  0
    1.3583   -9.0036    0.9764 C   0  0  0  0  0  0  0  0  0  0  0  0
    1.5996   -7.6362    1.1311 C   0  0  0  0  0  0  0  0  0  0  0  0
    1.4830   -7.0928    2.3626 C   0  0  0  0  0  0  0  0  0  0  0  0
    1.5395   -5.7300    2.6182 C   0  0  0  0  0  0  0  0  0  0  0  0
    1.1775  -11.2233    1.8407 C   0  0  0  0  0  0  0  0  0  0  0  0
    1.9057  -12.1147    2.3397 C   0  0  0  0  0  0  0  0  0  0  0  0
    1.6867  -13.4551    2.0621 C   0  0  0  0  0  0  0  0  0  0  0  0
    0.7025  -13.8511    1.3021 C   0  0  0  0  0  0  0  0  0  0  0  0
   -0.1111  -12.9140    0.6527 C   0  0  0  0  0  0  0  0  0  0  0  0
    0.1535  -11.5434    0.9240 C   0  0  0  0  0  0  0  0  0  0  0  0
    1.6688   -5.1779    3.8866 O   0  0  0  0  0  0  0  0  0  0  0  0
    1.0241   -4.8409    1.7123 O   0  0  0  0  0  0  0  0  0  0  0  0
    2.5145  -14.4243    2.7646 C   0  0  0  0  0  0  0  0  0  0  0  0
    2.2950  -15.8016    2.1867 N   0  0  0  0  0  0  0  0  0  0  0  0
    1.5221  -16.7174    2.6478 C   0  0  0  0  0  0  0  0  0  0  0  0
    0.6982  -16.5554    3.5798 C   0  0  0  0  0  0  0  0  0  0  0  0
   -0.2856  -17.4383    3.9720 C   0  0  0  0  0  0  0  0  0  0  0  0
  6  7  1  0
  3  8  1  0
  7 14  1  0
  7 15  2  0
 10 16  1  0
 16 17  1  0
 17 18  1  0
 18 19  1  0
 19 20  2  0
  1  2  2  0
  2  3  1  0
  3  4  2  0
  4  5  1  0
  5  6  2  0
  1  6  1  0
  8  9  2  0
  9 10  1  0
 10 11  2  0
 11 12  1  0
 12 13  2  0
  8 13  1  0
M  END

$$$$
No_4853-/export/home/yangzhenyu/potential_scad_32_flow//YTHDC2/2024-12-06-03-22-00/
     RDKit          3D

 19 20  0  0  1  0  0  0  0  0999 V2000
    1.1787   -8.0297    3.5154 C   0  0  0  0  0  0  0  0  0  0  0  0
    1.0491   -6.8434    2.9820 C   0  0  0  0  0  0  0  0  0  0  0  0
    1.9985   -8.9840    2.8958 C   0  0  2  0  0  0  0  0  0  0  0  0
    1.7297   -9.2108    1.6335 C   0  0  0  0  0  0  0  0  0  0  0  0
    1.7343   -8.0566    0.8408 C   0  0  0  0  0  0  0  0  0  0  0  0
    1.0269   -6.8892    1.4456 C   0  0  0  0  0  0  0  0  0  0  0  0
    2.0740   -7.9416   -0.3682 O   0  0  0  0  0  0  0  0  0  0  0  0
    1.9646  -10.3580    3.5767 C   0  0  0  0  0  0  0  0  0  0  0  0
    2.8852  -10.5868    4.4417 N   0  0  0  0  0  0  0  0  0  0  0  0
    1.3034  -11.3841    3.1423 N   0  0  0  0  0  0  0  0  0  0  0  0
    1.5804  -12.6561    3.6171 C   0  0  0  0  0  0  0  0  0  0  0  0
    0.7509  -13.6711    3.0889 N   0  0  0  0  0  0  0  0  0  0  0  0
    1.0136  -14.9363    3.3716 C   0  0  0  0  0  0  0  0  0  0  0  0
    2.1150  -15.4786    2.9853 C   0  0  0  0  0  0  0  0  0  0  0  0
    0.0436  -15.8637    3.6660 C   0  0  0  0  0  0  0  0  0  0  0  0
    2.3991  -16.8758    2.9022 C   0  0  0  0  0  0  0  0  0  0  0  0
    1.4479  -17.6653    3.1682 C   0  0  0  0  0  0  0  0  0  0  0  0
    0.2688  -17.2256    3.5536 C   0  0  0  0  0  0  0  0  0  0  0  0
    3.5074   -9.8436    4.7255 H   0  0  0  0  0  0  0  0  0  0  0  0
  1  2  1  0
  1  3  1  0
  3  4  1  0
  4  5  1  0
  2  6  1  0
  5  6  1  0
  5  7  2  0
  3  8  1  1
  8  9  2  0
  8 10  1  0
 10 11  2  3
 11 12  1  0
 12 13  1  0
 13 14  2  0
 14 16  1  0
 16 17  2  0
 17 18  1  0
 15 18  2  0
 13 15  1  0
  9 19  1  0
M  END

$$$$
No_4854-/export/home/yangzhenyu/potential_scad_32_flow//YTHDC2/2024-12-06-03-22-00/
     RDKit          3D

 18 19  0  0  1  0  0  0  0  0999 V2000
    1.1787   -8.0297    3.5154 C   0  0  0  0  0  0  0  0  0  0  0  0
    1.0491   -6.8434    2.9820 C   0  0  0  0  0  0  0  0  0  0  0  0
    1.0690   -9.1150    2.7206 C   0  0  0  0  0  0  0  0  0  0  0  0
    0.9689   -6.6391    1.6260 C   0  0  0  0  0  0  0  0  0  0  0  0
    0.9670   -9.0334    1.3824 C   0  0  0  0  0  0  0  0  0  0  0  0
    0.8189   -7.7113    0.8022 C   0  0  0  0  0  0  0  0  0  0  0  0
    1.2185  -10.5958    3.3076 C   0  0  2  0  0  0  0  0  0  0  0  0
    0.1632  -11.3340    3.3766 C   0  0  0  0  0  0  0  0  0  0  0  0
    0.3936  -12.7016    3.3380 N   0  0  0  0  0  0  0  0  0  0  0  0
   -0.3795  -13.4927    2.7556 C   0  0  0  0  0  0  0  0  0  0  0  0
   -1.3952  -13.1745    2.1089 C   0  0  0  0  0  0  0  0  0  0  0  0
   -1.8127  -11.8485    2.2228 C   0  0  0  0  0  0  0  0  0  0  0  0
   -3.0330  -11.5741    1.4257 C   0  0  0  0  0  0  0  0  0  0  0  0
   -0.9969  -10.9190    2.7128 C   0  0  0  0  0  0  0  0  0  0  0  0
    0.8511   -5.3478    1.0440 C   0  0  0  0  0  0  0  0  0  0  0  0
    2.5100  -10.7539    3.8127 C   0  0  0  0  0  0  0  0  0  0  0  0
   -3.4173  -10.2090    1.2350 C   0  0  0  0  0  0  0  0  0  0  0  0
   -2.7995   -9.4058    0.3046 C   0  0  0  0  0  0  0  0  0  0  0  0
  3  7  1  0
  7  8  1  0
  4 15  1  0
  7 16  1  1
 13 17  1  0
 17 18  1  0
 12 13  1  0
  1  2  2  0
  2  4  1  0
  4  6  2  0
  5  6  1  0
  3  5  2  0
  1  3  1  0
  8  9  2  0
  9 10  1  0
 10 11  2  0
 11 12  1  0
 12 14  2  0
  8 14  1  0
M  END

$$$$
No_4855-/export/home/yangzhenyu/potential_scad_32_flow//YTHDC2/2024-12-06-03-22-00/
     RDKit          3D

 19 20  0  0  0  0  0  0  0  0999 V2000
    1.1787   -8.0297    3.5154 C   0  0  0  0  0  0  0  0  0  0  0  0
    1.0491   -6.8434    2.9820 C   0  0  0  0  0  0  0  0  0  0  0  0
    1.9985   -8.9840    2.8958 C   0  0  0  0  0  0  0  0  0  0  0  0
    1.7297   -9.2108    1.6335 C   0  0  0  0  0  0  0  0  0  0  0  0
    1.5234   -8.1478    0.8618 C   0  0  0  0  0  0  0  0  0  0  0  0
    1.0558   -6.9632    1.4912 C   0  0  0  0  0  0  0  0  0  0  0  0
    2.0857  -10.3821    3.6499 N   0  0  0  0  0  0  0  0  0  0  0  0
    1.6121  -11.5152    3.6236 C   0  0  0  0  0  0  0  0  0  0  0  0
    2.2199  -12.6115    3.7393 C   0  0  0  0  0  0  0  0  0  0  0  0
    1.4914  -13.7981    3.2594 C   0  0  0  0  0  0  0  0  0  0  0  0
    0.2379  -13.7370    3.1089 C   0  0  0  0  0  0  0  0  0  0  0  0
   -0.5047  -12.6907    3.1145 C   0  0  0  0  0  0  0  0  0  0  0  0
    0.1771  -11.4367    3.4113 C   0  0  0  0  0  0  0  0  0  0  0  0
    0.8531   -5.6920    3.5413 C   0  0  0  0  0  0  0  0  0  0  0  0
    1.9339   -4.8580    4.0227 N   0  0  0  0  0  0  0  0  0  0  0  0
    1.5530   -8.1489   -0.5989 C   0  0  0  0  0  0  0  0  0  0  0  0
    2.5001   -8.8327   -1.1085 O   0  0  0  0  0  0  0  0  0  0  0  0
    0.7542   -7.8155   -1.3850 O   0  0  0  0  0  0  0  0  0  0  0  0
   -0.4662  -14.9951    2.8797 C   0  0  0  0  0  0  0  0  0  0  0  0
  3  7  1  0
  7  8  1  0
  2 14  1  0
 14 15  1  0
  5 16  1  0
 16 17  2  0
 16 18  1  0
 11 19  1  0
  1  2  2  0
  2  6  1  0
  5  6  2  0
  4  5  1  0
  3  4  2  0
  1  3  1  0
  8  9  2  0
  9 10  1  0
 10 11  2  0
 11 12  1  0
 12 13  2  0
  8 13  1  0
M  END

$$$$
No_4856-/export/home/yangzhenyu/potential_scad_32_flow//YTHDC2/2024-12-06-03-22-00/
     RDKit          3D

 17 18  0  0  0  0  0  0  0  0999 V2000
    1.1787   -8.0297    3.5154 C   0  0  0  0  0  0  0  0  0  0  0  0
    1.0491   -6.8434    2.9820 C   0  0  0  0  0  0  0  0  0  0  0  0
    0.0950   -8.8404    3.2292 C   0  0  0  0  0  0  0  0  0  0  0  0
   -0.9173   -8.4596    2.5152 C   0  0  0  0  0  0  0  0  0  0  0  0
   -1.0331   -7.2162    2.0653 C   0  0  0  0  0  0  0  0  0  0  0  0
   -0.0105   -6.3168    2.3081 C   0  0  0  0  0  0  0  0  0  0  0  0
    0.1935  -10.3737    3.7416 C   0  0  0  0  0  0  0  0  0  0  0  0
   -0.9968  -11.0614    3.6410 C   0  0  0  0  0  0  0  0  0  0  0  0
   -2.0651  -10.5736    2.9123 C   0  0  0  0  0  0  0  0  0  0  0  0
   -2.0392   -9.2902    2.3541 C   0  0  0  0  0  0  0  0  0  0  0  0
   -0.0571   -4.9397    1.9061 Cl  0  0  0  0  0  0  0  0  0  0  0  0
    1.4782  -10.8229    4.6901 C   0  0  0  0  0  0  0  0  0  0  0  0
    2.3715  -11.4050    3.7865 C   0  0  0  0  0  0  0  0  0  0  0  0
    1.9312  -12.0677    2.7484 C   0  0  0  0  0  0  0  0  0  0  0  0
    2.0573  -13.0199    2.2281 C   0  0  0  0  0  0  0  0  0  0  0  0
    1.4833  -13.5438    1.0258 C   0  0  0  0  0  0  0  0  0  0  0  0
    0.6709  -12.4967    0.4947 C   0  0  0  0  0  0  0  0  0  0  0  0
  6 11  1  0
  7 12  1  0
 12 13  1  0
 13 14  1  0
 14 15  2  3
 15 16  1  0
 16 17  2  0
  4 10  2  0
  9 10  1  0
  8  9  2  0
  7  8  1  0
  3  7  2  0
  1  2  2  0
  2  6  1  0
  5  6  2  0
  4  5  1  0
  3  4  1  0
  1  3  1  0
M  END

$$$$
No_4857-/export/home/yangzhenyu/potential_scad_32_flow//YTHDC2/2024-12-06-03-22-00/
     RDKit          3D

 19 20  0  0  0  0  0  0  0  0999 V2000
    1.1787   -8.0297    3.5154 C   0  0  0  0  0  0  0  0  0  0  0  0
    1.1048   -9.2215    3.2892 C   0  0  0  0  0  0  0  0  0  0  0  0
    1.2339   -9.7611    2.0189 C   0  0  0  0  0  0  0  0  0  0  0  0
    1.3583   -9.0036    0.9764 C   0  0  0  0  0  0  0  0  0  0  0  0
    1.5996   -7.6362    1.1311 C   0  0  0  0  0  0  0  0  0  0  0  0
    1.4830   -7.0928    2.3626 C   0  0  0  0  0  0  0  0  0  0  0  0
    1.1008  -11.2372    1.8542 C   0  0  0  0  0  0  0  0  0  0  0  0
    0.5178  -11.9759    2.3445 N   0  0  0  0  0  0  0  0  0  0  0  0
   -0.6981  -11.7161    2.7817 C   0  0  0  0  0  0  0  0  0  0  0  0
    0.4791  -13.4644    1.9322 C   0  0  0  0  0  0  0  0  0  0  0  0
    1.3961  -13.8613    1.2449 O   0  0  0  0  0  0  0  0  0  0  0  0
   -0.3519  -14.3427    2.5580 Cl  0  0  0  0  0  0  0  0  0  0  0  0
    1.5595   -5.4481    2.6475 Cl  0  0  0  0  0  0  0  0  0  0  0  0
   -1.9097  -12.3884    2.6554 C   0  0  0  0  0  0  0  0  0  0  0  0
   -2.6722  -11.8890    1.6819 C   0  0  0  0  0  0  0  0  0  0  0  0
   -3.8873  -12.5144    1.2793 C   0  0  0  0  0  0  0  0  0  0  0  0
   -4.4191  -13.4313    2.0796 C   0  0  0  0  0  0  0  0  0  0  0  0
   -3.7602  -13.8410    3.2784 C   0  0  0  0  0  0  0  0  0  0  0  0
   -2.4946  -13.2364    3.5723 C   0  0  0  0  0  0  0  0  0  0  0  0
  3  7  1  0
  7  8  1  0
  8  9  1  0
  8 10  1  0
 10 11  2  0
 10 12  1  0
  6 13  1  0
  9 14  1  0
  1  2  2  0
  2  3  1  0
  3  4  2  0
  4  5  1  0
  5  6  2  0
  1  6  1  0
 14 15  2  0
 15 16  1  0
 16 17  2  0
 17 18  1  0
 18 19  2  0
 14 19  1  0
M  END

$$$$
No_4858-/export/home/yangzhenyu/potential_scad_32_flow//YTHDC2/2024-12-06-03-22-00/
     RDKit          3D

 17 18  0  0  0  0  0  0  0  0999 V2000
    1.1787   -8.0297    3.5154 C   0  0  0  0  0  0  0  0  0  0  0  0
    1.1048   -9.2215    3.2892 C   0  0  0  0  0  0  0  0  0  0  0  0
    1.2339   -9.7611    2.0189 C   0  0  0  0  0  0  0  0  0  0  0  0
    1.3583   -9.0036    0.9764 C   0  0  0  0  0  0  0  0  0  0  0  0
    1.5996   -7.6362    1.1311 C   0  0  0  0  0  0  0  0  0  0  0  0
    1.4830   -7.0928    2.3626 C   0  0  0  0  0  0  0  0  0  0  0  0
    1.1008  -11.2372    1.8542 C   0  0  0  0  0  0  0  0  0  0  0  0
    1.9749  -12.0938    2.2342 C   0  0  0  0  0  0  0  0  0  0  0  0
    1.5180  -13.3509    2.5910 C   0  0  0  0  0  0  0  0  0  0  0  0
    0.4120  -13.9272    2.2191 C   0  0  0  0  0  0  0  0  0  0  0  0
   -0.5860  -13.0563    1.8308 C   0  0  0  0  0  0  0  0  0  0  0  0
   -0.2264  -11.7453    1.4928 C   0  0  0  0  0  0  0  0  0  0  0  0
    1.5759   -5.6593    2.6277 C   0  0  0  0  0  0  0  0  0  0  0  0
    0.0964  -15.2149    2.5390 C   0  0  0  0  0  0  0  0  0  0  0  0
   -1.1275  -15.7337    2.5327 C   0  0  0  0  0  0  0  0  0  0  0  0
   -1.3229  -17.1215    2.9989 C   0  0  0  0  0  0  0  0  0  0  0  0
   -0.2883  -17.9398    3.4468 C   0  0  0  0  0  0  0  0  0  0  0  0
  3  7  1  0
  6 13  1  0
 10 14  1  0
 14 15  2  3
 15 16  1  0
 16 17  2  0
  1  2  2  0
  2  3  1  0
  3  4  2  0
  4  5  1  0
  5  6  2  0
  1  6  1  0
  7  8  2  0
  8  9  1  0
  9 10  2  0
 10 11  1  0
 11 12  2  0
  7 12  1  0
M  END

$$$$
No_4859-/export/home/yangzhenyu/potential_scad_32_flow//YTHDC2/2024-12-06-03-22-00/
     RDKit          3D

 17 17  0  0  1  0  0  0  0  0999 V2000
    1.1787   -8.0297    3.5154 C   0  0  0  0  0  0  0  0  0  0  0  0
    1.0491   -6.8434    2.9820 C   0  0  0  0  0  0  0  0  0  0  0  0
    0.9905   -9.0774    2.6527 C   0  0  0  0  0  0  0  0  0  0  0  0
    0.9687   -8.6883    1.3634 C   0  0  0  0  0  0  0  0  0  0  0  0
    1.0948   -6.3768    1.7686 C   0  0  0  0  0  0  0  0  0  0  0  0
    0.9504   -7.3975    0.8471 C   0  0  0  0  0  0  0  0  0  0  0  0
    0.9617   -9.7173    0.3352 C   0  0  0  0  0  0  0  0  0  0  0  0
    0.7096   -9.5224   -0.9434 O   0  0  0  0  0  0  0  0  0  0  0  0
    1.1277  -11.0558    0.6195 O   0  0  0  0  0  0  0  0  0  0  0  0
    1.0606   -5.0436    1.3619 Cl  0  0  0  0  0  0  0  0  0  0  0  0
    1.1494  -10.4342    3.0876 C   0  0  2  0  0  0  0  0  0  0  0  0
    0.1808  -11.0484    3.6717 C   0  0  0  0  0  0  0  0  0  0  0  0
    0.3620  -12.3228    4.0162 O   0  0  0  0  0  0  0  0  0  0  0  0
   -0.9162  -10.4960    4.1638 O   0  0  0  0  0  0  0  0  0  0  0  0
    2.4086  -10.9231    3.1464 C   0  0  0  0  0  0  0  0  0  0  0  0
    3.0254  -10.8999    4.5587 O   0  0  0  0  0  0  0  0  0  0  0  0
    2.4513  -12.1793    2.7903 O   0  0  0  0  0  0  0  0  0  0  0  0
  4  7  1  0
  7  8  2  0
  7  9  1  0
  5 10  1  0
  3 11  1  0
 11 12  1  0
 12 13  1  0
 12 14  2  0
 11 15  1  1
 15 16  1  0
 15 17  1  0
  1  2  2  0
  2  5  1  0
  5  6  2  0
  4  6  1  0
  3  4  2  0
  1  3  1  0
M  END

$$$$
No_4860-/export/home/yangzhenyu/potential_scad_32_flow//YTHDC2/2024-12-06-03-22-00/
     RDKit          3D

 19 19  0  0  0  0  0  0  0  0999 V2000
    1.1787   -8.0297    3.5154 C   0  0  0  0  0  0  0  0  0  0  0  0
    1.0491   -6.8434    2.9820 C   0  0  0  0  0  0  0  0  0  0  0  0
    0.2462   -8.9560    3.0873 C   0  0  0  0  0  0  0  0  0  0  0  0
    0.3295   -6.5187    1.9069 C   0  0  0  0  0  0  0  0  0  0  0  0
   -0.5260   -8.7862    2.1368 C   0  0  0  0  0  0  0  0  0  0  0  0
   -0.5458   -7.5614    1.5054 C   0  0  0  0  0  0  0  0  0  0  0  0
    0.2879   -5.2870    1.3175 C   0  0  0  0  0  0  0  0  0  0  0  0
    0.3538  -10.3272    3.6802 C   0  0  0  0  0  0  0  0  0  0  0  0
   -0.8518  -11.0220    3.8257 O   0  0  0  0  0  0  0  0  0  0  0  0
    1.4324  -10.9733    4.1182 O   0  0  0  0  0  0  0  0  0  0  0  0
    1.2712   -4.3795    1.8309 O   0  0  0  0  0  0  0  0  0  0  0  0
   -0.5185   -4.8014    0.5516 N   0  0  0  0  0  0  0  0  0  0  0  0
   -0.6588   -3.5311    0.1387 C   0  0  0  0  0  0  0  0  0  0  0  0
   -1.9474   -3.1983   -0.5528 C   0  0  0  0  0  0  0  0  0  0  0  0
   -2.6810   -3.9463   -0.7024 C   0  0  0  0  0  0  0  0  0  0  0  0
   -2.9557   -4.6170   -1.8354 C   0  0  0  0  0  0  0  0  0  0  0  0
   -3.6653   -5.7827   -1.9573 C   0  0  0  0  0  0  0  0  0  0  0  0
   -4.3428   -6.1753   -0.8454 C   0  0  0  0  0  0  0  0  0  0  0  0
   -4.2018   -5.6107    0.3427 C   0  0  0  0  0  0  0  0  0  0  0  0
  4  7  1  0
  3  8  1  0
  8  9  2  0
  8 10  1  0
  7 11  2  0
  7 12  1  0
 12 13  1  0
 13 14  1  0
 14 15  1  0
 15 16  1  0
 16 17  2  3
 17 18  1  0
 18 19  2  0
  1  2  2  0
  2  4  1  0
  4  6  2  0
  5  6  1  0
  3  5  2  0
  1  3  1  0
M  END

$$$$
No_4861-/export/home/yangzhenyu/potential_scad_32_flow//YTHDC2/2024-12-06-03-22-00/
     RDKit          3D

 19 21  0  0  0  0  0  0  0  0999 V2000
    1.1787   -8.0297    3.5154 C   0  0  0  0  0  0  0  0  0  0  0  0
    1.1048   -9.2215    3.2892 C   0  0  0  0  0  0  0  0  0  0  0  0
    1.2339   -9.7611    2.0189 C   0  0  0  0  0  0  0  0  0  0  0  0
    1.1954  -11.2312    1.8661 C   0  0  0  0  0  0  0  0  0  0  0  0
    1.5546  -12.1691    2.7931 C   0  0  0  0  0  0  0  0  0  0  0  0
    0.9527   -7.0669    2.3918 C   0  0  0  0  0  0  0  0  0  0  0  0
    1.0618   -7.6392    1.0692 C   0  0  0  0  0  0  0  0  0  0  0  0
    1.2060   -8.9530    0.8578 C   0  0  0  0  0  0  0  0  0  0  0  0
    1.5110  -13.5006    2.3856 C   0  0  0  0  0  0  0  0  0  0  0  0
    1.1461  -13.9087    1.2014 C   0  0  0  0  0  0  0  0  0  0  0  0
    0.9324  -13.0660    0.2177 C   0  0  0  0  0  0  0  0  0  0  0  0
    0.9275  -11.6786    0.5224 C   0  0  0  0  0  0  0  0  0  0  0  0
    1.0094   -5.6129    2.4729 C   0  0  0  0  0  0  0  0  0  0  0  0
    0.3087   -4.8927    1.6394 C   0  0  0  0  0  0  0  0  0  0  0  0
    0.4262   -3.4921    1.7774 C   0  0  0  0  0  0  0  0  0  0  0  0
    1.9704  -14.5522    3.5971 O   0  0  0  0  0  0  0  0  0  0  0  0
    1.0906   -2.8527    2.7916 C   0  0  0  0  0  0  0  0  0  0  0  0
    1.7147   -3.7398    3.7907 C   0  0  0  0  0  0  0  0  0  0  0  0
    1.7030   -5.0947    3.6874 N   0  0  0  0  0  0  0  0  0  0  0  0
  3  4  1  0
  6 13  1  0
  9 16  1  0
  1  2  2  0
  2  3  1  0
  3  8  2  0
  7  8  1  0
  6  7  2  0
  1  6  1  0
  4  5  2  0
  5  9  1  0
  9 10  2  0
 10 11  1  0
 11 12  2  0
  4 12  1  0
 13 14  2  0
 14 15  1  0
 15 17  2  0
 17 18  1  0
 18 19  2  0
 13 19  1  0
M  END

$$$$
No_4862-/export/home/yangzhenyu/potential_scad_32_flow//YTHDC2/2024-12-06-03-22-00/
     RDKit          3D

 17 17  0  0  1  0  0  0  0  0999 V2000
    1.1787   -8.0297    3.5154 C   0  0  0  0  0  0  0  0  0  0  0  0
    1.1048   -9.2215    3.2892 C   0  0  0  0  0  0  0  0  0  0  0  0
    1.2339   -9.7611    2.0189 C   0  0  0  0  0  0  0  0  0  0  0  0
    1.3583   -9.0036    0.9764 C   0  0  0  0  0  0  0  0  0  0  0  0
    1.5996   -7.6362    1.1311 C   0  0  0  0  0  0  0  0  0  0  0  0
    1.4830   -7.0928    2.3626 C   0  0  0  0  0  0  0  0  0  0  0  0
    1.5395   -5.7300    2.6182 C   0  0  0  0  0  0  0  0  0  0  0  0
    1.1969  -11.3760    1.8433 C   0  0  1  0  0  0  0  0  0  0  0  0
    1.0771  -11.6644    0.5388 C   0  0  0  0  0  0  0  0  0  0  0  0
    0.3802  -11.2716   -0.2699 O   0  0  0  0  0  0  0  0  0  0  0  0
    1.4797  -13.0571    0.4235 O   0  0  0  0  0  0  0  0  0  0  0  0
    0.6173   -4.8770    2.7927 O   0  0  0  0  0  0  0  0  0  0  0  0
    0.8687   -3.5082    3.1581 C   0  0  0  0  0  0  0  0  0  0  0  0
    1.6122  -12.0043    2.8986 C   0  0  0  0  0  0  0  0  0  0  0  0
    0.6002  -12.8080    3.5080 C   0  0  0  0  0  0  0  0  0  0  0  0
    1.1211  -14.2826    3.3994 N   0  0  0  0  0  0  0  0  0  0  0  0
    0.3350  -15.3324    3.4289 O   0  0  0  0  0  0  0  0  0  0  0  0
  6  7  1  0
  3  8  1  0
  8  9  1  0
  9 10  2  0
  9 11  1  0
  7 12  1  0
 12 13  1  0
  8 14  1  6
 14 15  1  0
 15 16  1  0
 16 17  2  0
  1  2  2  0
  2  3  1  0
  3  4  2  0
  4  5  1  0
  5  6  2  0
  1  6  1  0
M  END

$$$$
No_4863-/export/home/yangzhenyu/potential_scad_32_flow//YTHDC2/2024-12-06-03-22-00/
     RDKit          3D

 20 21  0  0  0  0  0  0  0  0999 V2000
    1.1787   -8.0297    3.5154 C   0  0  0  0  0  0  0  0  0  0  0  0
    1.1048   -9.2215    3.2892 C   0  0  0  0  0  0  0  0  0  0  0  0
    1.3627  -10.1721    4.3044 N   0  0  0  0  0  0  0  0  0  0  0  0
    0.9525   -6.9720    2.5932 C   0  0  0  0  0  0  0  0  0  0  0  0
    0.7500   -7.4173    1.3424 C   0  0  0  0  0  0  0  0  0  0  0  0
    0.6609   -8.6866    0.9881 C   0  0  0  0  0  0  0  0  0  0  0  0
    0.8627   -9.6609    1.9163 C   0  0  0  0  0  0  0  0  0  0  0  0
    1.2683  -11.5159    3.9893 C   0  0  0  0  0  0  0  0  0  0  0  0
    0.9346  -11.9230    2.7968 N   0  0  0  0  0  0  0  0  0  0  0  0
    0.7515  -11.0128    1.7836 C   0  0  0  0  0  0  0  0  0  0  0  0
    0.5202  -11.5592    0.5070 N   0  0  0  0  0  0  0  0  0  0  0  0
    1.1388   -5.5543    2.8667 O   0  0  0  0  0  0  0  0  0  0  0  0
    0.4323   -9.0070   -0.3389 N   0  0  0  0  0  0  0  0  0  0  0  0
   -0.7942   -9.1121   -0.7915 C   0  0  0  0  0  0  0  0  0  0  0  0
   -1.8296   -9.1355    0.1050 O   0  0  0  0  0  0  0  0  0  0  0  0
   -1.0926   -9.3255   -2.0964 C   0  0  0  0  0  0  0  0  0  0  0  0
   -0.5140   -8.5448   -3.0900 O   0  0  0  0  0  0  0  0  0  0  0  0
   -1.9321  -10.2574   -2.5567 O   0  0  0  0  0  0  0  0  0  0  0  0
    0.5239   -4.6505    2.2255 C   0  0  0  0  0  0  0  0  0  0  0  0
   -0.7257   -4.5789    2.0913 C   0  0  0  0  0  0  0  0  0  0  0  0
 10 11  1  0
  4 12  1  0
  6 13  1  0
 13 14  1  0
 14 15  2  0
 14 16  1  0
 16 17  2  0
 16 18  1  0
 12 19  1  0
 19 20  1  0
  1  2  2  0
  6  7  2  0
  5  6  1  0
  4  5  2  0
  1  4  1  0
  2  3  1  0
  3  8  2  0
  8  9  1  0
  9 10  2  0
  7 10  1  0
  2  7  1  0
M  END

$$$$
No_4864-/export/home/yangzhenyu/potential_scad_32_flow//YTHDC2/2024-12-06-03-22-00/
     RDKit          3D

 20 20  0  0  1  0  0  0  0  0999 V2000
    1.1787   -8.0297    3.5154 N   0  0  0  0  0  0  0  0  0  0  0  0
    0.8669   -7.0905    2.8589 C   0  0  1  0  0  0  0  0  0  0  0  0
    0.8842   -5.8387    3.2677 C   0  0  0  0  0  0  0  0  0  0  0  0
    1.2042   -9.3413    3.1417 C   0  0  1  0  0  0  0  0  0  0  0  0
    0.8983   -9.6945    2.0312 C   0  0  0  0  0  0  0  0  0  0  0  0
    0.3799   -8.7798    1.1360 C   0  0  2  0  0  0  0  0  0  0  0  0
    0.0848   -9.2911   -0.1766 C   0  0  0  0  0  0  0  0  0  0  0  0
    0.4921   -7.4835    1.3637 C   0  0  0  0  0  0  0  0  0  0  0  0
   -1.1161   -9.0238   -0.6310 C   0  0  0  0  0  0  0  0  0  0  0  0
   -1.5439   -9.4809   -1.9874 C   0  0  0  0  0  0  0  0  0  0  0  0
   -1.2999   -8.8021   -3.1125 C   0  0  0  0  0  0  0  0  0  0  0  0
   -1.2935   -9.2608   -4.2881 O   0  0  0  0  0  0  0  0  0  0  0  0
   -0.9641   -7.4806   -2.9716 O   0  0  0  0  0  0  0  0  0  0  0  0
    1.7726  -10.4773    4.2451 C   0  0  0  0  0  0  0  0  0  0  0  0
    0.1262   -6.4336    0.7154 O   0  0  0  0  0  0  0  0  0  0  0  0
    1.0380  -11.7061    4.2023 C   0  0  0  0  0  0  0  0  0  0  0  0
    1.6754  -12.7970    3.6673 C   0  0  0  0  0  0  0  0  0  0  0  0
    0.9395  -13.3633    2.4960 C   0  0  2  0  0  0  0  0  0  0  0  0
   -0.2837  -13.2955    2.5060 N   0  0  0  0  0  0  0  0  0  0  0  0
    1.5591  -14.6521    1.9743 C   0  0  0  0  0  0  0  0  0  0  0  0
  1  2  1  0
  2  3  1  6
  4  5  1  0
  6  7  1  0
  2  8  1  0
  6  8  1  0
  7  9  2  3
  9 10  1  0
 10 11  1  0
 11 12  2  0
 11 13  1  0
  4 14  1  6
  8 15  2  0
 14 16  1  0
 16 17  1  0
 17 18  1  0
 18 19  1  0
 18 20  1  1
  1  4  1  0
  6  5  1  6
M  END

$$$$
No_4865-/export/home/yangzhenyu/potential_scad_32_flow//YTHDC2/2024-12-06-03-22-00/
     RDKit          3D

 17 18  0  0  0  0  0  0  0  0999 V2000
    1.1787   -8.0297    3.5154 C   0  0  0  0  0  0  0  0  0  0  0  0
    1.1048   -9.2215    3.2892 C   0  0  0  0  0  0  0  0  0  0  0  0
    1.0239   -9.7790    2.0239 C   0  0  0  0  0  0  0  0  0  0  0  0
    1.1393   -9.0211    0.9686 C   0  0  0  0  0  0  0  0  0  0  0  0
    1.4051   -7.6500    1.1251 C   0  0  0  0  0  0  0  0  0  0  0  0
    1.4868   -7.1041    2.3534 C   0  0  0  0  0  0  0  0  0  0  0  0
    1.5885   -5.7190    2.5687 C   0  0  0  0  0  0  0  0  0  0  0  0
    0.8747  -11.3633    1.9261 C   0  0  0  0  0  0  0  0  0  0  0  0
    1.9162  -12.0696    2.0413 C   0  0  0  0  0  0  0  0  0  0  0  0
    1.7002  -13.4702    1.8846 C   0  0  0  0  0  0  0  0  0  0  0  0
    0.5694  -13.9782    1.6667 C   0  0  0  0  0  0  0  0  0  0  0  0
   -0.5565  -13.2595    1.6468 C   0  0  0  0  0  0  0  0  0  0  0  0
   -0.3741  -11.8329    1.7108 C   0  0  0  0  0  0  0  0  0  0  0  0
   -1.5358  -11.0355    1.6743 C   0  0  0  0  0  0  0  0  0  0  0  0
   -2.6383  -11.4129    1.4366 C   0  0  0  0  0  0  0  0  0  0  0  0
   -3.8280  -10.5072    1.3966 N   0  0  0  0  0  0  0  0  0  0  0  0
   -4.9084  -11.0213    1.3957 C   0  0  0  0  0  0  0  0  0  0  0  0
  6  7  1  0
  3  8  1  0
 13 14  1  0
 14 15  2  3
 15 16  1  0
 16 17  2  0
  1  2  2  0
  2  3  1  0
  3  4  2  0
  4  5  1  0
  5  6  2  0
  1  6  1  0
  8  9  2  0
  9 10  1  0
 10 11  2  0
 11 12  1  0
 12 13  2  0
  8 13  1  0
M  END

$$$$
No_4866-/export/home/yangzhenyu/potential_scad_32_flow//YTHDC2/2024-12-06-03-22-00/
     RDKit          3D

 19 21  0  0  0  0  0  0  0  0999 V2000
    1.1787   -8.0297    3.5154 C   0  0  0  0  0  0  0  0  0  0  0  0
    1.0491   -6.8434    2.9820 C   0  0  0  0  0  0  0  0  0  0  0  0
    0.0950   -8.8404    3.2292 C   0  0  0  0  0  0  0  0  0  0  0  0
   -0.9173   -8.4596    2.5152 C   0  0  0  0  0  0  0  0  0  0  0  0
   -1.0331   -7.2162    2.0653 C   0  0  0  0  0  0  0  0  0  0  0  0
   -0.0105   -6.3168    2.3081 C   0  0  0  0  0  0  0  0  0  0  0  0
    0.1150   -4.9910    1.8495 C   0  0  0  0  0  0  0  0  0  0  0  0
    0.9121   -4.1017    2.4010 N   0  0  0  0  0  0  0  0  0  0  0  0
   -0.4360   -4.5348    0.7258 C   0  0  0  0  0  0  0  0  0  0  0  0
   -0.3617   -3.1677    0.5341 C   0  0  0  0  0  0  0  0  0  0  0  0
    0.4252   -2.3110    1.1722 C   0  0  0  0  0  0  0  0  0  0  0  0
    1.1326   -2.8612    2.1481 C   0  0  0  0  0  0  0  0  0  0  0  0
    0.2013  -10.2123    3.7888 C   0  0  0  0  0  0  0  0  0  0  0  0
    1.2648  -10.8711    4.1092 C   0  0  0  0  0  0  0  0  0  0  0  0
    1.1054  -12.3005    4.0848 C   0  0  0  0  0  0  0  0  0  0  0  0
    0.0004  -12.8739    3.7704 C   0  0  0  0  0  0  0  0  0  0  0  0
   -1.0344  -12.2348    3.2752 C   0  0  0  0  0  0  0  0  0  0  0  0
   -0.9858  -10.8164    3.3199 C   0  0  0  0  0  0  0  0  0  0  0  0
    0.0866  -14.2823    3.7974 C   0  0  0  0  0  0  0  0  0  0  0  0
  6  7  1  0
  3 13  1  0
 16 19  1  0
 13 14  2  0
 14 15  1  0
 15 16  2  0
 16 17  1  0
 17 18  2  0
 13 18  1  0
  1  2  2  0
  2  6  1  0
  5  6  2  0
  4  5  1  0
  3  4  2  0
  1  3  1  0
  7  8  2  0
  8 12  1  0
 11 12  2  0
 10 11  1  0
  9 10  2  0
  7  9  1  0
M  END

$$$$
No_4867-/export/home/yangzhenyu/potential_scad_32_flow//YTHDC2/2024-12-06-03-22-00/
     RDKit          3D

 18 19  0  0  0  0  0  0  0  0999 V2000
    1.1787   -8.0297    3.5154 C   0  0  0  0  0  0  0  0  0  0  0  0
    1.1048   -9.2215    3.2892 C   0  0  0  0  0  0  0  0  0  0  0  0
    1.3627  -10.1721    4.3044 C   0  0  0  0  0  0  0  0  0  0  0  0
    1.0682  -11.5187    4.0618 C   0  0  0  0  0  0  0  0  0  0  0  0
    0.6332  -11.9655    2.9682 C   0  0  0  0  0  0  0  0  0  0  0  0
    0.4776  -11.1308    1.9203 C   0  0  0  0  0  0  0  0  0  0  0  0
    0.7470   -9.8274    2.0368 C   0  0  0  0  0  0  0  0  0  0  0  0
    0.5535   -7.1314    2.6861 C   0  0  0  0  0  0  0  0  0  0  0  0
    0.2950   -7.6000    1.3275 C   0  0  0  0  0  0  0  0  0  0  0  0
    0.2693   -8.8631    1.0973 C   0  0  0  0  0  0  0  0  0  0  0  0
   -0.0513   -6.7125    0.4242 O   0  0  0  0  0  0  0  0  0  0  0  0
    0.4918  -13.3974    2.7285 C   0  0  0  0  0  0  0  0  0  0  0  0
    0.8947  -13.9358    1.7061 N   0  0  0  0  0  0  0  0  0  0  0  0
    1.6980  -15.1049    1.8152 C   0  0  0  0  0  0  0  0  0  0  0  0
    1.1359  -16.3316    2.0262 P   0  0  0  0  0  0  0  0  0  0  0  0
   -0.2689  -16.3519    1.9496 O   0  0  0  0  0  0  0  0  0  0  0  0
    1.4133  -16.8084    3.5239 O   0  0  0  0  0  0  0  0  0  0  0  0
    1.7003  -17.5505    1.3020 O   0  0  0  0  0  0  0  0  0  0  0  0
  1  2  1  0
  8  9  1  0
  7 10  1  0
  9 10  1  0
  9 11  2  0
  5 12  1  0
 12 13  1  0
 13 14  1  0
 14 15  1  0
 15 16  1  0
 15 17  1  0
 15 18  2  0
  1  8  1  0
  2  3  2  0
  3  4  1  0
  4  5  2  0
  5  6  1  0
  6  7  2  0
  2  7  1  0
M  END

$$$$
No_4868-/export/home/yangzhenyu/potential_scad_32_flow//YTHDC2/2024-12-06-03-22-00/
     RDKit          3D

 17 18  0  0  1  0  0  0  0  0999 V2000
    1.1787   -8.0297    3.5154 C   0  0  0  0  0  0  0  0  0  0  0  0
    1.1048   -9.2215    3.2892 C   0  0  0  0  0  0  0  0  0  0  0  0
    1.2339   -9.7611    2.0189 C   0  0  0  0  0  0  0  0  0  0  0  0
    1.3583   -9.0036    0.9764 C   0  0  0  0  0  0  0  0  0  0  0  0
    1.5996   -7.6362    1.1311 C   0  0  0  0  0  0  0  0  0  0  0  0
    1.4830   -7.0928    2.3626 C   0  0  0  0  0  0  0  0  0  0  0  0
    1.1008  -11.2372    1.8542 C   0  0  2  0  0  0  0  0  0  0  0  0
    0.4812  -11.6084    0.6459 C   0  0  0  0  0  0  0  0  0  0  0  0
   -0.3691  -10.9312    0.0124 C   0  0  0  0  0  0  0  0  0  0  0  0
   -1.0102  -11.3797   -1.1447 C   0  0  0  0  0  0  0  0  0  0  0  0
   -1.1621  -12.7045   -1.3353 C   0  0  0  0  0  0  0  0  0  0  0  0
   -0.3609  -13.5714   -0.5528 C   0  0  0  0  0  0  0  0  0  0  0  0
    0.4530  -13.1021    0.4945 C   0  0  0  0  0  0  0  0  0  0  0  0
    1.2489  -11.9006    2.9736 C   0  0  0  0  0  0  0  0  0  0  0  0
    1.5836   -5.4800    2.7315 Cl  0  0  0  0  0  0  0  0  0  0  0  0
    1.6576  -12.9014    3.2524 C   0  0  0  0  0  0  0  0  0  0  0  0
   -1.8560  -13.2620   -2.3502 O   0  0  0  0  0  0  0  0  0  0  0  0
  3  7  1  0
  7  8  1  0
  7 14  1  1
  6 15  1  0
 14 16  2  0
 11 17  1  0
  1  2  2  0
  2  3  1  0
  3  4  2  0
  4  5  1  0
  5  6  2  0
  1  6  1  0
  8  9  2  0
  9 10  1  0
 10 11  2  0
 11 12  1  0
 12 13  2  0
  8 13  1  0
M  END

$$$$
No_4869-/export/home/yangzhenyu/potential_scad_32_flow//YTHDC2/2024-12-06-03-22-00/
     RDKit          3D

 18 19  0  0  1  0  0  0  0  0999 V2000
    1.1787   -8.0297    3.5154 C   0  0  0  0  0  0  0  0  0  0  0  0
    1.1048   -9.2215    3.2892 C   0  0  0  0  0  0  0  0  0  0  0  0
    1.0239   -9.7790    2.0239 C   0  0  0  0  0  0  0  0  0  0  0  0
    1.1393   -9.0211    0.9686 C   0  0  0  0  0  0  0  0  0  0  0  0
    1.4051   -7.6500    1.1251 C   0  0  0  0  0  0  0  0  0  0  0  0
    1.4868   -7.1041    2.3534 C   0  0  0  0  0  0  0  0  0  0  0  0
    1.5885   -5.7190    2.5687 C   0  0  0  0  0  0  0  0  0  0  0  0
    0.8710  -11.2137    1.9144 C   0  0  1  0  0  0  0  0  0  0  0  0
   -0.2197  -11.6424    1.2255 N   0  0  0  0  0  0  0  0  0  0  0  0
   -0.2456  -12.9002    0.7970 C   0  0  0  0  0  0  0  0  0  0  0  0
    0.7931  -13.6941    1.2998 C   0  0  2  0  0  0  0  0  0  0  0  0
    1.8752  -13.3004    1.9292 C   0  0  0  0  0  0  0  0  0  0  0  0
    1.9616  -11.9387    2.1742 C   0  0  0  0  0  0  0  0  0  0  0  0
   -1.3312  -13.3160    0.2152 O   0  0  0  0  0  0  0  0  0  0  0  0
    1.3648   -4.8056    1.5376 O   0  0  0  0  0  0  0  0  0  0  0  0
    1.5893   -5.1158    3.8391 O   0  0  0  0  0  0  0  0  0  0  0  0
    1.1456   -9.4640   -0.3739 O   0  0  0  0  0  0  0  0  0  0  0  0
    0.6517  -15.0748    0.8333 C   0  0  0  0  0  0  0  0  0  0  0  0
  6  7  1  0
  8  3  1  6
  8  9  1  0
  9 10  1  0
 10 11  1  0
  8 13  1  0
 12 13  1  0
 10 14  2  0
  7 15  2  0
  7 16  1  0
  4 17  1  0
 11 18  1  6
 11 12  1  0
  1  2  2  0
  2  3  1  0
  3  4  2  0
  4  5  1  0
  5  6  2  0
  1  6  1  0
M  END

$$$$
No_4870-/export/home/yangzhenyu/potential_scad_32_flow//YTHDC2/2024-12-06-03-22-00/
     RDKit          3D

 19 20  0  0  1  0  0  0  0  0999 V2000
    1.1787   -8.0297    3.5154 C   0  0  0  0  0  0  0  0  0  0  0  0
    1.0491   -6.8434    2.9820 C   0  0  0  0  0  0  0  0  0  0  0  0
    0.9905   -9.0774    2.6527 C   0  0  0  0  0  0  0  0  0  0  0  0
    0.7897   -8.9519    1.3691 C   0  0  0  0  0  0  0  0  0  0  0  0
    0.7018   -7.7198    0.7892 C   0  0  0  0  0  0  0  0  0  0  0  0
    0.8918   -6.5957    1.6117 C   0  0  0  0  0  0  0  0  0  0  0  0
    1.0711  -10.4814    3.2282 C   0  0  1  0  0  0  0  0  0  0  0  0
    2.1432  -11.0138    3.5962 C   0  0  0  0  0  0  0  0  0  0  0  0
   -0.0912  -10.6996    4.1636 C   0  0  0  0  0  0  0  0  0  0  0  0
    0.8746   -5.2660    1.1123 Cl  0  0  0  0  0  0  0  0  0  0  0  0
    2.1034  -12.3905    3.9026 O   0  0  0  0  0  0  0  0  0  0  0  0
   -1.2781  -10.7844    3.5655 C   0  0  0  0  0  0  0  0  0  0  0  0
   -2.3786  -10.0452    3.8891 C   0  0  0  0  0  0  0  0  0  0  0  0
   -2.1555   -8.9908    4.6049 C   0  0  0  0  0  0  0  0  0  0  0  0
   -2.7956   -7.8371    4.3586 C   0  0  0  0  0  0  0  0  0  0  0  0
   -3.8946   -7.8715    3.5413 C   0  0  0  0  0  0  0  0  0  0  0  0
   -4.1481   -8.9971    2.8566 C   0  0  0  0  0  0  0  0  0  0  0  0
   -3.3510  -10.0815    2.9782 C   0  0  0  0  0  0  0  0  0  0  0  0
   -1.6577  -12.1663    3.1319 O   0  0  0  0  0  0  0  0  0  0  0  0
  3  7  1  0
  7  8  1  0
  7  9  1  1
  6 10  1  0
  8 11  2  0
  9 12  1  0
 12 13  1  0
 12 19  2  0
 13 14  2  0
 14 15  1  0
 15 16  2  0
 16 17  1  0
 17 18  2  0
 13 18  1  0
  1  2  2  0
  2  6  1  0
  5  6  2  0
  4  5  1  0
  3  4  2  0
  1  3  1  0
M  END

$$$$
No_4871-/export/home/yangzhenyu/potential_scad_32_flow//YTHDC2/2024-12-06-03-22-00/
     RDKit          3D

 19 20  0  0  1  0  0  0  0  0999 V2000
    1.1787   -8.0297    3.5154 N   0  0  0  0  0  0  0  0  0  0  0  0
    0.8669   -7.0905    2.8589 C   0  0  0  0  0  0  0  0  0  0  0  0
    1.0447   -7.3244    1.4123 C   0  0  0  0  0  0  0  0  0  0  0  0
    1.3942   -8.6358    1.3800 C   0  0  2  0  0  0  0  0  0  0  0  0
    1.6848   -9.0179    2.6581 C   0  0  2  0  0  0  0  0  0  0  0  0
    2.0378  -10.3165    2.8689 C   0  0  0  0  0  0  0  0  0  0  0  0
    1.6906   -9.1970    0.1635 C   0  0  0  0  0  0  0  0  0  0  0  0
    1.4946  -10.4850    0.1103 O   0  0  0  0  0  0  0  0  0  0  0  0
    1.9044   -8.6066   -0.9932 O   0  0  0  0  0  0  0  0  0  0  0  0
    2.0804  -10.7648    4.2875 C   0  0  0  0  0  0  0  0  0  0  0  0
    2.4018  -12.1450    4.4140 C   0  0  0  0  0  0  0  0  0  0  0  0
    1.9122  -12.9606    3.4413 C   0  0  0  0  0  0  0  0  0  0  0  0
    1.6996  -12.5799    2.1594 C   0  0  0  0  0  0  0  0  0  0  0  0
    1.7324  -11.2190    1.9107 C   0  0  0  0  0  0  0  0  0  0  0  0
    1.6064  -13.4951    1.1433 N   0  0  0  0  0  0  0  0  0  0  0  0
    0.4500  -13.5837    0.6920 C   0  0  0  0  0  0  0  0  0  0  0  0
   -0.3706  -14.0875    1.0881 O   0  0  0  0  0  0  0  0  0  0  0  0
    0.3390  -13.5315   -0.7917 C   0  0  0  0  0  0  0  0  0  0  0  0
   -0.8786  -13.3413   -1.3109 C   0  0  0  0  0  0  0  0  0  0  0  0
  1  2  1  0
  2  3  2  0
  3  4  1  0
  1  5  1  0
  4  5  1  0
  5  6  1  1
  4  7  1  6
  7  8  2  0
  7  9  1  0
 13 15  1  0
 15 16  1  0
 16 17  2  0
 16 18  1  0
 18 19  1  0
  6 10  2  0
 10 11  1  0
 11 12  2  0
 12 13  1  0
 13 14  2  0
  6 14  1  0
M  END

$$$$
No_4872-/export/home/yangzhenyu/potential_scad_32_flow//YTHDC2/2024-12-06-03-22-00/
     RDKit          3D

 16 16  0  0  0  0  0  0  0  0999 V2000
    1.1787   -8.0297    3.5154 C   0  0  0  0  0  0  0  0  0  0  0  0
    1.0491   -6.8434    2.9820 C   0  0  0  0  0  0  0  0  0  0  0  0
    0.0950   -8.8404    3.2292 C   0  0  0  0  0  0  0  0  0  0  0  0
   -0.7663   -8.2602    2.4375 C   0  0  0  0  0  0  0  0  0  0  0  0
   -0.3589   -6.8665    2.1913 C   0  0  0  0  0  0  0  0  0  0  0  0
    0.1246  -10.2854    3.6319 S   0  0  0  0  0  0  0  0  0  0  0  0
   -1.2775  -10.5740    3.9406 C   0  0  0  0  0  0  0  0  0  0  0  0
   -2.2555  -10.5694    3.6197 C   0  0  0  0  0  0  0  0  0  0  0  0
   -0.8137   -5.7655    1.5875 C   0  0  0  0  0  0  0  0  0  0  0  0
   -1.7101   -6.1322    0.6004 N   0  0  0  0  0  0  0  0  0  0  0  0
   -0.4955   -4.5127    1.8749 O   0  0  0  0  0  0  0  0  0  0  0  0
   -3.7353  -10.5242    3.6582 C   0  0  0  0  0  0  0  0  0  0  0  0
    0.9178  -11.2638    2.7476 O   0  0  0  0  0  0  0  0  0  0  0  0
    0.7078  -10.4962    5.0976 O   0  0  0  0  0  0  0  0  0  0  0  0
   -2.4518   -5.1542   -0.0650 C   0  0  0  0  0  0  0  0  0  0  0  0
   -1.9111   -4.6439   -1.1556 C   0  0  0  0  0  0  0  0  0  0  0  0
  1  2  1  0
  1  3  2  0
  3  4  1  0
  2  5  2  0
  4  5  1  0
  3  6  1  0
  6  7  1  0
  7  8  3  0
  5  9  1  0
  9 10  1  0
  9 11  2  0
  8 12  1  0
  6 13  2  0
  6 14  2  0
 10 15  1  0
 15 16  1  0
M  END

$$$$
No_4873-/export/home/yangzhenyu/potential_scad_32_flow//YTHDC2/2024-12-06-03-22-00/
     RDKit          3D

 17 17  0  0  1  0  0  0  0  0999 V2000
    1.1787   -8.0297    3.5154 F   0  0  0  0  0  0  0  0  0  0  0  0
    0.9085   -8.9213    2.9287 C   0  0  1  0  0  0  0  0  0  0  0  0
    0.9042   -8.7651    1.6474 C   0  0  1  0  0  0  0  0  0  0  0  0
    0.9379   -7.5533    1.0368 C   0  0  0  0  0  0  0  0  0  0  0  0
    1.5969  -10.1344    3.4162 C   0  0  0  0  0  0  0  0  0  0  0  0
    1.8061  -10.3913    4.5450 C   0  0  0  0  0  0  0  0  0  0  0  0
    1.4130   -9.8530    0.8379 C   0  0  0  0  0  0  0  0  0  0  0  0
    0.8842  -10.9695    0.6530 C   0  0  0  0  0  0  0  0  0  0  0  0
    1.5876  -12.1707    0.9222 O   0  0  0  0  0  0  0  0  0  0  0  0
   -0.3681  -11.3521    0.2729 N   0  0  0  0  0  0  0  0  0  0  0  0
   -0.0330   -6.6627    0.9656 C   0  0  0  0  0  0  0  0  0  0  0  0
    0.0166   -5.3637    1.3603 C   0  0  0  0  0  0  0  0  0  0  0  0
   -1.0381   -4.5251    1.1457 C   0  0  0  0  0  0  0  0  0  0  0  0
   -2.2041   -4.9531    0.6376 C   0  0  0  0  0  0  0  0  0  0  0  0
   -2.3197   -6.2442    0.2058 C   0  0  0  0  0  0  0  0  0  0  0  0
   -1.2868   -7.2025    0.3891 C   0  0  0  0  0  0  0  0  0  0  0  0
    2.6384  -11.6344    4.9125 C   0  0  0  0  0  0  0  0  0  0  0  0
  2  1  1  1
  2  3  1  0
  3  4  1  1
  2  5  1  0
  5  6  2  3
  3  7  1  0
  7  8  1  0
  8  9  2  0
  8 10  1  0
  4 11  1  0
  6 17  1  0
 11 12  2  0
 12 13  1  0
 13 14  2  0
 14 15  1  0
 15 16  2  0
 11 16  1  0
M  END

$$$$
No_4874-/export/home/yangzhenyu/potential_scad_32_flow//YTHDC2/2024-12-06-03-22-00/
     RDKit          3D

 19 20  0  0  0  0  0  0  0  0999 V2000
    1.1787   -8.0297    3.5154 C   0  0  0  0  0  0  0  0  0  0  0  0
    1.0491   -6.8434    2.9820 C   0  0  0  0  0  0  0  0  0  0  0  0
    0.9905   -9.0774    2.6527 C   0  0  0  0  0  0  0  0  0  0  0  0
    0.7897   -8.9519    1.3691 C   0  0  0  0  0  0  0  0  0  0  0  0
    0.7018   -7.7198    0.7892 C   0  0  0  0  0  0  0  0  0  0  0  0
    0.8918   -6.5957    1.6117 C   0  0  0  0  0  0  0  0  0  0  0  0
    1.0711  -10.4814    3.2282 C   0  0  0  0  0  0  0  0  0  0  0  0
    1.1227  -11.5770    2.4616 C   0  0  0  0  0  0  0  0  0  0  0  0
    1.1500  -12.9052    3.0782 C   0  0  0  0  0  0  0  0  0  0  0  0
    0.6702  -13.9897    2.4998 C   0  0  0  0  0  0  0  0  0  0  0  0
    0.1753  -14.0336    1.3348 C   0  0  0  0  0  0  0  0  0  0  0  0
    0.1148  -12.7693    0.6341 C   0  0  0  0  0  0  0  0  0  0  0  0
    0.5660  -11.6229    1.1724 C   0  0  0  0  0  0  0  0  0  0  0  0
    0.8451   -5.2795    1.1559 C   0  0  0  0  0  0  0  0  0  0  0  0
    0.7490  -15.2502    3.2742 O   0  0  0  0  0  0  0  0  0  0  0  0
    1.5265   -4.3136    1.7662 C   0  0  0  0  0  0  0  0  0  0  0  0
    1.4274   -2.9518    1.3872 C   0  0  0  0  0  0  0  0  0  0  0  0
    0.8574  -16.4717    2.6827 C   0  0  0  0  0  0  0  0  0  0  0  0
    1.2944   -2.7767   -0.0202 C   0  0  0  0  0  0  0  0  0  0  0  0
  3  7  1  0
  6 14  1  0
 10 15  1  0
 14 16  2  3
 16 17  1  0
 15 18  1  0
 17 19  1  0
  7  8  1  0
  1  2  2  0
  2  6  1  0
  5  6  2  0
  4  5  1  0
  3  4  2  0
  1  3  1  0
  8  9  2  0
  9 10  1  0
 10 11  2  0
 11 12  1  0
 12 13  2  0
  8 13  1  0
M  END

$$$$
No_4875-/export/home/yangzhenyu/potential_scad_32_flow//YTHDC2/2024-12-06-03-22-00/
     RDKit          3D

 18 19  0  0  0  0  0  0  0  0999 V2000
    1.1787   -8.0297    3.5154 C   0  0  0  0  0  0  0  0  0  0  0  0
    1.0491   -6.8434    2.9820 C   0  0  0  0  0  0  0  0  0  0  0  0
    0.9905   -9.0774    2.6527 C   0  0  0  0  0  0  0  0  0  0  0  0
    1.1655  -10.4663    3.1286 C   0  0  0  0  0  0  0  0  0  0  0  0
    1.2197  -11.4898    2.5831 C   0  0  0  0  0  0  0  0  0  0  0  0
    1.0589  -11.4458    1.1293 C   0  0  0  0  0  0  0  0  0  0  0  0
    0.9638  -10.3069    0.4651 C   0  0  0  0  0  0  0  0  0  0  0  0
    0.9191   -9.0789    1.1942 C   0  0  0  0  0  0  0  0  0  0  0  0
    0.9198   -7.8339    0.6158 C   0  0  0  0  0  0  0  0  0  0  0  0
    1.0184   -6.6904    1.4953 C   0  0  0  0  0  0  0  0  0  0  0  0
    1.3445  -12.8198    3.0746 C   0  0  0  0  0  0  0  0  0  0  0  0
    0.2302  -13.7310    2.9230 N   0  0  0  0  0  0  0  0  0  0  0  0
    0.6210  -15.0671    3.2385 C   0  0  0  0  0  0  0  0  0  0  0  0
    1.9102  -15.5275    2.9010 C   0  0  0  0  0  0  0  0  0  0  0  0
    2.0908  -16.4081    1.9777 C   0  0  0  0  0  0  0  0  0  0  0  0
    1.6677  -17.6547    2.3428 C   0  0  0  0  0  0  0  0  0  0  0  0
    2.3481  -18.8742    2.3811 C   0  0  0  0  0  0  0  0  0  0  0  0
    1.3359   -5.5958    3.6551 C   0  0  0  0  0  0  0  0  0  0  0  0
  5 11  1  0
 11 12  1  0
 12 13  1  0
 13 14  1  0
 14 15  1  0
 15 16  1  0
 16 17  1  0
  2 18  1  0
  1  2  2  0
  2 10  1  0
  9 10  2  0
  8  9  1  0
  1  3  1  0
  3  4  2  0
  4  5  1  0
  5  6  2  0
  6  7  1  0
  7  8  2  0
  3  8  1  0
M  END

$$$$
No_4876-/export/home/yangzhenyu/potential_scad_32_flow//YTHDC2/2024-12-06-03-22-00/
     RDKit          3D

 17 17  0  0  0  0  0  0  0  0999 V2000
    1.1787   -8.0297    3.5154 C   0  0  0  0  0  0  0  0  0  0  0  0
    1.1048   -9.2215    3.2892 C   0  0  0  0  0  0  0  0  0  0  0  0
    1.3627  -10.1721    4.3044 C   0  0  0  0  0  0  0  0  0  0  0  0
    1.7354  -11.4730    3.9023 C   0  0  0  0  0  0  0  0  0  0  0  0
    1.8080  -11.8127    2.7216 C   0  0  0  0  0  0  0  0  0  0  0  0
    1.5854  -11.0021    1.7249 C   0  0  0  0  0  0  0  0  0  0  0  0
    1.3573   -9.7389    1.9287 C   0  0  0  0  0  0  0  0  0  0  0  0
    1.1102   -8.8712    0.9017 C   0  0  0  0  0  0  0  0  0  0  0  0
    1.5724   -9.1697   -0.3048 O   0  0  0  0  0  0  0  0  0  0  0  0
    0.5064   -7.6844    0.9896 O   0  0  0  0  0  0  0  0  0  0  0  0
    2.0962  -13.2053    2.3188 C   0  0  0  0  0  0  0  0  0  0  0  0
    2.4512  -13.5888    1.0835 O   0  0  0  0  0  0  0  0  0  0  0  0
    2.0456  -14.1924    3.2157 N   0  0  0  0  0  0  0  0  0  0  0  0
    2.1828  -15.5053    2.9438 C   0  0  0  0  0  0  0  0  0  0  0  0
    1.0888  -16.3286    3.0515 C   0  0  0  0  0  0  0  0  0  0  0  0
    1.1603  -17.6256    3.0467 C   0  0  0  0  0  0  0  0  0  0  0  0
    2.4300  -18.1684    2.4623 C   0  0  0  0  0  0  0  0  0  0  0  0
  1  2  1  0
  7  8  1  0
  8  9  2  0
  8 10  1  0
  5 11  1  0
 11 12  2  0
 11 13  1  0
 13 14  1  0
 14 15  1  0
 15 16  2  3
 16 17  1  0
  2  3  2  0
  3  4  1  0
  4  5  2  0
  5  6  1  0
  6  7  2  0
  2  7  1  0
M  END

$$$$
No_4877-/export/home/yangzhenyu/potential_scad_32_flow//YTHDC2/2024-12-06-03-22-00/
     RDKit          3D

 16 17  0  0  0  0  0  0  0  0999 V2000
    1.1787   -8.0297    3.5154 C   0  0  0  0  0  0  0  0  0  0  0  0
    1.1048   -9.2215    3.2892 C   0  0  0  0  0  0  0  0  0  0  0  0
    1.3627  -10.1721    4.3044 C   0  0  0  0  0  0  0  0  0  0  0  0
    1.0682  -11.5187    4.0618 C   0  0  0  0  0  0  0  0  0  0  0  0
    0.7653  -11.7320    2.7387 C   0  0  0  0  0  0  0  0  0  0  0  0
    0.7465  -10.3365    2.0821 C   0  0  0  0  0  0  0  0  0  0  0  0
    1.0657   -7.1804    2.2093 C   0  0  0  0  0  0  0  0  0  0  0  0
    1.1068   -5.6316    2.5857 C   0  0  0  0  0  0  0  0  0  0  0  0
    0.5805  -12.2025    1.6268 C   0  0  0  0  0  0  0  0  0  0  0  0
    0.7415  -13.6839    1.7035 C   0  0  0  0  0  0  0  0  0  0  0  0
    1.2257  -14.1036    2.9920 C   0  0  0  0  0  0  0  0  0  0  0  0
    1.2970  -13.3542    4.0729 C   0  0  0  0  0  0  0  0  0  0  0  0
    1.2697   -7.5395    0.9720 C   0  0  0  0  0  0  0  0  0  0  0  0
    0.4495   -4.8761    2.6715 C   0  0  0  0  0  0  0  0  0  0  0  0
    0.6607   -3.5009    3.1171 C   0  0  0  0  0  0  0  0  0  0  0  0
   -0.3274   -2.5230    3.2093 C   0  0  0  0  0  0  0  0  0  0  0  0
  1  2  1  0
  2  3  1  0
  2  6  1  0
  5  6  1  0
  1  7  2  3
  7  8  1  0
  7 13  1  0
  8 14  1  0
 14 15  2  3
 15 16  1  0
  3  4  1  0
  4  5  2  0
  5  9  1  0
  9 10  2  0
 10 11  1  0
 11 12  2  0
  4 12  1  0
M  END

$$$$
No_4878-/export/home/yangzhenyu/potential_scad_32_flow//YTHDC2/2024-12-06-03-22-00/
     RDKit          3D

 19 20  0  0  0  0  0  0  0  0999 V2000
    1.1787   -8.0297    3.5154 C   0  0  0  0  0  0  0  0  0  0  0  0
    1.1048   -9.2215    3.2892 C   0  0  0  0  0  0  0  0  0  0  0  0
    1.3627  -10.1721    4.3044 Cl  0  0  0  0  0  0  0  0  0  0  0  0
    0.9437   -6.9189    2.5731 C   0  0  0  0  0  0  0  0  0  0  0  0
    0.6904   -7.3879    1.3190 C   0  0  0  0  0  0  0  0  0  0  0  0
    0.5824   -8.6419    0.9733 C   0  0  0  0  0  0  0  0  0  0  0  0
    0.8094   -9.6214    1.8974 C   0  0  0  0  0  0  0  0  0  0  0  0
    0.6591  -10.9337    1.6547 C   0  0  0  0  0  0  0  0  0  0  0  0
   -0.5024  -11.4499    1.3835 C   0  0  0  0  0  0  0  0  0  0  0  0
   -0.5351  -12.8739    0.9605 C   0  0  0  0  0  0  0  0  0  0  0  0
    0.6838  -13.6359    0.8929 C   0  0  0  0  0  0  0  0  0  0  0  0
    1.8871  -12.9874    1.0915 C   0  0  0  0  0  0  0  0  0  0  0  0
    1.9848  -11.6662    1.3962 C   0  0  0  0  0  0  0  0  0  0  0  0
    1.1182   -5.5382    2.9268 C   0  0  0  0  0  0  0  0  0  0  0  0
    0.6095   -4.6235    2.0571 C   0  0  0  0  0  0  0  0  0  0  0  0
    0.7863   -3.2195    2.3314 C   0  0  0  0  0  0  0  0  0  0  0  0
    0.6184  -14.9457    0.4611 Cl  0  0  0  0  0  0  0  0  0  0  0  0
    1.7870   -2.4308    1.9498 C   0  0  0  0  0  0  0  0  0  0  0  0
    1.9593   -1.2115    2.5838 C   0  0  0  0  0  0  0  0  0  0  0  0
  2  3  1  0
  7  8  1  0
  4 14  1  0
 14 15  2  3
 15 16  1  0
 11 17  1  0
 16 18  1  0
 18 19  1  0
  1  2  2  0
  2  7  1  0
  6  7  2  0
  5  6  1  0
  4  5  2  0
  1  4  1  0
  8  9  2  0
  9 10  1  0
 10 11  2  0
 11 12  1  0
 12 13  2  0
  8 13  1  0
M  END

$$$$
No_4879-/export/home/yangzhenyu/potential_scad_32_flow//YTHDC2/2024-12-06-03-22-00/
     RDKit          3D

 19 20  0  0  1  0  0  0  0  0999 V2000
    1.1787   -8.0297    3.5154 C   0  0  0  0  0  0  0  0  0  0  0  0
    1.0491   -6.8434    2.9820 C   0  0  0  0  0  0  0  0  0  0  0  0
    0.9905   -9.0774    2.6527 C   0  0  0  0  0  0  0  0  0  0  0  0
    0.7897   -8.9519    1.3691 C   0  0  0  0  0  0  0  0  0  0  0  0
    0.7018   -7.7198    0.7892 C   0  0  0  0  0  0  0  0  0  0  0  0
    0.8918   -6.5957    1.6117 C   0  0  0  0  0  0  0  0  0  0  0  0
    1.0711  -10.4814    3.2282 C   0  0  2  0  0  0  0  0  0  0  0  0
    2.1432  -11.0138    3.5962 C   0  0  0  0  0  0  0  0  0  0  0  0
   -0.0553  -11.2345    3.2841 C   0  0  0  0  0  0  0  0  0  0  0  0
   -0.7563  -11.4623    2.5482 C   0  0  0  0  0  0  0  0  0  0  0  0
   -2.0734  -12.1021    2.5891 C   0  0  0  0  0  0  0  0  0  0  0  0
   -3.1833  -11.4807    3.1534 C   0  0  0  0  0  0  0  0  0  0  0  0
   -4.2760  -12.2802    3.5138 C   0  0  0  0  0  0  0  0  0  0  0  0
   -4.3652  -13.5284    3.0491 C   0  0  0  0  0  0  0  0  0  0  0  0
   -3.4072  -14.1547    2.4906 C   0  0  0  0  0  0  0  0  0  0  0  0
   -2.2176  -13.4791    2.2559 C   0  0  0  0  0  0  0  0  0  0  0  0
    0.8745   -5.2716    1.1154 O   0  0  0  0  0  0  0  0  0  0  0  0
    2.2786  -11.6335    4.8957 O   0  0  0  0  0  0  0  0  0  0  0  0
   -0.2214   -4.4445    1.2508 C   0  0  0  0  0  0  0  0  0  0  0  0
  3  7  1  0
  7  8  1  6
  7  9  1  0
  9 10  2  3
 10 11  1  0
  6 17  1  0
  8 18  2  0
 17 19  1  0
 11 12  2  0
 12 13  1  0
 13 14  2  0
 14 15  1  0
 15 16  2  0
 11 16  1  0
  1  2  2  0
  2  6  1  0
  5  6  2  0
  4  5  1  0
  3  4  2  0
  1  3  1  0
M  END

$$$$
No_4880-/export/home/yangzhenyu/potential_scad_32_flow//YTHDC2/2024-12-06-03-22-00/
     RDKit          3D

 18 20  0  0  0  0  0  0  0  0999 V2000
    1.1787   -8.0297    3.5154 C   0  0  0  0  0  0  0  0  0  0  0  0
    1.1048   -9.2215    3.2892 C   0  0  0  0  0  0  0  0  0  0  0  0
    1.2339   -9.7611    2.0189 C   0  0  0  0  0  0  0  0  0  0  0  0
    1.3583   -9.0036    0.9764 C   0  0  0  0  0  0  0  0  0  0  0  0
    1.5996   -7.6362    1.1311 C   0  0  0  0  0  0  0  0  0  0  0  0
    1.4830   -7.0928    2.3626 C   0  0  0  0  0  0  0  0  0  0  0  0
    1.1008  -11.2372    1.8542 C   0  0  0  0  0  0  0  0  0  0  0  0
    0.5178  -11.9759    2.3445 N   0  0  0  0  0  0  0  0  0  0  0  0
    0.4895  -13.2495    2.0782 N   0  0  0  0  0  0  0  0  0  0  0  0
    1.5377  -13.4949    1.1965 C   0  0  0  0  0  0  0  0  0  0  0  0
    2.1093  -12.0386    1.0291 C   0  0  0  0  0  0  0  0  0  0  0  0
   -0.1840  -14.3642    2.5636 C   0  0  0  0  0  0  0  0  0  0  0  0
   -1.4119  -14.5198    2.2280 C   0  0  0  0  0  0  0  0  0  0  0  0
   -2.1261  -15.6451    2.7447 C   0  0  0  0  0  0  0  0  0  0  0  0
   -1.4299  -16.5832    3.5171 C   0  0  0  0  0  0  0  0  0  0  0  0
   -0.0433  -16.3805    3.8353 C   0  0  0  0  0  0  0  0  0  0  0  0
    0.6388  -15.2994    3.2698 C   0  0  0  0  0  0  0  0  0  0  0  0
    1.5156   -5.6591    2.6374 Cl  0  0  0  0  0  0  0  0  0  0  0  0
  3  7  1  0
  7  8  2  0
  8  9  1  0
  9 10  1  0
  7 11  1  0
 10 11  1  0
  9 12  1  0
  6 18  1  0
 12 13  2  0
 13 14  1  0
 14 15  2  0
 15 16  1  0
 16 17  2  0
 12 17  1  0
  1  2  2  0
  2  3  1  0
  3  4  2  0
  4  5  1  0
  5  6  2  0
  1  6  1  0
M  END

$$$$
No_4881-/export/home/yangzhenyu/potential_scad_32_flow//YTHDC2/2024-12-06-03-22-00/
     RDKit          3D

 18 19  0  0  0  0  0  0  0  0999 V2000
    1.1787   -8.0297    3.5154 C   0  0  0  0  0  0  0  0  0  0  0  0
    1.0491   -6.8434    2.9820 C   0  0  0  0  0  0  0  0  0  0  0  0
    0.0950   -8.8404    3.2292 C   0  0  0  0  0  0  0  0  0  0  0  0
    0.0602  -10.1764    3.8231 C   0  0  0  0  0  0  0  0  0  0  0  0
    0.2248   -6.3830    2.0648 C   0  0  0  0  0  0  0  0  0  0  0  0
   -0.6745   -7.2322    1.6857 C   0  0  0  0  0  0  0  0  0  0  0  0
   -0.7374   -8.4992    2.1291 C   0  0  0  0  0  0  0  0  0  0  0  0
    1.0517  -10.8728    4.0967 C   0  0  0  0  0  0  0  0  0  0  0  0
    0.8765  -12.2762    4.4635 C   0  0  0  0  0  0  0  0  0  0  0  0
    0.6277  -12.9704    3.4124 C   0  0  0  0  0  0  0  0  0  0  0  0
   -0.4286  -12.5621    2.6485 C   0  0  0  0  0  0  0  0  0  0  0  0
   -1.0757  -13.3563    1.6919 C   0  0  0  0  0  0  0  0  0  0  0  0
   -0.8565  -11.2086    2.7151 C   0  0  0  0  0  0  0  0  0  0  0  0
    0.3535   -5.0787    1.4472 O   0  0  0  0  0  0  0  0  0  0  0  0
    1.1056  -14.3123    3.2416 C   0  0  0  0  0  0  0  0  0  0  0  0
    0.4166  -15.4499    3.5621 C   0  0  0  0  0  0  0  0  0  0  0  0
    1.0142  -16.6622    3.3794 C   0  0  0  0  0  0  0  0  0  0  0  0
    2.2214  -16.8855    2.6599 C   0  0  0  0  0  0  0  0  0  0  0  0
  3  4  1  0
 11 12  1  0
  5 14  1  0
 10 15  1  0
 15 16  2  3
 16 17  1  0
 17 18  2  0
  4  8  2  0
  8  9  1  0
  9 10  2  0
 10 11  1  0
 11 13  2  0
  4 13  1  0
  1  2  2  0
  2  5  1  0
  5  6  2  0
  6  7  1  0
  3  7  2  0
  1  3  1  0
M  END

$$$$
No_4882-/export/home/yangzhenyu/potential_scad_32_flow//YTHDC2/2024-12-06-03-22-00/
     RDKit          3D

 19 20  0  0  1  0  0  0  0  0999 V2000
    1.1787   -8.0297    3.5154 C   0  0  0  0  0  0  0  0  0  0  0  0
    1.1048   -9.2215    3.2892 C   0  0  0  0  0  0  0  0  0  0  0  0
    1.3627  -10.1721    4.3044 C   0  0  0  0  0  0  0  0  0  0  0  0
    1.0682  -11.5187    4.0618 C   0  0  0  0  0  0  0  0  0  0  0  0
    0.6332  -11.9655    2.9682 C   0  0  0  0  0  0  0  0  0  0  0  0
    0.4776  -11.1308    1.9203 C   0  0  0  0  0  0  0  0  0  0  0  0
    0.7470   -9.8274    2.0368 C   0  0  0  0  0  0  0  0  0  0  0  0
    1.0387   -7.0301    2.5175 N   0  0  0  0  0  0  0  0  0  0  0  0
    0.9298   -7.5514    1.2672 C   0  0  0  0  0  0  0  0  0  0  0  0
    0.7824   -8.7713    0.9713 C   0  0  0  0  0  0  0  0  0  0  0  0
    0.6486   -9.2285   -0.2792 C   0  0  0  0  0  0  0  0  0  0  0  0
    0.0394   -8.6365   -1.0803 N   0  0  0  0  0  0  0  0  0  0  0  0
    0.4798  -13.5943    2.6450 C   0  0  1  0  0  0  0  0  0  0  0  0
    1.3233  -14.4367    3.1624 C   0  0  0  0  0  0  0  0  0  0  0  0
    1.5013  -15.6272    2.5835 C   0  0  0  0  0  0  0  0  0  0  0  0
    0.8541  -16.6926    3.1261 N   0  0  0  0  0  0  0  0  0  0  0  0
   -0.6147  -13.8929    2.0710 Cl  0  0  0  0  0  0  0  0  0  0  0  0
    0.9840  -17.8922    2.7101 C   0  0  0  0  0  0  0  0  0  0  0  0
   -0.3996   -7.7605   -0.8352 H   0  0  0  0  0  0  0  0  0  0  0  0
 10 11  1  0
 11 12  2  0
  5 13  1  0
 13 14  1  0
 14 15  1  0
 15 16  1  0
 13 17  1  1
 16 18  2  0
  2  3  1  0
  3  4  2  0
  4  5  1  0
  5  6  2  0
  6  7  1  0
  1  2  2  0
  2  7  1  0
  7 10  2  0
  9 10  1  0
  8  9  2  0
  1  8  1  0
 12 19  1  0
M  END

$$$$
No_4883-/export/home/yangzhenyu/potential_scad_32_flow//YTHDC2/2024-12-06-03-22-00/
     RDKit          3D

 19 20  0  0  0  0  0  0  0  0999 V2000
    1.1787   -8.0297    3.5154 C   0  0  0  0  0  0  0  0  0  0  0  0
    1.1048   -9.2215    3.2892 C   0  0  0  0  0  0  0  0  0  0  0  0
    1.2339   -9.7611    2.0189 C   0  0  0  0  0  0  0  0  0  0  0  0
    1.3583   -9.0036    0.9764 C   0  0  0  0  0  0  0  0  0  0  0  0
    1.5996   -7.6362    1.1311 C   0  0  0  0  0  0  0  0  0  0  0  0
    1.4830   -7.0928    2.3626 C   0  0  0  0  0  0  0  0  0  0  0  0
    1.5395   -5.7300    2.6182 C   0  0  0  0  0  0  0  0  0  0  0  0
    1.1969  -11.3760    1.8433 C   0  0  0  0  0  0  0  0  0  0  0  0
    0.2951  -11.9827    2.0623 C   0  0  0  0  0  0  0  0  0  0  0  0
    0.2264  -13.3724    1.9493 C   0  0  0  0  0  0  0  0  0  0  0  0
   -0.6651  -14.1398    1.6389 C   0  0  0  0  0  0  0  0  0  0  0  0
   -1.9495  -13.5954    1.3434 C   0  0  0  0  0  0  0  0  0  0  0  0
   -2.0595  -12.1565    1.3693 C   0  0  0  0  0  0  0  0  0  0  0  0
   -0.9785  -11.3666    1.6865 C   0  0  0  0  0  0  0  0  0  0  0  0
    1.5855  -14.0233    2.1924 C   0  0  0  0  0  0  0  0  0  0  0  0
    1.6650  -15.4636    2.0887 C   0  0  0  0  0  0  0  0  0  0  0  0
    1.0982  -16.3685    2.3633 C   0  0  0  0  0  0  0  0  0  0  0  0
    0.8889  -17.4685    1.5494 C   0  0  0  0  0  0  0  0  0  0  0  0
    0.2295  -18.6146    2.1092 C   0  0  0  0  0  0  0  0  0  0  0  0
  6  7  1  0
  3  8  1  0
 10 15  1  0
 15 16  2  3
 16 17  1  0
 17 18  2  3
 18 19  1  0
  8  9  1  0
  1  2  2  0
  2  3  1  0
  3  4  2  0
  4  5  1  0
  5  6  2  0
  1  6  1  0
  9 10  2  0
 10 11  1  0
 11 12  2  0
 12 13  1  0
 13 14  2  0
  9 14  1  0
M  END

$$$$
No_4884-/export/home/yangzhenyu/potential_scad_32_flow//YTHDC2/2024-12-06-03-22-00/
     RDKit          3D

 18 19  0  0  0  0  0  0  0  0999 V2000
    1.1787   -8.0297    3.5154 C   0  0  0  0  0  0  0  0  0  0  0  0
    1.0491   -6.8434    2.9820 C   0  0  0  0  0  0  0  0  0  0  0  0
    0.9905   -9.0774    2.6527 C   0  0  0  0  0  0  0  0  0  0  0  0
    0.7897   -8.9519    1.3691 C   0  0  0  0  0  0  0  0  0  0  0  0
    0.7018   -7.7198    0.7892 C   0  0  0  0  0  0  0  0  0  0  0  0
    0.8918   -6.5957    1.6117 C   0  0  0  0  0  0  0  0  0  0  0  0
    1.0998  -10.4710    3.2437 C   0  0  0  0  0  0  0  0  0  0  0  0
    0.0472  -11.2546    3.3963 C   0  0  0  0  0  0  0  0  0  0  0  0
    0.1622  -12.5732    3.4140 C   0  0  0  0  0  0  0  0  0  0  0  0
    1.4182  -13.1957    3.4048 C   0  0  0  0  0  0  0  0  0  0  0  0
    2.5550  -12.3947    3.0877 C   0  0  0  0  0  0  0  0  0  0  0  0
    2.4166  -11.0849    2.9699 C   0  0  0  0  0  0  0  0  0  0  0  0
    0.8666   -5.2662    1.1708 O   0  0  0  0  0  0  0  0  0  0  0  0
    1.4152  -14.5597    3.3707 O   0  0  0  0  0  0  0  0  0  0  0  0
    1.3020  -15.3995    2.3890 C   0  0  0  0  0  0  0  0  0  0  0  0
    1.1912  -14.8916    1.2855 C   0  0  0  0  0  0  0  0  0  0  0  0
    1.2698  -16.6836    2.7229 C   0  0  0  0  0  0  0  0  0  0  0  0
    2.1461  -14.1393    0.7109 C   0  0  0  0  0  0  0  0  0  0  0  0
  1  2  1  0
  3  4  1  0
  2  6  1  0
  5  6  1  0
  3  7  1  0
  6 13  2  0
 10 14  1  0
 14 15  1  0
 15 16  1  0
 15 17  1  0
 16 18  1  0
  1  3  1  0
  4  5  1  0
  7  8  2  0
  8  9  1  0
  9 10  2  0
 10 11  1  0
 11 12  2  0
  7 12  1  0
M  END

$$$$
No_4885-/export/home/yangzhenyu/potential_scad_32_flow//YTHDC2/2024-12-06-03-22-00/
     RDKit          3D

 17 17  0  0  1  0  0  0  0  0999 V2000
    1.1787   -8.0297    3.5154 O   0  0  0  0  0  0  0  0  0  0  0  0
    0.9969   -8.9689    3.0048 C   0  0  0  0  0  0  0  0  0  0  0  0
    1.3055  -10.1056    3.6616 C   0  0  0  0  0  0  0  0  0  0  0  0
    1.1249  -11.3503    3.0941 C   0  0  0  0  0  0  0  0  0  0  0  0
    0.6932  -11.4484    1.8586 C   0  0  0  0  0  0  0  0  0  0  0  0
    0.5498  -10.3736    1.0579 C   0  0  0  0  0  0  0  0  0  0  0  0
    0.7643   -9.1185    1.6383 C   0  0  0  0  0  0  0  0  0  0  0  0
    0.5937   -7.8467    1.0482 C   0  0  0  0  0  0  0  0  0  0  0  0
   -0.4358   -7.6746    0.4159 O   0  0  0  0  0  0  0  0  0  0  0  0
    1.6386   -7.1686    0.4707 O   0  0  0  0  0  0  0  0  0  0  0  0
    1.1671  -12.6321    3.8527 C   0  0  0  0  0  0  0  0  0  0  0  0
    0.4402  -13.7448    3.2108 O   0  0  0  0  0  0  0  0  0  0  0  0
    1.2671  -14.8190    3.0296 C   0  0  1  0  0  0  0  0  0  0  0  0
    0.6136  -16.0452    2.9452 C   0  0  0  0  0  0  0  0  0  0  0  0
    1.3041  -17.1443    3.2547 O   0  0  0  0  0  0  0  0  0  0  0  0
   -0.6938  -16.0375    3.0126 O   0  0  0  0  0  0  0  0  0  0  0  0
    2.1400  -14.6005    1.7497 C   0  0  0  0  0  0  0  0  0  0  0  0
  1  2  1  0
  7  8  1  0
  8  9  2  0
  8 10  1  0
  4 11  1  0
 11 12  1  0
 12 13  1  0
 13 14  1  0
 14 15  2  0
 14 16  1  0
 13 17  1  6
  2  3  2  0
  3  4  1  0
  4  5  2  0
  5  6  1  0
  6  7  2  0
  2  7  1  0
M  END

$$$$
No_4886-/export/home/yangzhenyu/potential_scad_32_flow//YTHDC2/2024-12-06-03-22-00/
     RDKit          3D

 18 18  0  0  1  0  0  0  0  0999 V2000
    1.1787   -8.0297    3.5154 C   0  0  0  0  0  0  0  0  0  0  0  0
    1.0491   -6.8434    2.9820 C   0  0  1  0  0  0  0  0  0  0  0  0
    1.9985   -8.9840    2.8958 C   0  0  2  0  0  0  0  0  0  0  0  0
    1.7297   -9.2108    1.6335 C   0  0  0  0  0  0  0  0  0  0  0  0
    1.7343   -8.0566    0.8408 C   0  0  0  0  0  0  0  0  0  0  0  0
    1.0269   -6.8892    1.4456 C   0  0  0  0  0  0  0  0  0  0  0  0
    2.4114   -7.8399   -0.2028 O   0  0  0  0  0  0  0  0  0  0  0  0
    1.9528  -10.3635    3.5860 C   0  0  0  0  0  0  0  0  0  0  0  0
    1.1456  -11.3228    3.3145 O   0  0  0  0  0  0  0  0  0  0  0  0
    2.7848  -10.5282    4.6639 N   0  0  0  0  0  0  0  0  0  0  0  0
    0.4879   -5.7551    3.4378 C   0  0  0  0  0  0  0  0  0  0  0  0
    0.5256   -4.4994    2.8103 C   0  0  2  0  0  0  0  0  0  0  0  0
    1.7298   -3.7526    2.7823 O   0  0  0  0  0  0  0  0  0  0  0  0
   -0.4554   -3.8638    2.2822 C   0  0  0  0  0  0  0  0  0  0  0  0
   -1.6810   -4.3820    2.3784 C   0  0  0  0  0  0  0  0  0  0  0  0
   -2.4089   -4.4151    3.4477 C   0  0  0  0  0  0  0  0  0  0  0  0
   -2.2811   -3.4118    4.4125 C   0  0  0  0  0  0  0  0  0  0  0  0
   -3.0825   -5.6060    3.9041 C   0  0  0  0  0  0  0  0  0  0  0  0
  1  2  1  0
  1  3  1  0
  3  4  1  0
  4  5  1  0
  2  6  1  0
  5  6  1  0
  5  7  2  0
  3  8  1  1
  8  9  2  0
  8 10  1  0
  2 11  1  1
 11 12  1  0
 12 13  1  1
 12 14  1  0
 14 15  1  0
 15 16  1  0
 16 17  1  0
 16 18  1  0
M  END

$$$$
No_4887-/export/home/yangzhenyu/potential_scad_32_flow//YTHDC2/2024-12-06-03-22-00/
     RDKit          3D

 19 19  0  0  1  0  0  0  0  0999 V2000
    1.1787   -8.0297    3.5154 C   0  0  0  0  0  0  0  0  0  0  0  0
    1.1048   -9.2215    3.2892 C   0  0  0  0  0  0  0  0  0  0  0  0
    1.2339   -9.7611    2.0189 C   0  0  0  0  0  0  0  0  0  0  0  0
    1.3583   -9.0036    0.9764 C   0  0  0  0  0  0  0  0  0  0  0  0
    1.7077   -9.6100   -0.3010 C   0  0  0  0  0  0  0  0  0  0  0  0
    1.3637   -7.1087    2.3226 C   0  0  0  0  0  0  0  0  0  0  0  0
    1.4257   -7.6645    1.0231 C   0  0  0  0  0  0  0  0  0  0  0  0
    1.6722  -10.7840   -0.4044 O   0  0  0  0  0  0  0  0  0  0  0  0
    1.7049   -8.9062   -1.4410 O   0  0  0  0  0  0  0  0  0  0  0  0
    1.1254  -10.1830    4.3846 Cl  0  0  0  0  0  0  0  0  0  0  0  0
    1.3192   -5.5874    2.5324 O   0  0  0  0  0  0  0  0  0  0  0  0
    0.8205   -4.7901    1.7506 C   0  0  2  0  0  0  0  0  0  0  0  0
    1.5371   -3.5901    1.6455 C   0  0  0  0  0  0  0  0  0  0  0  0
   -0.6538   -4.4551    2.1183 C   0  0  0  0  0  0  0  0  0  0  0  0
   -1.6209   -5.2658    1.5985 C   0  0  0  0  0  0  0  0  0  0  0  0
   -2.1425   -6.1452    2.2623 C   0  0  0  0  0  0  0  0  0  0  0  0
   -2.4462   -7.4037    1.6109 C   0  0  0  0  0  0  0  0  0  0  0  0
   -2.4672   -7.3316    0.2330 C   0  0  0  0  0  0  0  0  0  0  0  0
   -1.8867   -6.4244   -0.4797 C   0  0  0  0  0  0  0  0  0  0  0  0
  4  5  1  0
  5  8  2  0
  5  9  1  0
  2 10  1  0
  6 11  1  0
 11 12  1  0
 12 13  1  1
 12 14  1  0
 14 15  1  0
 15 16  1  0
 16 17  2  3
 17 18  1  0
 18 19  2  0
  1  2  2  0
  2  3  1  0
  3  4  2  0
  4  7  1  0
  6  7  2  0
  1  6  1  0
M  END

$$$$
No_4888-/export/home/yangzhenyu/potential_scad_32_flow//YTHDC2/2024-12-06-03-22-00/
     RDKit          3D

 19 20  0  0  1  0  0  0  0  0999 V2000
    1.1787   -8.0297    3.5154 C   0  0  0  0  0  0  0  0  0  0  0  0
    1.1048   -9.2215    3.2892 C   0  0  0  0  0  0  0  0  0  0  0  0
    1.2339   -9.7611    2.0189 C   0  0  2  0  0  0  0  0  0  0  0  0
    1.1954  -11.2312    1.8661 C   0  0  0  0  0  0  0  0  0  0  0  0
    1.2996  -11.5815    0.5387 C   0  0  0  0  0  0  0  0  0  0  0  0
    1.3263   -7.1208    2.3229 C   0  0  1  0  0  0  0  0  0  0  0  0
    1.3693   -7.6408    1.0625 C   0  0  0  0  0  0  0  0  0  0  0  0
    1.5228   -8.9954    0.8505 C   0  0  0  0  0  0  0  0  0  0  0  0
    1.1683  -13.0770    0.6394 C   0  0  0  0  0  0  0  0  0  0  0  0
    1.2914  -11.7787    2.9158 C   0  0  0  0  0  0  0  0  0  0  0  0
    1.1186  -13.2214    2.8741 C   0  0  0  0  0  0  0  0  0  0  0  0
    1.0854  -13.9058    1.7221 C   0  0  0  0  0  0  0  0  0  0  0  0
    1.2983   -5.6342    2.5197 C   0  0  0  0  0  0  0  0  0  0  0  0
    1.5443   -9.3541   -0.3897 O   0  0  0  0  0  0  0  0  0  0  0  0
    1.1833  -15.2418    1.6972 C   0  0  0  0  0  0  0  0  0  0  0  0
    0.2843  -15.9751    1.0182 C   0  0  0  0  0  0  0  0  0  0  0  0
    0.5226  -17.4467    1.1157 C   0  0  0  0  0  0  0  0  0  0  0  0
    1.7174  -17.9414    1.8653 C   0  0  0  0  0  0  0  0  0  0  0  0
    2.5973  -17.1255    2.4561 C   0  0  0  0  0  0  0  0  0  0  0  0
  1  2  1  0
  3  4  1  1
  6  7  1  0
  3  8  1  0
  7  8  1  0
  6 13  1  6
  8 14  2  0
 12 15  1  0
 15 16  2  3
 16 17  1  0
 17 18  2  3
 18 19  1  0
  2  3  1  0
  1  6  1  0
  4  5  2  0
  5  9  1  0
  9 12  2  0
 11 12  1  0
 10 11  2  0
  4 10  1  0
M  END

$$$$
No_4889-/export/home/yangzhenyu/potential_scad_32_flow//YTHDC2/2024-12-06-03-22-00/
     RDKit          3D

 18 19  0  0  1  0  0  0  0  0999 V2000
    1.1787   -8.0297    3.5154 N   0  0  0  0  0  0  0  0  0  0  0  0
    0.8669   -7.0905    2.8589 C   0  0  0  0  0  0  0  0  0  0  0  0
    1.0447   -7.3244    1.4123 C   0  0  0  0  0  0  0  0  0  0  0  0
    1.3746   -8.4389    1.0864 C   0  0  1  0  0  0  0  0  0  0  0  0
    1.8185   -8.7923   -0.3129 C   0  0  0  0  0  0  0  0  0  0  0  0
    1.7714   -9.1001    2.3120 C   0  0  2  0  0  0  0  0  0  0  0  0
    2.1345  -10.3511    2.5694 C   0  0  0  0  0  0  0  0  0  0  0  0
    2.6810   -8.5558   -0.8585 O   0  0  0  0  0  0  0  0  0  0  0  0
    0.8926   -9.6067   -0.8724 O   0  0  0  0  0  0  0  0  0  0  0  0
    2.0749  -11.2955    1.5449 O   0  0  0  0  0  0  0  0  0  0  0  0
    2.3435  -10.8007    3.7417 O   0  0  0  0  0  0  0  0  0  0  0  0
    0.5978   -5.8942    3.5146 C   0  0  0  0  0  0  0  0  0  0  0  0
    1.4419   -4.9248    3.3479 C   0  0  2  0  0  0  0  0  0  0  0  0
    0.9908   -3.6225    3.9014 O   0  0  0  0  0  0  0  0  0  0  0  0
    1.5038   -2.5171    3.1771 C   0  0  0  0  0  0  0  0  0  0  0  0
    2.6120   -2.5552    2.7704 C   0  0  0  0  0  0  0  0  0  0  0  0
    2.9621   -3.7259    2.0553 C   0  0  0  0  0  0  0  0  0  0  0  0
    2.3937   -4.8776    2.4223 C   0  0  0  0  0  0  0  0  0  0  0  0
  1  2  1  0
  2  3  2  0
  3  4  1  0
  4  5  1  6
  1  6  1  0
  4  6  1  0
  6  7  1  1
  5  8  2  0
  5  9  1  0
  7 10  2  0
  7 11  1  0
  2 12  1  0
 13 12  1  6
 13 14  1  0
 14 15  1  0
 15 16  1  0
 16 17  1  0
 13 18  1  0
 17 18  1  0
M  END

$$$$
No_4890-/export/home/yangzhenyu/potential_scad_32_flow//YTHDC2/2024-12-06-03-22-00/
     RDKit          3D

 18 18  0  0  0  0  0  0  0  0999 V2000
    1.1787   -8.0297    3.5154 C   0  0  0  0  0  0  0  0  0  0  0  0
    1.0491   -6.8434    2.9820 C   0  0  0  0  0  0  0  0  0  0  0  0
    0.9905   -9.0774    2.6527 C   0  0  0  0  0  0  0  0  0  0  0  0
    0.7897   -8.9519    1.3691 C   0  0  0  0  0  0  0  0  0  0  0  0
    0.7018   -7.7198    0.7892 C   0  0  0  0  0  0  0  0  0  0  0  0
    0.8918   -6.5957    1.6117 C   0  0  0  0  0  0  0  0  0  0  0  0
    1.0711  -10.4814    3.2282 C   0  0  0  0  0  0  0  0  0  0  0  0
    2.1432  -11.0138    3.5962 C   0  0  0  0  0  0  0  0  0  0  0  0
   -0.0553  -11.2345    3.2841 C   0  0  0  0  0  0  0  0  0  0  0  0
   -0.1131  -12.4857    3.1636 O   0  0  0  0  0  0  0  0  0  0  0  0
   -1.2053  -10.6464    3.9778 O   0  0  0  0  0  0  0  0  0  0  0  0
    0.8552   -5.2744    1.1202 Cl  0  0  0  0  0  0  0  0  0  0  0  0
    2.2555  -11.4095    5.0329 O   0  0  0  0  0  0  0  0  0  0  0  0
    0.6055  -10.0592    0.3658 C   0  0  0  0  0  0  0  0  0  0  0  0
    1.7377  -10.8532    0.1225 O   0  0  0  0  0  0  0  0  0  0  0  0
   -0.3786  -10.1971   -0.4609 O   0  0  0  0  0  0  0  0  0  0  0  0
    1.3643   -5.8014    3.8727 O   0  0  0  0  0  0  0  0  0  0  0  0
    3.1855  -11.0359    3.0030 O   0  0  0  0  0  0  0  0  0  0  0  0
  3  7  1  0
  7  8  1  0
  7  9  1  0
  9 10  2  0
  9 11  1  0
  6 12  1  0
  8 13  1  0
  4 14  1  0
 14 15  2  0
 14 16  1  0
  2 17  1  0
  8 18  2  0
  1  2  2  0
  2  6  1  0
  5  6  2  0
  4  5  1  0
  3  4  2  0
  1  3  1  0
M  END

$$$$
No_4891-/export/home/yangzhenyu/potential_scad_32_flow//YTHDC2/2024-12-06-03-22-00/
     RDKit          3D

 18 18  0  0  0  0  0  0  0  0999 V2000
    1.1787   -8.0297    3.5154 C   0  0  0  0  0  0  0  0  0  0  0  0
    1.1048   -9.2215    3.2892 C   0  0  0  0  0  0  0  0  0  0  0  0
    1.2339   -9.7611    2.0189 C   0  0  0  0  0  0  0  0  0  0  0  0
    1.3583   -9.0036    0.9764 C   0  0  0  0  0  0  0  0  0  0  0  0
    1.5996   -7.6362    1.1311 C   0  0  0  0  0  0  0  0  0  0  0  0
    1.4830   -7.0928    2.3626 C   0  0  0  0  0  0  0  0  0  0  0  0
    1.4898   -5.7274    2.6199 C   0  0  0  0  0  0  0  0  0  0  0  0
    1.1681  -11.2222    1.8390 C   0  0  0  0  0  0  0  0  0  0  0  0
    0.7145  -11.5870    0.5424 O   0  0  0  0  0  0  0  0  0  0  0  0
    1.2135  -12.0870    2.7125 N   0  0  0  0  0  0  0  0  0  0  0  0
    1.1898  -13.4331    2.6811 C   0  0  0  0  0  0  0  0  0  0  0  0
   -0.0679  -14.0016    3.0163 C   0  0  0  0  0  0  0  0  0  0  0  0
   -1.1093  -13.2575    2.7458 C   0  0  0  0  0  0  0  0  0  0  0  0
   -0.1909  -15.3300    3.4160 C   0  0  0  0  0  0  0  0  0  0  0  0
    1.0462  -16.0647    3.6513 O   0  0  0  0  0  0  0  0  0  0  0  0
   -1.2647  -15.9918    3.6062 O   0  0  0  0  0  0  0  0  0  0  0  0
    1.6825   -5.1743    3.8631 O   0  0  0  0  0  0  0  0  0  0  0  0
    1.3616   -4.8358    1.6602 O   0  0  0  0  0  0  0  0  0  0  0  0
  6  7  1  0
  3  8  1  0
  8  9  2  0
  8 10  1  0
 10 11  1  0
 11 12  1  0
 12 13  2  0
 12 14  1  0
 14 15  1  0
 14 16  2  0
  7 17  1  0
  7 18  2  0
  1  2  2  0
  2  3  1  0
  3  4  2  0
  4  5  1  0
  5  6  2  0
  1  6  1  0
M  END

$$$$
No_4892-/export/home/yangzhenyu/potential_scad_32_flow//YTHDC2/2024-12-06-03-22-00/
     RDKit          3D

 17 18  0  0  1  0  0  0  0  0999 V2000
    1.1787   -8.0297    3.5154 N   0  0  0  0  0  0  0  0  0  0  0  0
    1.0818   -9.0751    3.2053 C   0  0  0  0  0  0  0  0  0  0  0  0
    1.5216  -10.1164    3.9747 C   0  0  0  0  0  0  0  0  0  0  0  0
    1.4823  -11.4258    3.6006 C   0  0  0  0  0  0  0  0  0  0  0  0
    0.7594  -11.7488    2.5365 C   0  0  0  0  0  0  0  0  0  0  0  0
    0.1233  -10.8366    1.8408 C   0  0  0  0  0  0  0  0  0  0  0  0
    0.4160   -9.5408    2.0369 C   0  0  0  0  0  0  0  0  0  0  0  0
    0.9875   -6.8088    2.7355 C   0  0  0  0  0  0  0  0  0  0  0  0
    1.1527   -7.1406    1.3291 C   0  0  0  0  0  0  0  0  0  0  0  0
    0.7380   -8.4362    0.9772 C   0  0  0  0  0  0  0  0  0  0  0  0
   -0.1357   -8.5109   -0.1353 C   0  0  2  0  0  0  0  0  0  0  0  0
   -1.4687   -8.3106   -0.1196 O   0  0  0  0  0  0  0  0  0  0  0  0
    0.3993   -8.8989   -1.2681 Cl  0  0  0  0  0  0  0  0  0  0  0  0
    0.4854  -13.2194    2.2766 C   0  0  0  0  0  0  0  0  0  0  0  0
    1.4337  -14.1532    2.6841 C   0  0  0  0  0  0  0  0  0  0  0  0
    0.9517  -15.4742    2.8013 C   0  0  0  0  0  0  0  0  0  0  0  0
   -0.1068  -15.8524    2.3236 C   0  0  0  0  0  0  0  0  0  0  0  0
 10 11  1  0
 11 12  1  1
 11 13  1  0
  5 14  1  0
 14 15  1  0
 15 16  2  3
 16 17  1  0
  2  3  1  0
  3  4  2  0
  4  5  1  0
  5  6  2  0
  6  7  1  0
  1  2  2  0
  2  7  1  0
  7 10  2  0
  9 10  1  0
  8  9  2  0
  1  8  1  0
M  END

$$$$
No_4893-/export/home/yangzhenyu/potential_scad_32_flow//YTHDC2/2024-12-06-03-22-00/
     RDKit          3D

 18 19  0  0  1  0  0  0  0  0999 V2000
    1.1787   -8.0297    3.5154 C   0  0  0  0  0  0  0  0  0  0  0  0
    1.1048   -9.2215    3.2892 C   0  0  0  0  0  0  0  0  0  0  0  0
    1.3627  -10.1721    4.3044 C   0  0  0  0  0  0  0  0  0  0  0  0
    1.0682  -11.5187    4.0618 C   0  0  0  0  0  0  0  0  0  0  0  0
    0.6332  -11.9655    2.9682 C   0  0  0  0  0  0  0  0  0  0  0  0
    0.4719  -13.4293    2.7591 C   0  0  0  0  0  0  0  0  0  0  0  0
    1.1778  -13.9123    1.8627 C   0  0  1  0  0  0  0  0  0  0  0  0
    0.7365   -7.1185    2.4782 C   0  0  0  0  0  0  0  0  0  0  0  0
    0.2584   -7.5219    1.3755 C   0  0  0  0  0  0  0  0  0  0  0  0
    0.1904   -8.8363    1.0907 C   0  0  0  0  0  0  0  0  0  0  0  0
    0.5787   -9.8130    2.0510 C   0  0  0  0  0  0  0  0  0  0  0  0
    0.4887  -11.2179    1.8956 C   0  0  0  0  0  0  0  0  0  0  0  0
    2.1959  -13.4167    1.2965 C   0  0  0  0  0  0  0  0  0  0  0  0
    1.6169  -15.4497    2.1957 C   0  0  0  0  0  0  0  0  0  0  0  0
    2.7722  -15.7896    2.2999 O   0  0  0  0  0  0  0  0  0  0  0  0
    0.5869  -16.2960    2.5952 C   0  0  0  0  0  0  0  0  0  0  0  0
    0.9533   -5.5979    2.6517 C   0  0  0  0  0  0  0  0  0  0  0  0
    0.9990   -4.8780    1.4992 C   0  0  0  0  0  0  0  0  0  0  0  0
  5  6  1  0
  6  7  1  0
  7 13  1  1
  7 14  1  0
 14 15  2  0
 14 16  1  0
  8 17  1  0
 17 18  1  0
  1  2  2  0
 10 11  2  0
  9 10  1  0
  8  9  2  0
  1  8  1  0
  2  3  1  0
  3  4  2  0
  4  5  1  0
  5 12  2  0
 11 12  1  0
  2 11  1  0
M  END

$$$$
No_4894-/export/home/yangzhenyu/potential_scad_32_flow//YTHDC2/2024-12-06-03-22-00/
     RDKit          3D

 19 19  0  0  1  0  0  0  0  0999 V2000
    1.1787   -8.0297    3.5154 C   0  0  0  0  0  0  0  0  0  0  0  0
    1.0491   -6.8434    2.9820 C   0  0  0  0  0  0  0  0  0  0  0  0
    1.9985   -8.9840    2.8958 C   0  0  0  0  0  0  0  0  0  0  0  0
    1.9135  -10.3404    3.6266 C   0  0  1  0  0  0  0  0  0  0  0  0
    2.2847  -10.5440    4.7936 C   0  0  0  0  0  0  0  0  0  0  0  0
    0.3304   -6.7696    1.8077 C   0  0  0  0  0  0  0  0  0  0  0  0
   -0.0362   -5.5612    1.4430 C   0  0  0  0  0  0  0  0  0  0  0  0
    0.4987   -4.3690    2.0777 C   0  0  0  0  0  0  0  0  0  0  0  0
    1.2612   -4.4928    3.2485 C   0  0  0  0  0  0  0  0  0  0  0  0
    1.5767   -5.7598    3.6944 C   0  0  0  0  0  0  0  0  0  0  0  0
    0.6819  -11.0686    3.3387 C   0  0  0  0  0  0  0  0  0  0  0  0
    0.8480  -12.3249    2.7556 C   0  0  0  0  0  0  0  0  0  0  0  0
   -0.1559  -13.0120    2.3408 O   0  0  0  0  0  0  0  0  0  0  0  0
    2.0297  -12.6726    2.2618 N   0  0  0  0  0  0  0  0  0  0  0  0
    2.1761  -13.7405    1.2535 C   0  0  0  0  0  0  0  0  0  0  0  0
    1.5981  -13.5189    0.2022 C   0  0  0  0  0  0  0  0  0  0  0  0
    3.8082  -10.6153    5.0616 C   0  0  0  0  0  0  0  0  0  0  0  0
    0.1505   -3.0855    1.5242 O   0  0  0  0  0  0  0  0  0  0  0  0
    1.1346  -14.6525   -0.4080 O   0  0  0  0  0  0  0  0  0  0  0  0
  1  2  1  0
  1  3  1  0
  4  3  1  1
  4  5  1  0
  4 11  1  0
 11 12  1  0
 12 13  2  0
 12 14  1  0
 14 15  1  0
 15 16  1  0
  5 17  1  0
  8 18  1  0
 16 19  1  0
  2  6  2  0
  6  7  1  0
  7  8  2  0
  8  9  1  0
  9 10  2  0
  2 10  1  0
M  END

$$$$
No_4895-/export/home/yangzhenyu/potential_scad_32_flow//YTHDC2/2024-12-06-03-22-00/
     RDKit          3D

 18 18  0  0  0  0  0  0  0  0999 V2000
    1.1787   -8.0297    3.5154 C   0  0  0  0  0  0  0  0  0  0  0  0
    1.1048   -9.2215    3.2892 C   0  0  0  0  0  0  0  0  0  0  0  0
    1.3627  -10.1721    4.3044 C   0  0  0  0  0  0  0  0  0  0  0  0
    2.3720  -10.8948    4.2468 C   0  0  0  0  0  0  0  0  0  0  0  0
    0.8234   -7.0464    2.5717 C   0  0  0  0  0  0  0  0  0  0  0  0
    0.4328   -7.4736    1.3042 C   0  0  0  0  0  0  0  0  0  0  0  0
    0.3532   -8.7488    0.9919 C   0  0  0  0  0  0  0  0  0  0  0  0
    0.7039   -9.7094    1.9672 C   0  0  0  0  0  0  0  0  0  0  0  0
    0.6986  -10.9809    1.7122 C   0  0  0  0  0  0  0  0  0  0  0  0
   -0.1824  -11.8267    2.1190 N   0  0  0  0  0  0  0  0  0  0  0  0
    0.0394  -13.1266    2.2079 C   0  0  0  0  0  0  0  0  0  0  0  0
    0.4393  -13.8559    1.3319 C   0  0  0  0  0  0  0  0  0  0  0  0
    1.4601  -13.9953    0.9550 C   0  0  0  0  0  0  0  0  0  0  0  0
    0.0473   -9.1587   -0.2974 C   0  0  0  0  0  0  0  0  0  0  0  0
   -0.5289   -8.6302   -1.0891 O   0  0  0  0  0  0  0  0  0  0  0  0
    1.0179   -9.8556   -1.0114 O   0  0  0  0  0  0  0  0  0  0  0  0
    2.4771  -14.5608    1.5822 C   0  0  0  0  0  0  0  0  0  0  0  0
    2.2533  -15.7433    2.1144 C   0  0  0  0  0  0  0  0  0  0  0  0
  2  3  1  0
  3  4  1  0
  8  9  1  0
  9 10  1  0
 10 11  1  0
 11 12  1  0
 12 13  1  0
  7 14  1  0
 14 15  2  0
 14 16  1  0
 13 17  1  0
 17 18  1  0
  1  2  2  0
  2  8  1  0
  7  8  2  0
  6  7  1  0
  5  6  2  0
  1  5  1  0
M  END

$$$$
No_4896-/export/home/yangzhenyu/potential_scad_32_flow//YTHDC2/2024-12-06-03-22-00/
     RDKit          3D

 19 20  0  0  1  0  0  0  0  0999 V2000
    1.1787   -8.0297    3.5154 C   0  0  0  0  0  0  0  0  0  0  0  0
    1.0491   -6.8434    2.9820 C   0  0  0  0  0  0  0  0  0  0  0  0
    0.9905   -9.0774    2.6527 C   0  0  0  0  0  0  0  0  0  0  0  0
    0.7897   -8.9519    1.3691 C   0  0  0  0  0  0  0  0  0  0  0  0
    0.7018   -7.7198    0.7892 C   0  0  0  0  0  0  0  0  0  0  0  0
    0.8918   -6.5957    1.6117 C   0  0  0  0  0  0  0  0  0  0  0  0
    1.0711  -10.4814    3.2282 C   0  0  1  0  0  0  0  0  0  0  0  0
   -0.1055  -11.1328    3.5223 O   0  0  0  0  0  0  0  0  0  0  0  0
    1.9060  -11.4906    2.6420 C   0  0  0  0  0  0  0  0  0  0  0  0
    1.8926  -12.6882    3.3591 C   0  0  0  0  0  0  0  0  0  0  0  0
    0.9673  -13.6530    2.6173 C   0  0  1  0  0  0  0  0  0  0  0  0
    0.6877  -14.7967    3.4121 O   0  0  0  0  0  0  0  0  0  0  0  0
    0.8474   -5.2958    1.1097 O   0  0  0  0  0  0  0  0  0  0  0  0
    0.0219  -15.7669    2.8426 C   0  0  0  0  0  0  0  0  0  0  0  0
   -0.5319  -15.4290    1.7711 C   0  0  0  0  0  0  0  0  0  0  0  0
   -0.2849  -14.0605    1.2746 C   0  0  0  0  0  0  0  0  0  0  0  0
    0.3846  -13.3319    1.6388 C   0  0  0  0  0  0  0  0  0  0  0  0
   -0.0141  -16.9694    3.6274 C   0  0  0  0  0  0  0  0  0  0  0  0
    0.6021  -17.9852    3.3337 O   0  0  0  0  0  0  0  0  0  0  0  0
  3  7  1  0
  7  8  1  6
  7  9  1  0
  9 10  1  0
 11 10  1  1
 11 12  1  0
  6 13  1  0
 12 14  1  0
 14 15  2  0
 15 16  1  0
 11 17  1  0
 16 17  1  0
 14 18  1  0
 18 19  2  0
  1  2  2  0
  2  6  1  0
  5  6  2  0
  4  5  1  0
  3  4  2  0
  1  3  1  0
M  END

$$$$
No_4897-/export/home/yangzhenyu/potential_scad_32_flow//YTHDC2/2024-12-06-03-22-00/
     RDKit          3D

 20 21  0  0  0  0  0  0  0  0999 V2000
    1.1787   -8.0297    3.5154 N   0  0  0  0  0  0  0  0  0  0  0  0
    1.0818   -9.0751    3.2053 C   0  0  0  0  0  0  0  0  0  0  0  0
    1.5216  -10.1164    3.9747 C   0  0  0  0  0  0  0  0  0  0  0  0
    1.7650  -11.2320    3.5712 C   0  0  0  0  0  0  0  0  0  0  0  0
    1.4277  -11.6899    2.3702 C   0  0  0  0  0  0  0  0  0  0  0  0
    1.0443  -10.7313    1.4783 C   0  0  0  0  0  0  0  0  0  0  0  0
    0.9294   -9.4471    1.8469 C   0  0  0  0  0  0  0  0  0  0  0  0
    0.3366   -8.5108    1.0081 C   0  0  0  0  0  0  0  0  0  0  0  0
    0.8384   -8.4333   -0.2510 O   0  0  0  0  0  0  0  0  0  0  0  0
   -0.4550   -7.5558    1.3324 P   0  0  0  0  0  0  0  0  0  0  0  0
    0.0676   -6.2991    1.3171 O   0  0  0  0  0  0  0  0  0  0  0  0
   -1.7295   -7.5620    0.3865 O   0  0  0  0  0  0  0  0  0  0  0  0
   -1.2005   -7.7670    2.7656 O   0  0  0  0  0  0  0  0  0  0  0  0
    1.6860  -13.0660    1.9271 C   0  0  0  0  0  0  0  0  0  0  0  0
    0.5931  -13.9726    1.9530 C   0  0  0  0  0  0  0  0  0  0  0  0
   -0.5623  -13.6280    1.9438 C   0  0  0  0  0  0  0  0  0  0  0  0
   -1.5428  -14.1957    2.4005 C   0  0  0  0  0  0  0  0  0  0  0  0
   -1.3980  -15.5407    2.9220 C   0  0  0  0  0  0  0  0  0  0  0  0
   -0.0588  -15.9867    3.0887 C   0  0  0  0  0  0  0  0  0  0  0  0
    0.9961  -15.1545    2.6117 C   0  0  0  0  0  0  0  0  0  0  0  0
  1  2  1  0
  7  8  1  0
  8  9  2  0
  8 10  1  0
 10 11  2  0
 10 12  1  0
 10 13  1  0
  5 14  1  0
 14 15  1  0
 15 16  2  0
 16 17  1  0
 17 18  2  0
 18 19  1  0
 19 20  2  0
 15 20  1  0
  2  3  2  0
  3  4  1  0
  4  5  2  0
  5  6  1  0
  6  7  2  0
  2  7  1  0
M  END

$$$$
No_4898-/export/home/yangzhenyu/potential_scad_32_flow//YTHDC2/2024-12-06-03-22-00/
     RDKit          3D

 20 21  0  0  0  0  0  0  0  0999 V2000
    1.1787   -8.0297    3.5154 O   0  0  0  0  0  0  0  0  0  0  0  0
    0.9969   -8.9689    3.0048 C   0  0  0  0  0  0  0  0  0  0  0  0
    1.3055  -10.1056    3.6616 C   0  0  0  0  0  0  0  0  0  0  0  0
    1.1249  -11.3503    3.0941 C   0  0  0  0  0  0  0  0  0  0  0  0
    0.6932  -11.4484    1.8586 C   0  0  0  0  0  0  0  0  0  0  0  0
    0.5498  -10.3736    1.0579 C   0  0  0  0  0  0  0  0  0  0  0  0
    0.7643   -9.1185    1.6383 C   0  0  0  0  0  0  0  0  0  0  0  0
    0.5937   -7.8467    1.0482 C   0  0  0  0  0  0  0  0  0  0  0  0
   -0.4358   -7.6746    0.4159 O   0  0  0  0  0  0  0  0  0  0  0  0
    1.5404   -6.9777    0.8453 O   0  0  0  0  0  0  0  0  0  0  0  0
    1.1769  -12.6398    3.8403 C   0  0  0  0  0  0  0  0  0  0  0  0
    1.4171  -13.7378    2.9657 C   0  0  0  0  0  0  0  0  0  0  0  0
    0.4420  -14.8690    3.2086 C   0  0  0  0  0  0  0  0  0  0  0  0
    0.9371  -16.1568    2.7235 C   0  0  0  0  0  0  0  0  0  0  0  0
    2.1526  -16.3802    2.1989 C   0  0  0  0  0  0  0  0  0  0  0  0
    3.1554  -15.3489    2.1647 C   0  0  0  0  0  0  0  0  0  0  0  0
    2.5491  -13.9773    2.4962 C   0  0  0  0  0  0  0  0  0  0  0  0
    2.5777  -17.6426    1.8158 O   0  0  0  0  0  0  0  0  0  0  0  0
    0.1365  -17.3192    2.8915 O   0  0  0  0  0  0  0  0  0  0  0  0
    0.0481  -17.8428    4.2039 C   0  0  0  0  0  0  0  0  0  0  0  0
  1  2  1  0
  7  8  1  0
  8  9  2  0
  8 10  1  0
  4 11  1  0
 11 12  1  0
 15 18  1  0
 14 19  1  0
 19 20  1  0
 12 13  2  0
 13 14  1  0
 14 15  2  0
 15 16  1  0
 16 17  2  0
 12 17  1  0
  2  3  2  0
  3  4  1  0
  4  5  2  0
  5  6  1  0
  6  7  2  0
  2  7  1  0
M  END

$$$$
No_4899-/export/home/yangzhenyu/potential_scad_32_flow//YTHDC2/2024-12-06-03-22-00/
     RDKit          3D

 20 20  0  0  1  0  0  0  0  0999 V2000
    1.1787   -8.0297    3.5154 O   0  0  0  0  0  0  0  0  0  0  0  0
    0.6747   -7.4019    2.7838 C   0  0  1  0  0  0  0  0  0  0  0  0
    0.5570   -6.0797    2.8560 C   0  0  0  0  0  0  0  0  0  0  0  0
   -0.2158   -5.3007    2.0284 O   0  0  0  0  0  0  0  0  0  0  0  0
    0.2384   -7.9547    1.6287 C   0  0  0  0  0  0  0  0  0  0  0  0
    0.3924   -9.2581    1.4720 C   0  0  0  0  0  0  0  0  0  0  0  0
   -0.0714   -9.8162    0.2011 C   0  0  0  0  0  0  0  0  0  0  0  0
   -0.3200   -8.9869   -0.9036 C   0  0  0  0  0  0  0  0  0  0  0  0
   -1.3458   -9.3855   -1.7662 C   0  0  0  0  0  0  0  0  0  0  0  0
   -1.9472  -10.6631   -1.6691 C   0  0  0  0  0  0  0  0  0  0  0  0
   -1.7146  -11.4354   -0.5854 C   0  0  0  0  0  0  0  0  0  0  0  0
   -0.7245  -11.0979    0.3462 C   0  0  0  0  0  0  0  0  0  0  0  0
    1.4562   -5.2703    3.5935 O   0  0  0  0  0  0  0  0  0  0  0  0
   -1.5793   -8.5578   -2.9245 C   0  0  0  0  0  0  0  0  0  0  0  0
   -1.3875   -8.8147   -4.1108 O   0  0  0  0  0  0  0  0  0  0  0  0
   -1.8787   -7.1739   -2.6140 O   0  0  0  0  0  0  0  0  0  0  0  0
   -0.6251  -11.8045    1.5265 C   0  0  0  0  0  0  0  0  0  0  0  0
    0.5727  -12.6766    1.6735 C   0  0  0  0  0  0  0  0  0  0  0  0
    0.9443  -13.3816    2.7224 C   0  0  0  0  0  0  0  0  0  0  0  0
    1.3379  -14.4445    2.6621 C   0  0  0  0  0  0  0  0  0  0  0  0
  2  1  1  6
  2  3  1  0
  3  4  1  0
  2  5  1  0
  5  6  2  3
  6  7  1  0
  3 13  2  0
  9 14  1  0
 14 15  2  0
 14 16  1  0
 12 17  1  0
 17 18  1  0
 18 19  1  0
 19 20  2  0
  7  8  2  0
  8  9  1  0
  9 10  2  0
 10 11  1  0
 11 12  2  0
  7 12  1  0
M  END

$$$$
No_4900-/export/home/yangzhenyu/potential_scad_32_flow//YTHDC2/2024-12-06-03-22-00/
     RDKit          3D

 18 19  0  0  1  0  0  0  0  0999 V2000
    1.1787   -8.0297    3.5154 S   0  0  0  0  0  0  0  0  0  0  0  0
    0.9303   -9.3504    3.2709 C   0  0  0  0  0  0  0  0  0  0  0  0
    0.5395  -10.0016    2.2448 C   0  0  0  0  0  0  0  0  0  0  0  0
    0.4743  -11.4988    2.2057 C   0  0  1  0  0  0  0  0  0  0  0  0
    0.9261   -7.7831    1.7023 C   0  0  0  0  0  0  0  0  0  0  0  0
    0.6622   -9.0414    1.2652 C   0  0  0  0  0  0  0  0  0  0  0  0
    1.3361  -12.2490    2.5283 C   0  0  0  0  0  0  0  0  0  0  0  0
    1.1932  -13.5906    2.4332 C   0  0  2  0  0  0  0  0  0  0  0  0
   -0.0439  -14.0743    2.2665 C   0  0  0  0  0  0  0  0  0  0  0  0
   -1.1424  -13.3076    2.1939 C   0  0  0  0  0  0  0  0  0  0  0  0
   -0.9238  -11.9530    2.2130 C   0  0  0  0  0  0  0  0  0  0  0  0
    1.0975   -6.5776    1.0094 C   0  0  0  0  0  0  0  0  0  0  0  0
    0.9565   -5.4125    1.8942 C   0  0  2  0  0  0  0  0  0  0  0  0
    2.0947   -5.0391    2.7176 C   0  0  0  0  0  0  0  0  0  0  0  0
    2.3468  -14.5038    2.5744 C   0  0  0  0  0  0  0  0  0  0  0  0
   -0.3801   -5.2216    2.2750 C   0  0  0  0  0  0  0  0  0  0  0  0
   -1.9452  -11.0696    1.9719 O   0  0  0  0  0  0  0  0  0  0  0  0
   -1.3536   -5.5205    1.6485 C   0  0  0  0  0  0  0  0  0  0  0  0
  1  2  1  0
  2  3  2  0
  4  3  1  1
  1  5  1  0
  3  6  1  0
  5  6  2  0
  4  7  1  0
  8  9  1  0
  4 11  1  0
 10 11  1  0
  5 12  1  0
 12 13  1  0
 13 14  1  1
  8 15  1  1
 13 16  1  0
 11 17  2  0
 16 18  1  0
  7  8  1  0
  9 10  1  0
M  END

$$$$
No_4901-/export/home/yangzhenyu/potential_scad_32_flow//YTHDC2/2024-12-06-03-22-00/
     RDKit          3D

 19 19  0  0  1  0  0  0  0  0999 V2000
    1.1787   -8.0297    3.5154 C   0  0  0  0  0  0  0  0  0  0  0  0
    1.0491   -6.8434    2.9820 C   0  0  0  0  0  0  0  0  0  0  0  0
    0.9905   -9.0774    2.6527 C   0  0  0  0  0  0  0  0  0  0  0  0
    0.7897   -8.9519    1.3691 C   0  0  0  0  0  0  0  0  0  0  0  0
    0.6550  -10.0985    0.4848 C   0  0  1  0  0  0  0  0  0  0  0  0
    0.7849   -6.5836    1.6043 C   0  0  0  0  0  0  0  0  0  0  0  0
    0.6652   -7.6671    0.8008 C   0  0  0  0  0  0  0  0  0  0  0  0
    0.0083   -9.7878   -0.7706 C   0  0  0  0  0  0  0  0  0  0  0  0
   -1.2768  -10.1959   -0.9346 O   0  0  0  0  0  0  0  0  0  0  0  0
    0.4851   -9.0070   -1.6779 O   0  0  0  0  0  0  0  0  0  0  0  0
    1.2491  -10.6362    3.2672 Cl  0  0  0  0  0  0  0  0  0  0  0  0
    0.6902   -5.2645    1.1231 O   0  0  0  0  0  0  0  0  0  0  0  0
    1.0786  -11.2213    0.6047 C   0  0  0  0  0  0  0  0  0  0  0  0
    2.4075  -11.6181    0.5487 O   0  0  0  0  0  0  0  0  0  0  0  0
    0.2241  -12.3580    0.6905 N   0  0  0  0  0  0  0  0  0  0  0  0
    0.6419  -13.7043    0.7988 C   0  0  0  0  0  0  0  0  0  0  0  0
    0.3055   -4.1916    1.8789 C   0  0  0  0  0  0  0  0  0  0  0  0
    0.8621  -14.1356    2.0930 C   0  0  0  0  0  0  0  0  0  0  0  0
    2.0747  -14.7655    2.3062 C   0  0  0  0  0  0  0  0  0  0  0  0
  4  5  1  0
  5  8  1  6
  8  9  1  0
  8 10  2  0
  3 11  1  0
  6 12  1  0
  5 13  1  0
 13 14  2  0
 13 15  1  0
 15 16  1  0
 12 17  1  0
 16 18  1  0
 18 19  1  0
  1  2  2  0
  2  6  1  0
  6  7  2  0
  4  7  1  0
  3  4  2  0
  1  3  1  0
M  END

$$$$
No_4902-/export/home/yangzhenyu/potential_scad_32_flow//YTHDC2/2024-12-06-03-22-00/
     RDKit          3D

 16 17  0  0  1  0  0  0  0  0999 V2000
    1.1787   -8.0297    3.5154 C   0  0  0  0  0  0  0  0  0  0  0  0
    1.1048   -9.2215    3.2892 C   0  0  0  0  0  0  0  0  0  0  0  0
    1.2339   -9.7611    2.0189 C   0  0  0  0  0  0  0  0  0  0  0  0
    1.3583   -9.0036    0.9764 C   0  0  0  0  0  0  0  0  0  0  0  0
    1.5996   -7.6362    1.1311 C   0  0  0  0  0  0  0  0  0  0  0  0
    1.4830   -7.0928    2.3626 C   0  0  0  0  0  0  0  0  0  0  0  0
    1.4898   -5.7274    2.6199 C   0  0  0  0  0  0  0  0  0  0  0  0
    1.1681  -11.2222    1.8390 C   0  0  2  0  0  0  0  0  0  0  0  0
    1.9047  -12.1147    2.3357 N   0  0  0  0  0  0  0  0  0  0  0  0
    1.6918  -13.4296    2.1335 C   0  0  0  0  0  0  0  0  0  0  0  0
    1.3106  -13.8785    1.0076 C   0  0  0  0  0  0  0  0  0  0  0  0
    0.6379  -12.9622    0.1546 C   0  0  0  0  0  0  0  0  0  0  0  0
    0.5602  -11.6074    0.5525 C   0  0  0  0  0  0  0  0  0  0  0  0
    1.2452   -4.8565    1.6254 O   0  0  0  0  0  0  0  0  0  0  0  0
    1.7566   -5.1425    3.7722 O   0  0  0  0  0  0  0  0  0  0  0  0
    2.3574  -14.2687    3.0289 O   0  0  0  0  0  0  0  0  0  0  0  0
  6  7  1  0
  8  3  1  6
  8  9  1  0
  9 10  1  0
 10 11  1  0
  8 13  1  0
 12 13  1  0
  7 14  1  0
  7 15  2  0
 10 16  2  0
 11 12  1  0
  1  2  2  0
  2  3  1  0
  3  4  2  0
  4  5  1  0
  5  6  2  0
  1  6  1  0
M  END

$$$$
No_4903-/export/home/yangzhenyu/potential_scad_32_flow//YTHDC2/2024-12-06-03-22-00/
     RDKit          3D

 20 21  0  0  0  0  0  0  0  0999 V2000
    1.1787   -8.0297    3.5154 C   0  0  0  0  0  0  0  0  0  0  0  0
    1.1048   -9.2215    3.2892 C   0  0  0  0  0  0  0  0  0  0  0  0
    1.3627  -10.1721    4.3044 C   0  0  0  0  0  0  0  0  0  0  0  0
    1.7354  -11.4730    3.9023 C   0  0  0  0  0  0  0  0  0  0  0  0
    1.8080  -11.8127    2.7216 C   0  0  0  0  0  0  0  0  0  0  0  0
    1.5854  -11.0021    1.7249 C   0  0  0  0  0  0  0  0  0  0  0  0
    1.3573   -9.7389    1.9287 C   0  0  0  0  0  0  0  0  0  0  0  0
    1.1102   -8.8712    0.9017 C   0  0  0  0  0  0  0  0  0  0  0  0
    0.5299   -7.6926    1.0325 C   0  0  0  0  0  0  0  0  0  0  0  0
    0.7526   -7.0802    2.3301 C   0  0  0  0  0  0  0  0  0  0  0  0
    2.0528  -13.2563    2.4302 C   0  0  0  0  0  0  0  0  0  0  0  0
    2.3796  -13.7498    1.3110 O   0  0  0  0  0  0  0  0  0  0  0  0
    1.7130  -14.2260    3.2924 O   0  0  0  0  0  0  0  0  0  0  0  0
    0.5949   -5.7139    2.5541 C   0  0  0  0  0  0  0  0  0  0  0  0
    1.0340   -4.8391    1.6557 O   0  0  0  0  0  0  0  0  0  0  0  0
    0.6764   -3.4418    1.7106 C   0  0  0  0  0  0  0  0  0  0  0  0
    0.7250   -2.8061    2.6447 C   0  0  0  0  0  0  0  0  0  0  0  0
   -0.2109   -2.5745    3.4650 C   0  0  0  0  0  0  0  0  0  0  0  0
   -1.4537   -2.8805    2.8391 C   0  0  0  0  0  0  0  0  0  0  0  0
   -1.6612   -3.5308    1.8283 N   0  0  0  0  0  0  0  0  0  0  0  0
  5 11  1  0
 11 12  2  0
 11 13  1  0
 10 14  1  0
 14 15  1  0
 15 16  1  0
 16 17  1  0
 17 18  1  0
 18 19  2  3
 19 20  1  0
  1  2  2  0
  7  8  2  0
  8  9  1  0
  9 10  2  0
  1 10  1  0
  2  3  1  0
  3  4  2  0
  4  5  1  0
  5  6  2  0
  6  7  1  0
  2  7  1  0
M  END

$$$$
No_4904-/export/home/yangzhenyu/potential_scad_32_flow//YTHDC2/2024-12-06-03-22-00/
     RDKit          3D

 17 18  0  0  1  0  0  0  0  0999 V2000
    1.1787   -8.0297    3.5154 C   0  0  0  0  0  0  0  0  0  0  0  0
    1.0491   -6.8434    2.9820 C   0  0  0  0  0  0  0  0  0  0  0  0
    0.9905   -9.0774    2.6527 C   0  0  0  0  0  0  0  0  0  0  0  0
    0.7897   -8.9519    1.3691 C   0  0  0  0  0  0  0  0  0  0  0  0
    0.7018   -7.7198    0.7892 C   0  0  0  0  0  0  0  0  0  0  0  0
    0.8918   -6.5957    1.6117 C   0  0  0  0  0  0  0  0  0  0  0  0
    1.0711  -10.4814    3.2282 C   0  0  1  0  0  0  0  0  0  0  0  0
   -0.1055  -11.1328    3.5223 C   0  0  0  0  0  0  0  0  0  0  0  0
   -1.2061  -10.3495    3.8837 C   0  0  0  0  0  0  0  0  0  0  0  0
   -1.2715   -9.5949    5.0137 C   0  0  0  0  0  0  0  0  0  0  0  0
   -2.3226   -8.7872    5.3499 C   0  0  0  0  0  0  0  0  0  0  0  0
   -3.3409   -8.6873    4.5477 C   0  0  0  0  0  0  0  0  0  0  0  0
   -3.3662   -9.3023    3.3561 C   0  0  0  0  0  0  0  0  0  0  0  0
   -2.3177  -10.1277    2.9760 C   0  0  0  0  0  0  0  0  0  0  0  0
    2.0212  -11.2919    2.5691 C   0  0  0  0  0  0  0  0  0  0  0  0
    2.0946  -12.5849    3.1382 C   0  0  0  0  0  0  0  0  0  0  0  0
    1.7610  -13.6788    2.2400 C   0  0  0  0  0  0  0  0  0  0  0  0
  3  7  1  0
  7  8  1  6
  8  9  1  0
  7 15  1  0
 15 16  1  0
 16 17  1  0
  1  2  2  0
  2  6  1  0
  5  6  2  0
  4  5  1  0
  3  4  2  0
  1  3  1  0
  9 10  2  0
 10 11  1  0
 11 12  2  0
 12 13  1  0
 13 14  2  0
  9 14  1  0
M  END

$$$$
No_4905-/export/home/yangzhenyu/potential_scad_32_flow//YTHDC2/2024-12-06-03-22-00/
     RDKit          3D

 21 23  0  0  0  0  0  0  0  0999 V2000
    1.1787   -8.0297    3.5154 C   0  0  0  0  0  0  0  0  0  0  0  0
    1.0491   -6.8434    2.9820 C   0  0  0  0  0  0  0  0  0  0  0  0
    0.0950   -8.8404    3.2292 C   0  0  0  0  0  0  0  0  0  0  0  0
   -0.9173   -8.4596    2.5152 C   0  0  0  0  0  0  0  0  0  0  0  0
   -1.0331   -7.2162    2.0653 C   0  0  0  0  0  0  0  0  0  0  0  0
   -0.0105   -6.3168    2.3081 C   0  0  0  0  0  0  0  0  0  0  0  0
    0.0485   -4.9783    1.8782 C   0  0  0  0  0  0  0  0  0  0  0  0
   -0.4744   -4.1559    2.2381 O   0  0  0  0  0  0  0  0  0  0  0  0
    0.9176   -4.7079    0.8087 O   0  0  0  0  0  0  0  0  0  0  0  0
    0.2222  -10.4891    3.7537 C   0  0  0  0  0  0  0  0  0  0  0  0
    1.2545  -10.9403    4.2083 C   0  0  0  0  0  0  0  0  0  0  0  0
    1.3438  -12.3043    3.9945 C   0  0  0  0  0  0  0  0  0  0  0  0
    0.2986  -12.9977    3.6160 C   0  0  0  0  0  0  0  0  0  0  0  0
   -0.7907  -12.4479    3.1530 C   0  0  0  0  0  0  0  0  0  0  0  0
   -0.8872  -11.0440    3.2348 C   0  0  0  0  0  0  0  0  0  0  0  0
    0.5663  -14.6257    3.5377 C   0  0  0  0  0  0  0  0  0  0  0  0
   -0.2617  -15.4288    3.5914 C   0  0  0  0  0  0  0  0  0  0  0  0
    0.0285  -16.8057    3.6218 C   0  0  0  0  0  0  0  0  0  0  0  0
    1.2442  -17.2641    2.9549 N   0  0  0  0  0  0  0  0  0  0  0  0
    2.1894  -16.2965    2.7140 C   0  0  0  0  0  0  0  0  0  0  0  0
    1.9605  -14.9494    2.7958 C   0  0  0  0  0  0  0  0  0  0  0  0
  6  7  1  0
  7  8  2  0
  7  9  1  0
  3 10  1  0
 13 16  1  0
  1  2  2  0
  2  6  1  0
  5  6  2  0
  4  5  1  0
  3  4  2  0
  1  3  1  0
 10 11  2  0
 11 12  1  0
 12 13  2  0
 13 14  1  0
 14 15  2  0
 10 15  1  0
 16 17  2  0
 17 18  1  0
 18 19  2  0
 19 20  1  0
 20 21  2  0
 16 21  1  0
M  END

$$$$
No_4906-/export/home/yangzhenyu/potential_scad_32_flow//YTHDC2/2024-12-06-03-22-00/
     RDKit          3D

 17 18  0  0  0  0  0  0  0  0999 V2000
    1.1787   -8.0297    3.5154 C   0  0  0  0  0  0  0  0  0  0  0  0
    1.0491   -6.8434    2.9820 C   0  0  0  0  0  0  0  0  0  0  0  0
    0.9905   -9.0774    2.6527 C   0  0  0  0  0  0  0  0  0  0  0  0
    0.7897   -8.9519    1.3691 C   0  0  0  0  0  0  0  0  0  0  0  0
    0.7018   -7.7198    0.7892 C   0  0  0  0  0  0  0  0  0  0  0  0
    0.8918   -6.5957    1.6117 C   0  0  0  0  0  0  0  0  0  0  0  0
    1.0711  -10.4814    3.2282 C   0  0  0  0  0  0  0  0  0  0  0  0
   -0.1055  -11.1328    3.5223 C   0  0  0  0  0  0  0  0  0  0  0  0
   -0.1824  -12.4513    3.3816 C   0  0  0  0  0  0  0  0  0  0  0  0
    0.9472  -13.2655    3.1726 C   0  0  0  0  0  0  0  0  0  0  0  0
    2.1715  -12.6012    2.9116 C   0  0  0  0  0  0  0  0  0  0  0  0
    2.2064  -11.2741    2.8264 C   0  0  0  0  0  0  0  0  0  0  0  0
    0.8996  -14.6381    3.2447 O   0  0  0  0  0  0  0  0  0  0  0  0
    0.8445   -5.2766    1.1112 Cl  0  0  0  0  0  0  0  0  0  0  0  0
    0.9602  -15.4538    2.2718 C   0  0  0  0  0  0  0  0  0  0  0  0
    0.5727  -15.0171    1.1936 C   0  0  0  0  0  0  0  0  0  0  0  0
    1.4144  -14.8643    0.1814 C   0  0  0  0  0  0  0  0  0  0  0  0
  3  7  1  0
 10 13  1  0
  6 14  1  0
 13 15  1  0
 15 16  1  0
 16 17  1  0
  1  2  2  0
  2  6  1  0
  5  6  2  0
  4  5  1  0
  3  4  2  0
  1  3  1  0
  7  8  2  0
  8  9  1  0
  9 10  2  0
 10 11  1  0
 11 12  2  0
  7 12  1  0
M  END

$$$$
No_4907-/export/home/yangzhenyu/potential_scad_32_flow//YTHDC2/2024-12-06-03-22-00/
     RDKit          3D

 18 18  0  0  1  0  0  0  0  0999 V2000
    1.1787   -8.0297    3.5154 C   0  0  0  0  0  0  0  0  0  0  0  0
    1.1048   -9.2215    3.2892 C   0  0  0  0  0  0  0  0  0  0  0  0
    1.2339   -9.7611    2.0189 C   0  0  0  0  0  0  0  0  0  0  0  0
    1.3583   -9.0036    0.9764 C   0  0  0  0  0  0  0  0  0  0  0  0
    1.5996   -7.6362    1.1311 C   0  0  0  0  0  0  0  0  0  0  0  0
    1.4830   -7.0928    2.3626 C   0  0  0  0  0  0  0  0  0  0  0  0
    1.1008  -11.2372    1.8542 C   0  0  1  0  0  0  0  0  0  0  0  0
    0.4812  -11.6084    0.6459 C   0  0  0  0  0  0  0  0  0  0  0  0
    0.5134  -13.0269    0.4830 O   0  0  0  0  0  0  0  0  0  0  0  0
   -0.3487  -10.9770   -0.0361 O   0  0  0  0  0  0  0  0  0  0  0  0
    1.5746   -5.6500    2.7088 C   0  0  0  0  0  0  0  0  0  0  0  0
    1.7828  -12.0214    2.6124 C   0  0  0  0  0  0  0  0  0  0  0  0
    1.0416  -12.6747    3.6307 C   0  0  0  0  0  0  0  0  0  0  0  0
    0.0119  -13.4040    3.0436 C   0  0  0  0  0  0  0  0  0  0  0  0
    0.4363  -14.8588    2.8129 C   0  0  0  0  0  0  0  0  0  0  0  0
   -0.4696  -15.7673    2.4974 C   0  0  0  0  0  0  0  0  0  0  0  0
   -1.7561  -15.3049    2.2686 C   0  0  0  0  0  0  0  0  0  0  0  0
   -2.1624  -14.0431    2.4895 C   0  0  0  0  0  0  0  0  0  0  0  0
  3  7  1  0
  7  8  1  0
  8  9  1  0
  8 10  2  0
  6 11  1  0
  7 12  1  6
 12 13  1  0
 13 14  1  0
 14 15  1  0
 15 16  2  3
 16 17  1  0
 17 18  2  0
  1  2  2  0
  2  3  1  0
  3  4  2  0
  4  5  1  0
  5  6  2  0
  1  6  1  0
M  END

$$$$
No_4908-/export/home/yangzhenyu/potential_scad_32_flow//YTHDC2/2024-12-06-03-22-00/
     RDKit          3D

 16 16  0  0  1  0  0  0  0  0999 V2000
    1.1787   -8.0297    3.5154 C   0  0  0  0  0  0  0  0  0  0  0  0
    1.0491   -6.8434    2.9820 C   0  0  1  0  0  0  0  0  0  0  0  0
    1.9985   -8.9840    2.8958 C   0  0  0  0  0  0  0  0  0  0  0  0
    1.1815  -10.1889    2.5497 N   0  0  0  0  0  0  0  0  0  0  0  0
    1.3896  -11.2525    2.1975 C   0  0  0  0  0  0  0  0  0  0  0  0
    1.5495  -12.3793    2.9745 C   0  0  0  0  0  0  0  0  0  0  0  0
    0.5972  -13.0898    3.0877 C   0  0  0  0  0  0  0  0  0  0  0  0
   -0.1863  -13.4483    2.0422 C   0  0  0  0  0  0  0  0  0  0  0  0
   -0.1872  -12.5510    1.0386 C   0  0  0  0  0  0  0  0  0  0  0  0
    0.6462  -11.5119    1.0211 C   0  0  0  0  0  0  0  0  0  0  0  0
    1.7330   -5.7904    3.5061 C   0  0  0  0  0  0  0  0  0  0  0  0
    1.3923   -4.4727    2.9274 O   0  0  0  0  0  0  0  0  0  0  0  0
    0.6090   -6.6469    1.6723 C   0  0  0  0  0  0  0  0  0  0  0  0
   -0.0030   -7.7370    1.0510 C   0  0  0  0  0  0  0  0  0  0  0  0
   -1.2358   -8.0446    1.3715 C   0  0  0  0  0  0  0  0  0  0  0  0
   -1.9680   -7.2454    2.2400 C   0  0  0  0  0  0  0  0  0  0  0  0
  2  1  1  6
  1  3  1  0
  3  4  1  0
  4  5  1  0
  2 11  1  0
 11 12  1  0
  2 13  1  0
 13 14  1  0
 14 15  1  0
 15 16  1  0
  5  6  2  0
  6  7  1  0
  7  8  2  0
  8  9  1  0
  9 10  2  0
  5 10  1  0
M  END

$$$$
No_4909-/export/home/yangzhenyu/potential_scad_32_flow//YTHDC2/2024-12-06-03-22-00/
     RDKit          3D

 17 17  0  0  1  0  0  0  0  0999 V2000
    1.1787   -8.0297    3.5154 C   0  0  0  0  0  0  0  0  0  0  0  0
    1.1048   -9.2215    3.2892 C   0  0  0  0  0  0  0  0  0  0  0  0
    1.3627  -10.1721    4.3044 C   0  0  0  0  0  0  0  0  0  0  0  0
    1.0682  -11.5187    4.0618 C   0  0  0  0  0  0  0  0  0  0  0  0
    0.6332  -11.9655    2.9682 C   0  0  0  0  0  0  0  0  0  0  0  0
    0.4776  -11.1308    1.9203 C   0  0  0  0  0  0  0  0  0  0  0  0
    0.7470   -9.8274    2.0368 C   0  0  0  0  0  0  0  0  0  0  0  0
    0.5535   -7.1314    2.6861 N   0  0  0  0  0  0  0  0  0  0  0  0
    0.8108   -5.6615    2.8397 C   0  0  1  0  0  0  0  0  0  0  0  0
    1.5892   -5.3057    3.8098 C   0  0  0  0  0  0  0  0  0  0  0  0
    0.3885   -4.8768    1.8708 C   0  0  0  0  0  0  0  0  0  0  0  0
   -0.2251   -5.3601    0.8717 O   0  0  0  0  0  0  0  0  0  0  0  0
    1.1420   -3.6702    1.5129 C   0  0  0  0  0  0  0  0  0  0  0  0
    0.3463  -13.3411    2.7047 C   0  0  0  0  0  0  0  0  0  0  0  0
    1.2937  -14.3273    3.1906 C   0  0  0  0  0  0  0  0  0  0  0  0
    1.4439  -15.5513    2.5440 C   0  0  0  0  0  0  0  0  0  0  0  0
    2.3862  -15.6685    1.7188 C   0  0  0  0  0  0  0  0  0  0  0  0
  1  2  1  0
  1  8  1  0
  8  9  1  0
  9 10  1  6
  9 11  1  0
 11 12  2  0
 11 13  1  0
  5 14  1  0
 14 15  1  0
 15 16  1  0
 16 17  1  0
  2  3  2  0
  3  4  1  0
  4  5  2  0
  5  6  1  0
  6  7  2  0
  2  7  1  0
M  END

$$$$
No_4910-/export/home/yangzhenyu/potential_scad_32_flow//YTHDC2/2024-12-06-03-22-00/
     RDKit          3D

 18 19  0  0  0  0  0  0  0  0999 V2000
    1.1787   -8.0297    3.5154 C   0  0  0  0  0  0  0  0  0  0  0  0
    1.1048   -9.2215    3.2892 C   0  0  0  0  0  0  0  0  0  0  0  0
    1.2339   -9.7611    2.0189 C   0  0  0  0  0  0  0  0  0  0  0  0
    1.3583   -9.0036    0.9764 C   0  0  0  0  0  0  0  0  0  0  0  0
    1.5996   -7.6362    1.1311 C   0  0  0  0  0  0  0  0  0  0  0  0
    1.4830   -7.0928    2.3626 C   0  0  0  0  0  0  0  0  0  0  0  0
    1.1008  -11.2372    1.8542 C   0  0  0  0  0  0  0  0  0  0  0  0
    0.4812  -11.6084    0.6459 C   0  0  0  0  0  0  0  0  0  0  0  0
    0.5134  -13.0269    0.4830 C   0  0  0  0  0  0  0  0  0  0  0  0
    1.2057  -13.8685    1.2734 C   0  0  0  0  0  0  0  0  0  0  0  0
    1.9819  -13.3990    2.3594 C   0  0  0  0  0  0  0  0  0  0  0  0
    1.8610  -12.0988    2.6716 C   0  0  0  0  0  0  0  0  0  0  0  0
    2.5653  -11.6133    3.6969 N   0  0  0  0  0  0  0  0  0  0  0  0
    1.5559   -5.4735    2.7016 Cl  0  0  0  0  0  0  0  0  0  0  0  0
    1.5872   -9.4980   -0.5527 O   0  0  0  0  0  0  0  0  0  0  0  0
    1.2551  -15.2144    0.9016 Cl  0  0  0  0  0  0  0  0  0  0  0  0
   -0.1928  -13.5370   -0.6443 S   0  0  0  0  0  0  0  0  0  0  0  0
    0.0443  -14.7333   -1.0068 O   0  0  0  0  0  0  0  0  0  0  0  0
  3  7  1  0
  6 14  1  0
  4 15  1  0
 10 16  1  0
  9 17  1  0
 17 18  2  0
 12 13  1  0
  1  2  2  0
  2  3  1  0
  3  4  2  0
  4  5  1  0
  5  6  2  0
  1  6  1  0
  7  8  2  0
  8  9  1  0
  9 10  2  0
 10 11  1  0
 11 12  2  0
  7 12  1  0
M  END

$$$$
No_4911-/export/home/yangzhenyu/potential_scad_32_flow//YTHDC2/2024-12-06-03-22-00/
     RDKit          3D

 19 20  0  0  1  0  0  0  0  0999 V2000
    1.1787   -8.0297    3.5154 C   0  0  0  0  0  0  0  0  0  0  0  0
    1.0491   -6.8434    2.9820 C   0  0  0  0  0  0  0  0  0  0  0  0
    1.9985   -8.9840    2.8958 C   0  0  0  0  0  0  0  0  0  0  0  0
    1.9135  -10.3404    3.6266 C   0  0  0  0  0  0  0  0  0  0  0  0
    0.9460  -10.6347    4.5748 C   0  0  0  0  0  0  0  0  0  0  0  0
   -0.0977   -9.6850    4.6652 C   0  0  0  0  0  0  0  0  0  0  0  0
   -0.0465   -8.4791    4.1040 C   0  0  0  0  0  0  0  0  0  0  0  0
    1.1124   -5.6985    3.4928 O   0  0  0  0  0  0  0  0  0  0  0  0
    1.1802   -6.6732    1.5931 O   0  0  0  0  0  0  0  0  0  0  0  0
    0.8518  -11.9145    4.8342 O   0  0  0  0  0  0  0  0  0  0  0  0
    3.0462  -11.3528    3.2933 N   0  0  0  0  0  0  0  0  0  0  0  0
    2.8128  -11.9789    2.4097 C   0  0  0  0  0  0  0  0  0  0  0  0
    1.8588  -11.8447    1.4441 C   0  0  0  0  0  0  0  0  0  0  0  0
    1.0133  -12.9604    1.0747 C   0  0  1  0  0  0  0  0  0  0  0  0
    1.2442  -14.2394    1.2449 C   0  0  0  0  0  0  0  0  0  0  0  0
    0.3895  -15.1897    0.9917 C   0  0  0  0  0  0  0  0  0  0  0  0
   -0.8390  -14.4910    0.6923 C   0  0  0  0  0  0  0  0  0  0  0  0
   -0.4506  -13.0234    0.7265 C   0  0  0  0  0  0  0  0  0  0  0  0
   -1.1840  -11.9308    0.5127 C   0  0  0  0  0  0  0  0  0  0  0  0
  1  2  1  0
  2  8  1  0
  2  9  2  0
  5 10  1  0
  4 11  1  0
 11 12  2  3
 12 13  1  0
 14 13  1  1
 14 15  1  0
 15 16  2  0
 16 17  1  0
 14 18  1  0
 17 18  1  0
 18 19  1  0
  1  3  2  0
  3  4  1  0
  4  5  2  0
  5  6  1  0
  6  7  2  0
  1  7  1  0
M  END

$$$$
No_4912-/export/home/yangzhenyu/potential_scad_32_flow//YTHDC2/2024-12-06-03-22-00/
     RDKit          3D

 18 17  0  0  0  0  0  0  0  0999 V2000
    1.1787   -8.0297    3.5154 O   0  0  0  0  0  0  0  0  0  0  0  0
    0.6747   -7.4019    2.7838 C   0  0  0  0  0  0  0  0  0  0  0  0
    0.7594   -8.0032    1.4295 C   0  0  0  0  0  0  0  0  0  0  0  0
    0.3459   -9.1500    1.3581 C   0  0  0  0  0  0  0  0  0  0  0  0
    0.9461   -9.9230    0.3350 C   0  0  0  0  0  0  0  0  0  0  0  0
    0.6395  -11.0790    0.1456 O   0  0  0  0  0  0  0  0  0  0  0  0
    1.7820   -9.2531   -0.5227 O   0  0  0  0  0  0  0  0  0  0  0  0
    1.1294   -5.9539    2.8571 O   0  0  0  0  0  0  0  0  0  0  0  0
   -0.5844   -9.6600    2.0846 C   0  0  0  0  0  0  0  0  0  0  0  0
   -0.3005  -10.5752    3.1528 N   0  0  0  0  0  0  0  0  0  0  0  0
   -1.0941  -10.6265    4.1960 C   0  0  0  0  0  0  0  0  0  0  0  0
    0.9034  -11.3274    3.2492 C   0  0  0  0  0  0  0  0  0  0  0  0
    1.0412  -12.6537    3.2568 C   0  0  0  0  0  0  0  0  0  0  0  0
    0.3101  -13.4292    2.3770 C   0  0  0  0  0  0  0  0  0  0  0  0
    1.0287  -14.3630    1.6602 C   0  0  0  0  0  0  0  0  0  0  0  0
    2.3167  -14.0145    1.3900 C   0  0  0  0  0  0  0  0  0  0  0  0
   -1.8972   -9.2091    2.0034 O   0  0  0  0  0  0  0  0  0  0  0  0
    1.3914  -15.7352    2.2174 C   0  0  0  0  0  0  0  0  0  0  0  0
  1  2  1  0
  2  3  1  0
  3  4  1  0
  4  5  1  0
  5  6  1  0
  5  7  2  0
  2  8  2  0
  4  9  1  0
  9 10  1  0
 10 11  1  0
 10 12  1  0
 12 13  1  0
 13 14  1  0
 14 15  1  0
 15 16  1  0
  9 17  2  0
 15 18  1  0
M  END

$$$$
No_4913-/export/home/yangzhenyu/potential_scad_32_flow//YTHDC2/2024-12-06-03-22-00/
     RDKit          3D

 17 18  0  0  0  0  0  0  0  0999 V2000
    1.1787   -8.0297    3.5154 C   0  0  0  0  0  0  0  0  0  0  0  0
    1.1048   -9.2215    3.2892 C   0  0  0  0  0  0  0  0  0  0  0  0
    1.2339   -9.7611    2.0189 C   0  0  0  0  0  0  0  0  0  0  0  0
    1.3583   -9.0036    0.9764 C   0  0  0  0  0  0  0  0  0  0  0  0
    1.5996   -7.6362    1.1311 C   0  0  0  0  0  0  0  0  0  0  0  0
    1.4830   -7.0928    2.3626 C   0  0  0  0  0  0  0  0  0  0  0  0
    1.5395   -5.7300    2.6182 C   0  0  0  0  0  0  0  0  0  0  0  0
    1.1969  -11.3760    1.8433 C   0  0  0  0  0  0  0  0  0  0  0  0
    0.2951  -11.9827    2.0623 C   0  0  0  0  0  0  0  0  0  0  0  0
   -0.9721  -11.3462    2.6505 C   0  0  0  0  0  0  0  0  0  0  0  0
    0.2535  -13.4451    1.8800 C   0  0  0  0  0  0  0  0  0  0  0  0
    1.2606  -14.0607    2.3935 C   0  0  0  0  0  0  0  0  0  0  0  0
    2.0053  -14.9024    1.5707 C   0  0  0  0  0  0  0  0  0  0  0  0
    1.6865  -15.8125    0.9874 N   0  0  0  0  0  0  0  0  0  0  0  0
   -0.6994  -13.9978    1.2493 C   0  0  0  0  0  0  0  0  0  0  0  0
   -0.3297  -15.0693    0.2629 C   0  0  0  0  0  0  0  0  0  0  0  0
    0.4816  -15.9682    0.2591 C   0  0  0  0  0  0  0  0  0  0  0  0
  6  7  1  0
  3  8  1  0
  8  9  2  3
  9 10  1  0
  9 11  1  0
 11 12  1  0
 12 13  1  0
 13 14  2  0
 11 15  1  0
 15 16  1  0
 14 17  1  0
 16 17  1  0
  1  2  2  0
  2  3  1  0
  3  4  2  0
  4  5  1  0
  5  6  2  0
  1  6  1  0
M  END

$$$$
No_4914-/export/home/yangzhenyu/potential_scad_32_flow//YTHDC2/2024-12-06-03-22-00/
     RDKit          3D

 17 17  0  0  0  0  0  0  0  0999 V2000
    1.1787   -8.0297    3.5154 C   0  0  0  0  0  0  0  0  0  0  0  0
    1.1048   -9.2215    3.2892 C   0  0  0  0  0  0  0  0  0  0  0  0
    1.2339   -9.7611    2.0189 C   0  0  0  0  0  0  0  0  0  0  0  0
    1.3583   -9.0036    0.9764 C   0  0  0  0  0  0  0  0  0  0  0  0
    1.5996   -7.6362    1.1311 C   0  0  0  0  0  0  0  0  0  0  0  0
    1.4830   -7.0928    2.3626 C   0  0  0  0  0  0  0  0  0  0  0  0
    1.1008  -11.2372    1.8542 C   0  0  0  0  0  0  0  0  0  0  0  0
    0.5178  -11.9759    2.3445 C   0  0  0  0  0  0  0  0  0  0  0  0
    0.4575  -13.3705    2.1281 C   0  0  0  0  0  0  0  0  0  0  0  0
    1.1632  -14.1013    2.0451 C   0  0  0  0  0  0  0  0  0  0  0  0
    2.4646  -13.5566    1.4445 C   0  0  0  0  0  0  0  0  0  0  0  0
    1.4828  -15.3910    2.7611 C   0  0  0  0  0  0  0  0  0  0  0  0
    0.5624  -15.7763    3.5893 O   0  0  0  0  0  0  0  0  0  0  0  0
    2.0906  -16.3758    2.0230 O   0  0  0  0  0  0  0  0  0  0  0  0
    1.5704   -5.4749    2.6787 C   0  0  0  0  0  0  0  0  0  0  0  0
    0.6614   -4.7965    2.5750 N   0  0  0  0  0  0  0  0  0  0  0  0
    0.7167   -3.4117    2.9179 C   0  0  0  0  0  0  0  0  0  0  0  0
  3  7  1  0
  7  8  2  3
  8  9  1  0
  9 10  2  3
 10 11  1  0
 10 12  1  0
 12 13  1  0
 12 14  2  0
  6 15  1  0
 15 16  1  0
 16 17  1  0
  1  2  2  0
  2  3  1  0
  3  4  2  0
  4  5  1  0
  5  6  2  0
  1  6  1  0
M  END

$$$$
No_4915-/export/home/yangzhenyu/potential_scad_32_flow//YTHDC2/2024-12-06-03-22-00/
     RDKit          3D

 16 17  0  0  1  0  0  0  0  0999 V2000
    1.1787   -8.0297    3.5154 C   0  0  0  0  0  0  0  0  0  0  0  0
    1.0491   -6.8434    2.9820 C   0  0  0  0  0  0  0  0  0  0  0  0
    0.9905   -9.0774    2.6527 C   0  0  0  0  0  0  0  0  0  0  0  0
    0.7897   -8.9519    1.3691 C   0  0  0  0  0  0  0  0  0  0  0  0
    0.7018   -7.7198    0.7892 C   0  0  0  0  0  0  0  0  0  0  0  0
    0.8918   -6.5957    1.6117 C   0  0  0  0  0  0  0  0  0  0  0  0
    1.0711  -10.4814    3.2282 C   0  0  1  0  0  0  0  0  0  0  0  0
    2.1432  -11.0138    3.5962 C   0  0  0  0  0  0  0  0  0  0  0  0
   -0.0912  -10.6996    4.1636 C   0  0  0  0  0  0  0  0  0  0  0  0
    0.8866   -5.0514    1.0520 F   0  0  0  0  0  0  0  0  0  0  0  0
    2.1054  -12.3729    3.8953 C   0  0  0  0  0  0  0  0  0  0  0  0
   -0.1411  -11.9438    4.6646 C   0  0  0  0  0  0  0  0  0  0  0  0
    0.9810  -12.8019    4.5278 C   0  0  0  0  0  0  0  0  0  0  0  0
   -1.1734   -9.9072    4.1772 O   0  0  0  0  0  0  0  0  0  0  0  0
    0.6927   -9.9962    0.3764 N   0  0  0  0  0  0  0  0  0  0  0  0
   -0.1405  -10.3820   -0.2153 O   0  0  0  0  0  0  0  0  0  0  0  0
  7  3  1  1
  7  8  1  0
  7  9  1  0
  6 10  1  0
  9 12  1  0
 11 13  1  0
 12 13  1  0
  9 14  2  0
  4 15  1  0
 15 16  2  0
  8 11  1  0
  1  2  2  0
  2  6  1  0
  5  6  2  0
  4  5  1  0
  3  4  2  0
  1  3  1  0
M  END

$$$$
No_4916-/export/home/yangzhenyu/potential_scad_32_flow//YTHDC2/2024-12-06-03-22-00/
     RDKit          3D

 18 19  0  0  0  0  0  0  0  0999 V2000
    1.1787   -8.0297    3.5154 C   0  0  0  0  0  0  0  0  0  0  0  0
    1.1048   -9.2215    3.2892 C   0  0  0  0  0  0  0  0  0  0  0  0
    1.2339   -9.7611    2.0189 C   0  0  0  0  0  0  0  0  0  0  0  0
    1.3583   -9.0036    0.9764 C   0  0  0  0  0  0  0  0  0  0  0  0
    1.5996   -7.6362    1.1311 C   0  0  0  0  0  0  0  0  0  0  0  0
    1.4830   -7.0928    2.3626 C   0  0  0  0  0  0  0  0  0  0  0  0
    1.5395   -5.7300    2.6182 C   0  0  0  0  0  0  0  0  0  0  0  0
    1.1775  -11.2233    1.8407 C   0  0  0  0  0  0  0  0  0  0  0  0
    0.7252  -11.5870    0.5412 C   0  0  0  0  0  0  0  0  0  0  0  0
    0.5994  -13.0100    0.4511 C   0  0  0  0  0  0  0  0  0  0  0  0
    0.9545  -13.8873    1.4441 C   0  0  0  0  0  0  0  0  0  0  0  0
    1.4784  -13.3975    2.6594 C   0  0  0  0  0  0  0  0  0  0  0  0
    1.5766  -12.0395    2.8884 C   0  0  0  0  0  0  0  0  0  0  0  0
    2.1181  -11.5379    3.9767 N   0  0  0  0  0  0  0  0  0  0  0  0
    1.3158   -4.7986    1.6525 O   0  0  0  0  0  0  0  0  0  0  0  0
    1.7394   -5.1885    3.8424 O   0  0  0  0  0  0  0  0  0  0  0  0
    0.9353  -15.2420    1.2182 C   0  0  0  0  0  0  0  0  0  0  0  0
    0.1121  -15.8453    0.4445 N   0  0  0  0  0  0  0  0  0  0  0  0
  6  7  1  0
  3  8  1  0
 13 14  1  0
  7 15  2  0
  7 16  1  0
 11 17  1  0
 17 18  1  0
  1  2  2  0
  2  3  1  0
  3  4  2  0
  4  5  1  0
  5  6  2  0
  1  6  1  0
  8  9  2  0
  9 10  1  0
 10 11  2  0
 11 12  1  0
 12 13  2  0
  8 13  1  0
M  END

$$$$
No_4917-/export/home/yangzhenyu/potential_scad_32_flow//YTHDC2/2024-12-06-03-22-00/
     RDKit          3D

 18 18  0  0  1  0  0  0  0  0999 V2000
    1.1787   -8.0297    3.5154 N   0  0  0  0  0  0  0  0  0  0  0  0
    0.8669   -7.0905    2.8589 C   0  0  0  0  0  0  0  0  0  0  0  0
    1.0447   -7.3244    1.4123 C   0  0  0  0  0  0  0  0  0  0  0  0
    1.3746   -8.4389    1.0864 C   0  0  0  0  0  0  0  0  0  0  0  0
    1.8493   -9.4093    1.8124 C   0  0  0  0  0  0  0  0  0  0  0  0
    1.7421   -9.2119    3.1541 C   0  0  0  0  0  0  0  0  0  0  0  0
    2.0645  -10.4347    4.1977 Cl  0  0  0  0  0  0  0  0  0  0  0  0
    1.7270   -8.7006   -0.3890 C   0  0  0  0  0  0  0  0  0  0  0  0
    2.7204   -8.6402   -1.0027 O   0  0  0  0  0  0  0  0  0  0  0  0
    0.6684   -9.2436   -1.0956 O   0  0  0  0  0  0  0  0  0  0  0  0
    0.5019   -5.6992    3.4333 C   0  0  0  0  0  0  0  0  0  0  0  0
    1.6750   -4.5747    3.5693 C   0  0  0  0  0  0  0  0  0  0  0  0
    1.0296   -3.4524    2.9100 O   0  0  0  0  0  0  0  0  0  0  0  0
    1.1491   -3.3712    1.5773 C   0  0  2  0  0  0  0  0  0  0  0  0
    2.2650  -10.6788    1.3513 O   0  0  0  0  0  0  0  0  0  0  0  0
    1.9111   -2.4678    1.0469 C   0  0  0  0  0  0  0  0  0  0  0  0
    0.2034   -4.1179    0.9039 C   0  0  0  0  0  0  0  0  0  0  0  0
   -1.2312   -3.8442    1.4139 C   0  0  0  0  0  0  0  0  0  0  0  0
  6  7  1  0
  4  8  1  0
  8  9  2  0
  8 10  1  0
  2 11  1  0
 11 12  1  0
 12 13  1  0
 13 14  1  0
  5 15  1  0
 14 16  1  6
 14 17  1  0
 17 18  1  0
  1  2  2  0
  2  3  1  0
  3  4  2  0
  4  5  1  0
  5  6  2  0
  1  6  1  0
M  END

$$$$
No_4918-/export/home/yangzhenyu/potential_scad_32_flow//YTHDC2/2024-12-06-03-22-00/
     RDKit          3D

 18 18  0  0  0  0  0  0  0  0999 V2000
    1.1787   -8.0297    3.5154 C   0  0  0  0  0  0  0  0  0  0  0  0
    1.0491   -6.8434    2.9820 C   0  0  0  0  0  0  0  0  0  0  0  0
    2.0004   -8.9805    3.0498 C   0  0  0  0  0  0  0  0  0  0  0  0
    1.7645   -9.3848    1.9317 C   0  0  0  0  0  0  0  0  0  0  0  0
    1.6080   -8.3094    0.9956 C   0  0  0  0  0  0  0  0  0  0  0  0
    1.1777   -7.0234    1.4767 C   0  0  0  0  0  0  0  0  0  0  0  0
    2.1104  -10.3308    4.1571 C   0  0  0  0  0  0  0  0  0  0  0  0
    3.1594  -10.3961    4.7336 O   0  0  0  0  0  0  0  0  0  0  0  0
    1.1368  -11.1689    4.2785 O   0  0  0  0  0  0  0  0  0  0  0  0
    1.8183   -8.5573   -0.5552 C   0  0  0  0  0  0  0  0  0  0  0  0
    0.8723   -8.8988   -1.0721 O   0  0  0  0  0  0  0  0  0  0  0  0
    2.9955   -8.5600   -1.0191 O   0  0  0  0  0  0  0  0  0  0  0  0
    0.7454   -5.6544    3.3895 C   0  0  0  0  0  0  0  0  0  0  0  0
    1.8941   -4.7258    3.6084 C   0  0  0  0  0  0  0  0  0  0  0  0
    1.4678   -3.3496    3.2244 C   0  0  0  0  0  0  0  0  0  0  0  0
    2.1252   -2.7619    2.3626 C   0  0  0  0  0  0  0  0  0  0  0  0
    0.4149   -2.7296    3.8276 C   0  0  0  0  0  0  0  0  0  0  0  0
    1.6581   -1.5973    1.8044 C   0  0  0  0  0  0  0  0  0  0  0  0
  3  7  1  0
  7  8  1  0
  7  9  2  0
  5 10  1  0
 10 11  2  0
 10 12  1  0
  2 13  1  0
 13 14  1  0
 14 15  1  0
 15 16  1  0
 15 17  1  0
 16 18  2  0
  1  2  2  0
  2  6  1  0
  5  6  2  0
  4  5  1  0
  3  4  2  0
  1  3  1  0
M  END

$$$$
No_4919-/export/home/yangzhenyu/potential_scad_32_flow//YTHDC2/2024-12-06-03-22-00/
     RDKit          3D

 19 19  0  0  1  0  0  0  0  0999 V2000
    1.1787   -8.0297    3.5154 N   0  0  0  0  0  0  0  0  0  0  0  0
    0.8669   -7.0905    2.8589 C   0  0  1  0  0  0  0  0  0  0  0  0
    0.8842   -5.8387    3.2677 C   0  0  0  0  0  0  0  0  0  0  0  0
    1.2819   -9.4050    3.1259 C   0  0  0  0  0  0  0  0  0  0  0  0
    0.9982   -9.6626    1.9545 C   0  0  2  0  0  0  0  0  0  0  0  0
    0.5765   -8.7977    1.0818 C   0  0  1  0  0  0  0  0  0  0  0  0
    0.5834   -7.4551    1.4263 C   0  0  0  0  0  0  0  0  0  0  0  0
    0.3166   -9.1085   -0.2293 C   0  0  0  0  0  0  0  0  0  0  0  0
    1.0608  -11.1194    1.6133 C   0  0  1  0  0  0  0  0  0  0  0  0
    1.4849  -11.4084    0.5231 C   0  0  0  0  0  0  0  0  0  0  0  0
   -0.9772   -9.3724   -0.6127 C   0  0  0  0  0  0  0  0  0  0  0  0
   -1.9467   -9.5918    0.2981 O   0  0  0  0  0  0  0  0  0  0  0  0
   -1.4893   -9.2358   -1.8254 O   0  0  0  0  0  0  0  0  0  0  0  0
    1.9992   -5.2731    3.8396 C   0  0  0  0  0  0  0  0  0  0  0  0
    0.1003   -6.5029    0.6441 O   0  0  0  0  0  0  0  0  0  0  0  0
    1.4722  -12.0005    2.7672 C   0  0  0  0  0  0  0  0  0  0  0  0
    1.2353  -13.3333    2.6015 C   0  0  0  0  0  0  0  0  0  0  0  0
    1.1139  -14.0860    1.8763 C   0  0  0  0  0  0  0  0  0  0  0  0
    1.1480  -15.2927    2.0236 C   0  0  0  0  0  0  0  0  0  0  0  0
  1  2  1  0
  2  3  1  6
  1  4  1  0
  5  6  1  0
  2  7  1  0
  6  7  1  0
  6  8  1  6
  5  9  1  0
  9 10  1  6
  8 11  1  0
 11 12  1  0
 11 13  2  0
  3 14  1  0
  7 15  2  0
  9 16  1  0
 16 17  2  3
 17 18  1  0
 18 19  2  0
  5  4  1  1
M  END

$$$$
No_4920-/export/home/yangzhenyu/potential_scad_32_flow//YTHDC2/2024-12-06-03-22-00/
     RDKit          3D

 18 18  0  0  1  0  0  0  0  0999 V2000
    1.1787   -8.0297    3.5154 O   0  0  0  0  0  0  0  0  0  0  0  0
    0.9969   -8.9689    3.0048 C   0  0  0  0  0  0  0  0  0  0  0  0
    1.3055  -10.1056    3.6616 C   0  0  0  0  0  0  0  0  0  0  0  0
    2.1315  -10.4529    4.2438 C   0  0  0  0  0  0  0  0  0  0  0  0
    0.4484   -8.8156    1.7225 C   0  0  1  0  0  0  0  0  0  0  0  0
   -0.0257   -7.6054    1.5545 C   0  0  0  0  0  0  0  0  0  0  0  0
    0.8214   -6.5530    1.3964 C   0  0  0  0  0  0  0  0  0  0  0  0
    0.4484   -5.2097    1.5423 C   0  0  0  0  0  0  0  0  0  0  0  0
   -0.8084   -4.9369    1.6086 C   0  0  0  0  0  0  0  0  0  0  0  0
   -1.7700   -5.8978    1.8638 C   0  0  0  0  0  0  0  0  0  0  0  0
   -1.3910   -7.2226    1.8073 C   0  0  0  0  0  0  0  0  0  0  0  0
   -2.2995   -8.1765    2.1359 C   0  0  0  0  0  0  0  0  0  0  0  0
    2.4305  -11.8333    4.7886 C   0  0  0  0  0  0  0  0  0  0  0  0
    0.5836   -9.5996    0.7630 C   0  0  0  0  0  0  0  0  0  0  0  0
    1.6607  -10.4108    0.4987 C   0  0  0  0  0  0  0  0  0  0  0  0
    2.8283   -9.6557    0.2830 O   0  0  0  0  0  0  0  0  0  0  0  0
    1.8652  -11.6774    0.5811 O   0  0  0  0  0  0  0  0  0  0  0  0
   -3.0016   -8.9427    1.2001 O   0  0  0  0  0  0  0  0  0  0  0  0
  1  2  1  0
  2  3  1  0
  3  4  2  3
  2  5  1  0
  5  6  1  0
 11 12  1  0
  4 13  1  0
  5 14  1  6
 14 15  1  0
 15 16  1  0
 15 17  2  0
 12 18  2  0
  6  7  2  0
  7  8  1  0
  8  9  2  0
  9 10  1  0
 10 11  2  0
  6 11  1  0
M  END

$$$$
No_4921-/export/home/yangzhenyu/potential_scad_32_flow//YTHDC2/2024-12-06-03-22-00/
     RDKit          3D

 19 20  0  0  0  0  0  0  0  0999 V2000
    1.1787   -8.0297    3.5154 C   0  0  0  0  0  0  0  0  0  0  0  0
    1.1048   -9.2215    3.2892 C   0  0  0  0  0  0  0  0  0  0  0  0
    1.3627  -10.1721    4.3044 C   0  0  0  0  0  0  0  0  0  0  0  0
    1.0682  -11.5187    4.0618 C   0  0  0  0  0  0  0  0  0  0  0  0
    0.6332  -11.9655    2.9682 C   0  0  0  0  0  0  0  0  0  0  0  0
    0.4776  -11.1308    1.9203 C   0  0  0  0  0  0  0  0  0  0  0  0
    0.1540  -11.7530    0.6168 C   0  0  0  0  0  0  0  0  0  0  0  0
    0.7979   -9.8320    2.0306 C   0  0  0  0  0  0  0  0  0  0  0  0
   -1.3071  -11.9040    0.4813 Cl  0  0  0  0  0  0  0  0  0  0  0  0
    1.0657   -7.0474    2.5175 C   0  0  0  0  0  0  0  0  0  0  0  0
    1.1578   -5.5412    2.7727 C   0  0  0  0  0  0  0  0  0  0  0  0
    0.6085   -8.9625    0.9992 C   0  0  0  0  0  0  0  0  0  0  0  0
    0.8236   -7.5041    1.1268 C   0  0  0  0  0  0  0  0  0  0  0  0
    0.3117   -9.2053   -0.2824 O   0  0  0  0  0  0  0  0  0  0  0  0
    0.8923   -6.7467    0.2145 O   0  0  0  0  0  0  0  0  0  0  0  0
    0.4783  -13.3447    2.8373 O   0  0  0  0  0  0  0  0  0  0  0  0
    1.6612  -14.2232    2.9025 C   0  0  0  0  0  0  0  0  0  0  0  0
    2.3006  -14.4885    1.7661 C   0  0  0  0  0  0  0  0  0  0  0  0
    2.5988  -13.4969    1.0061 O   0  0  0  0  0  0  0  0  0  0  0  0
  1  2  1  0
  6  7  1  0
  7  9  1  0
 10 11  1  0
  8 12  1  0
 10 13  1  0
 12 13  1  0
 12 14  2  0
 13 15  2  0
  5 16  1  0
 16 17  1  0
 17 18  1  0
 18 19  1  0
  1 10  1  0
  2  3  2  0
  3  4  1  0
  4  5  2  0
  5  6  1  0
  6  8  2  0
  2  8  1  0
M  END

$$$$
No_4922-/export/home/yangzhenyu/potential_scad_32_flow//YTHDC2/2024-12-06-03-22-00/
     RDKit          3D

 16 17  0  0  1  0  0  0  0  0999 V2000
    1.1787   -8.0297    3.5154 C   0  0  0  0  0  0  0  0  0  0  0  0
    1.1048   -9.2215    3.2892 C   0  0  0  0  0  0  0  0  0  0  0  0
    1.2339   -9.7611    2.0189 C   0  0  0  0  0  0  0  0  0  0  0  0
    1.3583   -9.0036    0.9764 C   0  0  0  0  0  0  0  0  0  0  0  0
    1.5996   -7.6362    1.1311 C   0  0  0  0  0  0  0  0  0  0  0  0
    1.4830   -7.0928    2.3626 C   0  0  0  0  0  0  0  0  0  0  0  0
    1.1171  -11.3311    1.8661 C   0  0  2  0  0  0  0  0  0  0  0  0
    1.9975  -12.1095    2.2478 C   0  0  0  0  0  0  0  0  0  0  0  0
    1.7697  -13.4418    1.9079 C   0  0  0  0  0  0  0  0  0  0  0  0
    0.8824  -13.8563    1.1154 C   0  0  2  0  0  0  0  0  0  0  0  0
    0.0421  -12.3339    0.8812 C   0  0  0  0  0  0  0  0  0  0  0  0
    1.5389   -5.4394    2.6831 Cl  0  0  0  0  0  0  0  0  0  0  0  0
    0.1610  -14.6391    0.4277 C   0  0  0  0  0  0  0  0  0  0  0  0
   -0.6924  -14.3191   -0.6436 C   0  0  0  0  0  0  0  0  0  0  0  0
   -1.0769  -13.0223   -0.8996 C   0  0  0  0  0  0  0  0  0  0  0  0
   -1.9014  -12.7942   -2.0153 C   0  0  0  0  0  0  0  0  0  0  0  0
  7  3  1  6
  7  8  1  0
  8  9  2  0
  9 10  1  0
  7 11  1  0
 10 11  1  1
  6 12  1  0
 10 13  1  0
 13 14  2  3
 14 15  1  0
 15 16  1  0
  1  2  2  0
  2  3  1  0
  3  4  2  0
  4  5  1  0
  5  6  2  0
  1  6  1  0
M  END

$$$$
No_4923-/export/home/yangzhenyu/potential_scad_32_flow//YTHDC2/2024-12-06-03-22-00/
     RDKit          3D

 18 18  0  0  0  0  0  0  0  0999 V2000
    1.1787   -8.0297    3.5154 C   0  0  0  0  0  0  0  0  0  0  0  0
    1.0491   -6.8434    2.9820 C   0  0  0  0  0  0  0  0  0  0  0  0
    1.9985   -8.9840    2.8958 C   0  0  0  0  0  0  0  0  0  0  0  0
    1.9135  -10.3404    3.6266 C   0  0  0  0  0  0  0  0  0  0  0  0
    1.3291  -11.3908    3.0222 C   0  0  0  0  0  0  0  0  0  0  0  0
    1.2749  -12.5326    3.7562 C   0  0  0  0  0  0  0  0  0  0  0  0
    0.4248   -6.6481    1.7861 O   0  0  0  0  0  0  0  0  0  0  0  0
    1.8980   -5.7285    3.2958 O   0  0  0  0  0  0  0  0  0  0  0  0
    0.6965  -13.6843    3.1541 N   0  0  0  0  0  0  0  0  0  0  0  0
    1.0982  -11.4132    1.7208 C   0  0  0  0  0  0  0  0  0  0  0  0
    0.7344  -12.6807    1.0866 C   0  0  0  0  0  0  0  0  0  0  0  0
    0.5542  -13.6745    1.8408 C   0  0  0  0  0  0  0  0  0  0  0  0
    1.3916  -10.3963    0.7993 C   0  0  0  0  0  0  0  0  0  0  0  0
    2.4961   -9.9417    0.3116 O   0  0  0  0  0  0  0  0  0  0  0  0
    0.2256   -9.7719    0.2109 O   0  0  0  0  0  0  0  0  0  0  0  0
    0.2038  -14.9475    1.3349 C   0  0  0  0  0  0  0  0  0  0  0  0
   -0.8589  -15.0303    0.4589 C   0  0  0  0  0  0  0  0  0  0  0  0
   -0.4975  -15.3110   -0.7363 C   0  0  0  0  0  0  0  0  0  0  0  0
  1  2  1  0
  1  3  1  0
  3  4  1  0
  4  5  1  0
  2  7  2  0
  2  8  1  0
 10 13  1  0
 13 14  2  0
 13 15  1  0
 12 16  1  0
 16 17  1  0
 17 18  1  0
  5  6  2  0
  6  9  1  0
  9 12  2  0
 11 12  1  0
 10 11  2  0
  5 10  1  0
M  END

$$$$
No_4924-/export/home/yangzhenyu/potential_scad_32_flow//YTHDC2/2024-12-06-03-22-00/
     RDKit          3D

 17 18  0  0  0  0  0  0  0  0999 V2000
    1.1787   -8.0297    3.5154 C   0  0  0  0  0  0  0  0  0  0  0  0
    1.0491   -6.8434    2.9820 C   0  0  0  0  0  0  0  0  0  0  0  0
    0.0950   -8.8404    3.2292 C   0  0  0  0  0  0  0  0  0  0  0  0
   -0.9173   -8.4596    2.5152 C   0  0  0  0  0  0  0  0  0  0  0  0
   -1.9974   -9.4008    2.4255 C   0  0  0  0  0  0  0  0  0  0  0  0
   -0.0636   -6.2856    2.3823 C   0  0  0  0  0  0  0  0  0  0  0  0
   -1.0542   -7.1300    2.2275 C   0  0  0  0  0  0  0  0  0  0  0  0
   -1.6989  -10.5941    2.0288 N   0  0  0  0  0  0  0  0  0  0  0  0
   -2.7734  -11.4804    2.1141 C   0  0  0  0  0  0  0  0  0  0  0  0
   -3.9050  -10.9415    2.5125 C   0  0  0  0  0  0  0  0  0  0  0  0
   -4.1883   -9.7945    2.9898 C   0  0  0  0  0  0  0  0  0  0  0  0
   -3.0869   -8.8777    2.9587 C   0  0  0  0  0  0  0  0  0  0  0  0
   -0.1428   -4.9956    1.8579 C   0  0  0  0  0  0  0  0  0  0  0  0
   -0.8870   -4.2489    1.9468 C   0  0  0  0  0  0  0  0  0  0  0  0
   -0.9760   -2.8602    1.3494 C   0  0  0  0  0  0  0  0  0  0  0  0
    0.1056   -2.2611    0.9663 C   0  0  0  0  0  0  0  0  0  0  0  0
    1.2916   -3.0661    0.7823 C   0  0  0  0  0  0  0  0  0  0  0  0
  4  5  1  0
  6 13  1  0
 13 14  2  3
 14 15  1  0
 15 16  2  3
 16 17  1  0
  5  8  2  0
  8  9  1  0
  9 10  2  0
 10 11  1  0
 11 12  2  0
  5 12  1  0
  1  2  2  0
  2  6  1  0
  6  7  2  0
  4  7  1  0
  3  4  2  0
  1  3  1  0
M  END

$$$$
No_4925-/export/home/yangzhenyu/potential_scad_32_flow//YTHDC2/2024-12-06-03-22-00/
     RDKit          3D

 18 20  0  0  1  0  0  0  0  0999 V2000
    1.1787   -8.0297    3.5154 C   0  0  0  0  0  0  0  0  0  0  0  0
    1.1048   -9.2215    3.2892 C   0  0  0  0  0  0  0  0  0  0  0  0
    1.3627  -10.1721    4.3044 C   0  0  0  0  0  0  0  0  0  0  0  0
    2.3720  -10.8948    4.2468 C   0  0  0  0  0  0  0  0  0  0  0  0
    1.0579   -7.0441    2.4219 C   0  0  0  0  0  0  0  0  0  0  0  0
    0.8578   -7.4970    1.1686 C   0  0  0  0  0  0  0  0  0  0  0  0
    0.7382   -8.7683    0.8754 C   0  0  0  0  0  0  0  0  0  0  0  0
    0.8882   -9.7347    1.9238 C   0  0  0  0  0  0  0  0  0  0  0  0
    0.5634  -10.9884    1.7836 C   0  0  1  0  0  0  0  0  0  0  0  0
    0.3024  -11.4888    0.7948 C   0  0  0  0  0  0  0  0  0  0  0  0
   -0.0672  -12.8582    0.5507 C   0  0  0  0  0  0  0  0  0  0  0  0
    0.2454  -13.6707    1.5650 C   0  0  1  0  0  0  0  0  0  0  0  0
    0.6683  -13.1959    2.8101 C   0  0  0  0  0  0  0  0  0  0  0  0
    0.9845  -11.8928    3.0082 C   0  0  1  0  0  0  0  0  0  0  0  0
    1.8215  -11.5465    4.0297 C   0  0  0  0  0  0  0  0  0  0  0  0
    1.0732  -14.1285    3.6800 O   0  0  0  0  0  0  0  0  0  0  0  0
    1.2509   -5.3707    2.6796 Cl  0  0  0  0  0  0  0  0  0  0  0  0
   -0.1076  -15.1057    1.4408 C   0  0  0  0  0  0  0  0  0  0  0  0
  2  3  1  0
  3  4  1  0
  8  9  1  0
 10 11  1  0
 12 13  1  0
  9 14  1  0
 13 14  1  0
  4 15  1  0
 14 15  1  6
 13 16  2  0
  5 17  1  0
 12 18  1  1
 11 12  1  0
  9 10  1  6
  1  2  2  0
  2  8  1  0
  7  8  2  0
  6  7  1  0
  5  6  2  0
  1  5  1  0
M  END

$$$$
No_4926-/export/home/yangzhenyu/potential_scad_32_flow//YTHDC2/2024-12-06-03-22-00/
     RDKit          3D

 18 18  0  0  0  0  0  0  0  0999 V2000
    1.1787   -8.0297    3.5154 C   0  0  0  0  0  0  0  0  0  0  0  0
    1.1048   -9.2215    3.2892 C   0  0  0  0  0  0  0  0  0  0  0  0
    1.2339   -9.7611    2.0189 C   0  0  0  0  0  0  0  0  0  0  0  0
    1.3583   -9.0036    0.9764 C   0  0  0  0  0  0  0  0  0  0  0  0
    1.5996   -7.6362    1.1311 C   0  0  0  0  0  0  0  0  0  0  0  0
    1.4830   -7.0928    2.3626 C   0  0  0  0  0  0  0  0  0  0  0  0
    1.4898   -5.7274    2.6199 C   0  0  0  0  0  0  0  0  0  0  0  0
    1.1681  -11.2222    1.8390 C   0  0  0  0  0  0  0  0  0  0  0  0
    1.9047  -12.1147    2.3357 C   0  0  0  0  0  0  0  0  0  0  0  0
    1.2927  -13.3233    2.7474 C   0  0  0  0  0  0  0  0  0  0  0  0
    1.7756  -14.5591    2.3026 C   0  0  0  0  0  0  0  0  0  0  0  0
    1.2258  -15.7621    2.8132 O   0  0  0  0  0  0  0  0  0  0  0  0
    2.8637  -14.6814    1.7287 O   0  0  0  0  0  0  0  0  0  0  0  0
    1.2507   -4.8576    1.6207 O   0  0  0  0  0  0  0  0  0  0  0  0
    1.7691   -5.1407    3.7975 I   0  0  0  0  0  0  0  0  0  0  0  0
    1.6277   -9.4797   -0.3052 C   0  0  0  0  0  0  0  0  0  0  0  0
    1.3406   -9.1421   -1.2570 O   0  0  0  0  0  0  0  0  0  0  0  0
    2.5767  -10.3838   -0.3971 O   0  0  0  0  0  0  0  0  0  0  0  0
  6  7  1  0
  3  8  1  0
  8  9  1  0
  9 10  1  0
 10 11  1  0
 11 12  1  0
 11 13  2  0
  7 14  2  0
  7 15  1  0
  4 16  1  0
 16 17  2  0
 16 18  1  0
  1  2  2  0
  2  3  1  0
  3  4  2  0
  4  5  1  0
  5  6  2  0
  1  6  1  0
M  END

$$$$
No_4927-/export/home/yangzhenyu/potential_scad_32_flow//YTHDC2/2024-12-06-03-22-00/
     RDKit          3D

 18 18  0  0  1  0  0  0  0  0999 V2000
    1.1787   -8.0297    3.5154 C   0  0  0  0  0  0  0  0  0  0  0  0
    1.0491   -6.8434    2.9820 C   0  0  0  0  0  0  0  0  0  0  0  0
    0.9905   -9.0774    2.6527 C   0  0  0  0  0  0  0  0  0  0  0  0
    1.1655  -10.4663    3.1286 C   0  0  2  0  0  0  0  0  0  0  0  0
    1.7409  -10.6480    4.4599 C   0  0  0  0  0  0  0  0  0  0  0  0
    0.4783   -6.4688    1.7590 C   0  0  0  0  0  0  0  0  0  0  0  0
    0.2119   -7.5787    0.9640 C   0  0  0  0  0  0  0  0  0  0  0  0
    0.4248   -8.8744    1.3136 C   0  0  0  0  0  0  0  0  0  0  0  0
    1.0420  -11.5352    2.2989 C   0  0  2  0  0  0  0  0  0  0  0  0
    1.9456  -11.7272    1.3640 C   0  0  0  0  0  0  0  0  0  0  0  0
    0.2864   -5.0442    1.2249 Cl  0  0  0  0  0  0  0  0  0  0  0  0
   -0.3454  -11.5406    1.6044 C   0  0  0  0  0  0  0  0  0  0  0  0
   -0.2230  -12.0138    0.3842 O   0  0  0  0  0  0  0  0  0  0  0  0
   -1.4254  -11.6478    2.3554 C   0  0  0  0  0  0  0  0  0  0  0  0
   -2.0206  -12.8737    2.6425 C   0  0  0  0  0  0  0  0  0  0  0  0
   -1.3510  -14.0741    2.6511 C   0  0  0  0  0  0  0  0  0  0  0  0
   -3.3888  -12.9435    2.9273 C   0  0  0  0  0  0  0  0  0  0  0  0
   -4.1038  -11.8597    3.2073 C   0  0  0  0  0  0  0  0  0  0  0  0
  3  4  1  0
  4  5  1  6
  4  9  1  0
  9 10  1  6
  6 11  1  0
  9 12  1  0
 12 13  2  0
 12 14  1  0
 14 15  1  0
 15 16  1  0
 15 17  1  0
 17 18  1  0
  1  2  2  0
  2  6  1  0
  6  7  2  0
  7  8  1  0
  3  8  2  0
  1  3  1  0
M  END

$$$$
No_4928-/export/home/yangzhenyu/potential_scad_32_flow//YTHDC2/2024-12-06-03-22-00/
     RDKit          3D

 17 17  0  0  1  0  0  0  0  0999 V2000
    1.1787   -8.0297    3.5154 Br  0  0  0  0  0  0  0  0  0  0  0  0
    0.6076   -7.9037    2.4936 C   0  0  2  0  0  0  0  0  0  0  0  0
    0.4933   -9.1121    1.6812 C   0  0  0  0  0  0  0  0  0  0  0  0
    0.6797  -10.2223    2.1055 C   0  0  0  0  0  0  0  0  0  0  0  0
    1.8079  -10.9168    1.6855 C   0  0  0  0  0  0  0  0  0  0  0  0
    2.0179  -12.2299    2.0827 C   0  0  0  0  0  0  0  0  0  0  0  0
    0.9897  -12.8970    2.7961 C   0  0  0  0  0  0  0  0  0  0  0  0
   -0.1159  -12.2890    3.1690 C   0  0  0  0  0  0  0  0  0  0  0  0
   -0.2457  -10.9667    2.8446 C   0  0  0  0  0  0  0  0  0  0  0  0
    1.2213  -14.3005    3.0432 C   0  0  0  0  0  0  0  0  0  0  0  0
    2.2200  -15.0365    2.5465 O   0  0  0  0  0  0  0  0  0  0  0  0
    0.5427  -14.9945    3.9165 N   0  0  0  0  0  0  0  0  0  0  0  0
    0.1285   -6.6676    1.8101 C   0  0  2  0  0  0  0  0  0  0  0  0
    0.9835   -5.6663    1.6541 O   0  0  0  0  0  0  0  0  0  0  0  0
   -1.0439   -6.4917    1.5249 C   0  0  0  0  0  0  0  0  0  0  0  0
   -1.3380   -5.2762    0.7257 C   0  0  0  0  0  0  0  0  0  0  0  0
   -0.8062   -4.2494    1.2165 C   0  0  0  0  0  0  0  0  0  0  0  0
  2  1  1  6
  2  3  1  0
  3  4  1  0
  7 10  1  0
 10 11  2  0
 10 12  1  0
  2 13  1  0
 13 14  1  1
 13 15  1  0
 15 16  1  0
 16 17  1  0
  4  5  2  0
  5  6  1  0
  6  7  2  0
  7  8  1  0
  8  9  2  0
  4  9  1  0
M  END

$$$$
No_4929-/export/home/yangzhenyu/potential_scad_32_flow//YTHDC2/2024-12-06-03-22-00/
     RDKit          3D

 19 20  0  0  1  0  0  0  0  0999 V2000
    1.1787   -8.0297    3.5154 C   0  0  0  0  0  0  0  0  0  0  0  0
    1.0491   -6.8434    2.9820 C   0  0  0  0  0  0  0  0  0  0  0  0
    1.9985   -8.9840    2.8958 C   0  0  0  0  0  0  0  0  0  0  0  0
    1.9135  -10.3404    3.6266 C   0  0  0  0  0  0  0  0  0  0  0  0
    1.3291  -11.3908    3.0222 N   0  0  0  0  0  0  0  0  0  0  0  0
    1.7430   -5.7618    3.3349 C   0  0  0  0  0  0  0  0  0  0  0  0
    0.9488  -11.3051    1.8329 C   0  0  0  0  0  0  0  0  0  0  0  0
    0.2697  -12.5064    1.4054 C   0  0  0  0  0  0  0  0  0  0  0  0
    0.1290  -13.4247    2.3513 C   0  0  2  0  0  0  0  0  0  0  0  0
    0.9822  -12.6264    3.4905 C   0  0  0  0  0  0  0  0  0  0  0  0
    1.3712   -4.4748    2.7738 C   0  0  0  0  0  0  0  0  0  0  0  0
    0.4337   -4.3762    1.8691 C   0  0  0  0  0  0  0  0  0  0  0  0
   -0.2300   -5.5038    1.4272 C   0  0  0  0  0  0  0  0  0  0  0  0
    0.0795   -6.7561    1.9024 C   0  0  0  0  0  0  0  0  0  0  0  0
   -0.6238   -7.8058    1.5604 C   0  0  0  0  0  0  0  0  0  0  0  0
   -0.1405  -14.6222    2.5959 C   0  0  0  0  0  0  0  0  0  0  0  0
   -1.2825  -14.9123    2.6832 O   0  0  0  0  0  0  0  0  0  0  0  0
    0.8163  -15.6065    2.2919 O   0  0  0  0  0  0  0  0  0  0  0  0
   -0.7239   -8.3893    0.4426 O   0  0  0  0  0  0  0  0  0  0  0  0
  1  2  1  0
  1  3  1  0
  3  4  1  0
  4  5  1  0
  5  7  1  0
  7  8  2  0
  8  9  1  0
  5 10  1  0
  9 10  1  0
 14 15  1  0
  9 16  1  6
 16 17  1  0
 16 18  2  0
 15 19  2  0
  2  6  2  0
  6 11  1  0
 11 12  2  0
 12 13  1  0
 13 14  2  0
  2 14  1  0
M  END

$$$$
No_4930-/export/home/yangzhenyu/potential_scad_32_flow//YTHDC2/2024-12-06-03-22-00/
     RDKit          3D

 18 19  0  0  1  0  0  0  0  0999 V2000
    1.1787   -8.0297    3.5154 C   0  0  0  0  0  0  0  0  0  0  0  0
    1.0491   -6.8434    2.9820 C   0  0  0  0  0  0  0  0  0  0  0  0
    1.9985   -8.9840    2.8958 C   0  0  2  0  0  0  0  0  0  0  0  0
    1.7297   -9.2108    1.6335 C   0  0  0  0  0  0  0  0  0  0  0  0
    1.7343   -8.0566    0.8408 C   0  0  0  0  0  0  0  0  0  0  0  0
    1.0269   -6.8892    1.4456 C   0  0  0  0  0  0  0  0  0  0  0  0
    1.7596   -8.0979   -0.4723 O   0  0  0  0  0  0  0  0  0  0  0  0
    2.2829  -10.2174    3.6488 C   0  0  0  0  0  0  0  0  0  0  0  0
    1.7832  -11.1599    3.8758 C   0  0  0  0  0  0  0  0  0  0  0  0
    2.3180  -12.3540    4.4532 C   0  0  0  0  0  0  0  0  0  0  0  0
    0.4164  -11.3984    3.3044 C   0  0  0  0  0  0  0  0  0  0  0  0
    1.7899  -13.5763    3.9689 C   0  0  0  0  0  0  0  0  0  0  0  0
    0.6186  -13.7426    3.2979 C   0  0  0  0  0  0  0  0  0  0  0  0
   -0.0041  -12.6557    2.9411 C   0  0  0  0  0  0  0  0  0  0  0  0
    2.2099  -10.2221    0.9064 O   0  0  0  0  0  0  0  0  0  0  0  0
    0.2256  -15.0451    3.0648 C   0  0  0  0  0  0  0  0  0  0  0  0
    0.3072  -15.6059    2.0352 C   0  0  0  0  0  0  0  0  0  0  0  0
   -0.1438  -16.9794    1.6927 C   0  0  0  0  0  0  0  0  0  0  0  0
  1  2  1  0
  1  3  1  0
  3  4  1  0
  4  5  1  0
  2  6  1  0
  5  6  1  0
  5  7  2  0
  3  8  1  1
  4 15  2  0
 13 16  1  0
 16 17  2  3
 17 18  1  0
  8  9  1  0
  9 10  2  0
 10 12  1  0
 12 13  2  0
 13 14  1  0
 11 14  2  0
  9 11  1  0
M  END

$$$$
No_4931-/export/home/yangzhenyu/potential_scad_32_flow//YTHDC2/2024-12-06-03-22-00/
     RDKit          3D

 17 17  0  0  0  0  0  0  0  0999 V2000
    1.1787   -8.0297    3.5154 C   0  0  0  0  0  0  0  0  0  0  0  0
    1.0491   -6.8434    2.9820 C   0  0  0  0  0  0  0  0  0  0  0  0
    0.0950   -8.8404    3.2292 C   0  0  0  0  0  0  0  0  0  0  0  0
    0.0602  -10.1764    3.8231 C   0  0  0  0  0  0  0  0  0  0  0  0
    0.2248   -6.3830    2.0648 C   0  0  0  0  0  0  0  0  0  0  0  0
   -0.6745   -7.2322    1.6857 C   0  0  0  0  0  0  0  0  0  0  0  0
   -0.7374   -8.4992    2.1291 C   0  0  0  0  0  0  0  0  0  0  0  0
    1.0517  -10.8728    4.0967 C   0  0  0  0  0  0  0  0  0  0  0  0
    0.8765  -12.2762    4.4635 C   0  0  0  0  0  0  0  0  0  0  0  0
    0.6277  -12.9704    3.4124 C   0  0  0  0  0  0  0  0  0  0  0  0
    0.7377  -14.4286    3.5814 C   0  0  0  0  0  0  0  0  0  0  0  0
    0.7445  -15.3009    2.5494 C   0  0  0  0  0  0  0  0  0  0  0  0
    0.9779  -16.5878    2.6979 C   0  0  0  0  0  0  0  0  0  0  0  0
    0.3783   -5.1166    1.3891 C   0  0  0  0  0  0  0  0  0  0  0  0
   -0.3072   -3.9926    1.8886 C   0  0  0  0  0  0  0  0  0  0  0  0
    0.2285  -17.4591    3.3919 C   0  0  0  0  0  0  0  0  0  0  0  0
   -1.0340  -17.3598    3.2898 C   0  0  0  0  0  0  0  0  0  0  0  0
  3  4  1  0
  4  8  2  3
  8  9  1  0
  9 10  2  3
 10 11  1  0
 11 12  2  3
 12 13  1  0
  5 14  1  0
 14 15  1  0
 13 16  1  0
 16 17  1  0
  1  2  2  0
  2  5  1  0
  5  6  2  0
  6  7  1  0
  3  7  2  0
  1  3  1  0
M  END

$$$$
No_4932-/export/home/yangzhenyu/potential_scad_32_flow//YTHDC2/2024-12-06-03-22-00/
     RDKit          3D

 18 18  0  0  1  0  0  0  0  0999 V2000
    1.1787   -8.0297    3.5154 C   0  0  0  0  0  0  0  0  0  0  0  0
    1.0491   -6.8434    2.9820 C   0  0  0  0  0  0  0  0  0  0  0  0
    0.0950   -8.8404    3.2292 C   0  0  0  0  0  0  0  0  0  0  0  0
    0.0602  -10.1764    3.8231 C   0  0  0  0  0  0  0  0  0  0  0  0
    0.2248   -6.3830    2.0648 C   0  0  0  0  0  0  0  0  0  0  0  0
   -0.6745   -7.2322    1.6857 C   0  0  0  0  0  0  0  0  0  0  0  0
   -0.7374   -8.4992    2.1291 C   0  0  0  0  0  0  0  0  0  0  0  0
    1.0517  -10.8728    4.0967 C   0  0  0  0  0  0  0  0  0  0  0  0
    0.8765  -12.2762    4.4635 C   0  0  0  0  0  0  0  0  0  0  0  0
    1.8947  -13.0056    3.7350 C   0  0  0  0  0  0  0  0  0  0  0  0
    2.0147  -12.8627    2.2352 C   0  0  2  0  0  0  0  0  0  0  0  0
    1.6645  -11.6659    1.6960 C   0  0  0  0  0  0  0  0  0  0  0  0
    1.4875  -13.9774    1.5157 C   0  0  0  0  0  0  0  0  0  0  0  0
    0.3415   -5.0803    1.4677 P   0  0  0  0  0  0  0  0  0  0  0  0
    0.4811   -5.1190   -0.1401 O   0  0  0  0  0  0  0  0  0  0  0  0
   -0.8180   -4.1154    1.8571 O   0  0  0  0  0  0  0  0  0  0  0  0
    1.5906   -4.1616    1.9516 O   0  0  0  0  0  0  0  0  0  0  0  0
    2.5390  -10.5400    1.9506 C   0  0  0  0  0  0  0  0  0  0  0  0
  3  4  1  0
  4  8  2  3
  8  9  1  0
  9 10  1  0
 10 11  1  0
 11 12  1  0
 11 13  1  6
  5 14  1  0
 14 15  1  0
 14 16  2  0
 14 17  1  0
 12 18  1  0
  1  2  2  0
  2  5  1  0
  5  6  2  0
  6  7  1  0
  3  7  2  0
  1  3  1  0
M  END

$$$$
No_4933-/export/home/yangzhenyu/potential_scad_32_flow//YTHDC2/2024-12-06-03-22-00/
     RDKit          3D

 18 18  0  0  1  0  0  0  0  0999 V2000
    1.1787   -8.0297    3.5154 N   0  0  0  0  0  0  0  0  0  0  0  0
    1.0818   -9.0751    3.2053 C   0  0  0  0  0  0  0  0  0  0  0  0
    0.7576   -9.3725    1.9159 C   0  0  0  0  0  0  0  0  0  0  0  0
    0.8823   -8.4917    1.0547 C   0  0  1  0  0  0  0  0  0  0  0  0
    1.5589   -7.2414    1.9015 C   0  0  0  0  0  0  0  0  0  0  0  0
    0.9733   -8.3685   -0.2006 C   0  0  0  0  0  0  0  0  0  0  0  0
    1.9582   -8.6186   -1.0047 O   0  0  0  0  0  0  0  0  0  0  0  0
   -0.1655   -8.5188   -0.9158 O   0  0  0  0  0  0  0  0  0  0  0  0
    0.8069   -9.9178    4.3728 C   0  0  0  0  0  0  0  0  0  0  0  0
    1.5644  -11.2085    4.2507 C   0  0  0  0  0  0  0  0  0  0  0  0
    1.2611  -11.9643    3.1114 C   0  0  0  0  0  0  0  0  0  0  0  0
   -0.0368  -12.0706    2.6698 C   0  0  2  0  0  0  0  0  0  0  0  0
   -1.1054  -11.7775    3.4695 C   0  0  0  0  0  0  0  0  0  0  0  0
   -0.1999  -12.9467    1.6309 C   0  0  0  0  0  0  0  0  0  0  0  0
   -1.3595  -12.7670    0.8766 O   0  0  0  0  0  0  0  0  0  0  0  0
    0.5868  -13.9580    1.2150 O   0  0  0  0  0  0  0  0  0  0  0  0
   -2.0373  -10.8642    2.8590 C   0  0  0  0  0  0  0  0  0  0  0  0
   -2.9980  -11.1759    2.1589 C   0  0  0  0  0  0  0  0  0  0  0  0
  1  2  1  0
  2  3  2  0
  3  4  1  0
  1  5  1  0
  4  5  1  0
  4  6  1  6
  6  7  1  0
  6  8  2  0
  2  9  1  0
  9 10  1  0
 10 11  2  3
 11 12  1  0
 12 13  1  1
 12 14  1  0
 14 15  2  0
 14 16  1  0
 13 17  1  0
 17 18  1  0
M  END

$$$$
No_4934-/export/home/yangzhenyu/potential_scad_32_flow//YTHDC2/2024-12-06-03-22-00/
     RDKit          3D

 19 20  0  0  1  0  0  0  0  0999 V2000
    1.1787   -8.0297    3.5154 C   0  0  0  0  0  0  0  0  0  0  0  0
    1.1048   -9.2215    3.2892 C   0  0  0  0  0  0  0  0  0  0  0  0
    1.2339   -9.7611    2.0189 C   0  0  0  0  0  0  0  0  0  0  0  0
    1.3583   -9.0036    0.9764 C   0  0  0  0  0  0  0  0  0  0  0  0
    1.5996   -7.6362    1.1311 C   0  0  0  0  0  0  0  0  0  0  0  0
    1.4830   -7.0928    2.3626 C   0  0  0  0  0  0  0  0  0  0  0  0
    1.1008  -11.2372    1.8542 C   0  0  0  0  0  0  0  0  0  0  0  0
    0.5178  -11.9759    2.3445 C   0  0  0  0  0  0  0  0  0  0  0  0
    0.4575  -13.3705    2.1281 C   0  0  2  0  0  0  0  0  0  0  0  0
    1.3993  -14.2795    2.9783 C   0  0  0  0  0  0  0  0  0  0  0  0
    1.3982  -15.5837    2.7718 C   0  0  0  0  0  0  0  0  0  0  0  0
    0.6478  -16.1498    1.8129 C   0  0  0  0  0  0  0  0  0  0  0  0
   -0.1507  -15.4364    1.0075 C   0  0  0  0  0  0  0  0  0  0  0  0
   -0.2761  -14.0581    1.2370 C   0  0  0  0  0  0  0  0  0  0  0  0
    1.5638   -5.6558    2.6514 O   0  0  0  0  0  0  0  0  0  0  0  0
    1.5024   -9.3718   -0.3894 N   0  0  0  0  0  0  0  0  0  0  0  0
   -1.0591  -13.3147    0.3848 O   0  0  0  0  0  0  0  0  0  0  0  0
    0.6033   -4.8414    2.7742 C   0  0  0  0  0  0  0  0  0  0  0  0
    0.5996  -17.5256    1.5977 S   0  0  0  0  0  0  0  0  0  0  0  0
  3  7  1  0
  7  8  2  3
  8  9  1  0
  9 10  1  6
 11 12  1  0
  9 14  1  0
 13 14  1  0
  6 15  1  0
  4 16  1  0
 14 17  2  0
 15 18  1  0
 12 19  1  0
 10 11  1  0
 12 13  1  0
  1  2  2  0
  2  3  1  0
  3  4  2  0
  4  5  1  0
  5  6  2  0
  1  6  1  0
M  END

$$$$
No_4935-/export/home/yangzhenyu/potential_scad_32_flow//YTHDC2/2024-12-06-03-22-00/
     RDKit          3D

 19 20  0  0  0  0  0  0  0  0999 V2000
    1.1787   -8.0297    3.5154 C   0  0  0  0  0  0  0  0  0  0  0  0
    1.1048   -9.2215    3.2892 C   0  0  0  0  0  0  0  0  0  0  0  0
    1.3627  -10.1721    4.3044 C   0  0  0  0  0  0  0  0  0  0  0  0
    1.0682  -11.5187    4.0618 C   0  0  0  0  0  0  0  0  0  0  0  0
    0.7653  -11.7320    2.7387 C   0  0  0  0  0  0  0  0  0  0  0  0
    0.5661  -10.9730    1.8367 C   0  0  0  0  0  0  0  0  0  0  0  0
    0.7745   -9.6758    2.0361 C   0  0  0  0  0  0  0  0  0  0  0  0
    1.2131   -6.9952    2.4858 C   0  0  0  0  0  0  0  0  0  0  0  0
    1.0372   -7.3618    1.2450 C   0  0  0  0  0  0  0  0  0  0  0  0
    0.8884   -8.7092    0.9459 C   0  0  0  0  0  0  0  0  0  0  0  0
    0.7739   -9.1153   -0.2836 C   0  0  0  0  0  0  0  0  0  0  0  0
   -0.5089   -9.4876   -0.8012 Cl  0  0  0  0  0  0  0  0  0  0  0  0
    1.7524   -8.9213   -1.1570 O   0  0  0  0  0  0  0  0  0  0  0  0
    0.5366  -13.2853    2.5498 N   0  0  0  0  0  0  0  0  0  0  0  0
   -0.6104  -13.7341    2.0814 C   0  0  0  0  0  0  0  0  0  0  0  0
    1.6718  -14.1517    2.5823 C   0  0  0  0  0  0  0  0  0  0  0  0
    2.7517  -13.9865    2.2777 C   0  0  0  0  0  0  0  0  0  0  0  0
    1.5042  -15.3150    3.4225 O   0  0  0  0  0  0  0  0  0  0  0  0
    1.3945   -5.5927    2.8653 Cl  0  0  0  0  0  0  0  0  0  0  0  0
 10 11  1  0
 11 12  1  0
 11 13  2  0
  5 14  1  0
 14 15  1  0
 14 16  1  0
 16 17  1  0
 16 18  2  0
  8 19  1  0
  2  3  1  0
  3  4  2  0
  4  5  1  0
  5  6  2  0
  6  7  1  0
  1  2  2  0
  2  7  1  0
  7 10  2  0
  9 10  1  0
  8  9  2  0
  1  8  1  0
M  END

$$$$
No_4936-/export/home/yangzhenyu/potential_scad_32_flow//YTHDC2/2024-12-06-03-22-00/
     RDKit          3D

 18 19  0  0  0  0  0  0  0  0999 V2000
    1.1787   -8.0297    3.5154 C   0  0  0  0  0  0  0  0  0  0  0  0
    1.1048   -9.2215    3.2892 C   0  0  0  0  0  0  0  0  0  0  0  0
    1.2339   -9.7611    2.0189 C   0  0  0  0  0  0  0  0  0  0  0  0
    1.3583   -9.0036    0.9764 C   0  0  0  0  0  0  0  0  0  0  0  0
    1.5996   -7.6362    1.1311 C   0  0  0  0  0  0  0  0  0  0  0  0
    1.4830   -7.0928    2.3626 C   0  0  0  0  0  0  0  0  0  0  0  0
    1.1008  -11.2372    1.8542 C   0  0  0  0  0  0  0  0  0  0  0  0
    0.5178  -11.9759    2.3445 C   0  0  0  0  0  0  0  0  0  0  0  0
    0.4575  -13.3705    2.1281 C   0  0  0  0  0  0  0  0  0  0  0  0
    1.1632  -14.1013    2.0451 C   0  0  0  0  0  0  0  0  0  0  0  0
    1.0401  -15.5542    1.9839 C   0  0  0  0  0  0  0  0  0  0  0  0
   -0.1527  -16.0372    1.9519 C   0  0  0  0  0  0  0  0  0  0  0  0
   -1.1929  -15.2536    2.0893 C   0  0  0  0  0  0  0  0  0  0  0  0
   -2.5223  -15.8051    2.2754 C   0  0  0  0  0  0  0  0  0  0  0  0
   -0.9361  -13.9153    2.3769 C   0  0  0  0  0  0  0  0  0  0  0  0
   -3.5594  -14.9956    2.0628 F   0  0  0  0  0  0  0  0  0  0  0  0
   -2.6883  -16.3028    3.5846 F   0  0  0  0  0  0  0  0  0  0  0  0
   -2.8480  -16.9950    1.6800 F   0  0  0  0  0  0  0  0  0  0  0  0
  3  7  1  0
  7  8  2  3
  8  9  1  0
 13 14  1  0
 14 16  1  0
 14 17  1  0
 14 18  1  0
  1  2  2  0
  2  3  1  0
  3  4  2  0
  4  5  1  0
  5  6  2  0
  1  6  1  0
  9 10  2  0
 10 11  1  0
 11 12  2  0
 12 13  1  0
 13 15  2  0
  9 15  1  0
M  END

$$$$
No_4937-/export/home/yangzhenyu/potential_scad_32_flow//YTHDC2/2024-12-06-03-22-00/
     RDKit          3D

 19 20  0  0  0  0  0  0  0  0999 V2000
    1.1787   -8.0297    3.5154 C   0  0  0  0  0  0  0  0  0  0  0  0
    1.1048   -9.2215    3.2892 C   0  0  0  0  0  0  0  0  0  0  0  0
    1.2339   -9.7611    2.0189 C   0  0  0  0  0  0  0  0  0  0  0  0
    1.3583   -9.0036    0.9764 C   0  0  0  0  0  0  0  0  0  0  0  0
    1.5996   -7.6362    1.1311 C   0  0  0  0  0  0  0  0  0  0  0  0
    1.4830   -7.0928    2.3626 C   0  0  0  0  0  0  0  0  0  0  0  0
    1.4898   -5.7274    2.6199 C   0  0  0  0  0  0  0  0  0  0  0  0
    1.1681  -11.2222    1.8390 C   0  0  0  0  0  0  0  0  0  0  0  0
    0.5014  -11.9760    2.2068 C   0  0  0  0  0  0  0  0  0  0  0  0
    0.4167  -13.3685    2.0527 C   0  0  0  0  0  0  0  0  0  0  0  0
    1.5984  -14.1574    2.4634 C   0  0  0  0  0  0  0  0  0  0  0  0
    1.8283  -15.3606    2.3190 C   0  0  0  0  0  0  0  0  0  0  0  0
    0.9181  -16.1655    1.7275 C   0  0  0  0  0  0  0  0  0  0  0  0
   -0.2543  -15.6194    1.3332 C   0  0  0  0  0  0  0  0  0  0  0  0
   -0.4812  -14.2719    1.4803 C   0  0  0  0  0  0  0  0  0  0  0  0
    1.7010   -5.1716    3.8674 O   0  0  0  0  0  0  0  0  0  0  0  0
    0.9471   -4.8405    1.7320 O   0  0  0  0  0  0  0  0  0  0  0  0
   -1.7452  -13.7762    1.1925 C   0  0  0  0  0  0  0  0  0  0  0  0
   -2.2663  -12.7541    1.5871 O   0  0  0  0  0  0  0  0  0  0  0  0
  6  7  1  0
  3  8  1  0
  8  9  2  3
  9 10  1  0
  7 16  1  0
  7 17  2  0
 15 18  1  0
 18 19  2  0
  1  2  2  0
  2  3  1  0
  3  4  2  0
  4  5  1  0
  5  6  2  0
  1  6  1  0
 10 11  2  0
 11 12  1  0
 12 13  2  0
 13 14  1  0
 14 15  2  0
 10 15  1  0
M  END

$$$$
No_4938-/export/home/yangzhenyu/potential_scad_32_flow//YTHDC2/2024-12-06-03-22-00/
     RDKit          3D

 19 20  0  0  0  0  0  0  0  0999 V2000
    1.1787   -8.0297    3.5154 C   0  0  0  0  0  0  0  0  0  0  0  0
    1.1048   -9.2215    3.2892 C   0  0  0  0  0  0  0  0  0  0  0  0
    1.2339   -9.7611    2.0189 C   0  0  0  0  0  0  0  0  0  0  0  0
    1.3583   -9.0036    0.9764 C   0  0  0  0  0  0  0  0  0  0  0  0
    1.5996   -7.6362    1.1311 C   0  0  0  0  0  0  0  0  0  0  0  0
    1.4830   -7.0928    2.3626 C   0  0  0  0  0  0  0  0  0  0  0  0
    1.1171  -11.3311    1.8661 C   0  0  0  0  0  0  0  0  0  0  0  0
    0.5022  -11.6388    0.6531 C   0  0  0  0  0  0  0  0  0  0  0  0
   -0.4019  -11.0045    0.0890 C   0  0  0  0  0  0  0  0  0  0  0  0
   -1.0458  -11.4180   -1.0837 C   0  0  0  0  0  0  0  0  0  0  0  0
   -1.7212  -10.4803   -1.9196 C   0  0  0  0  0  0  0  0  0  0  0  0
   -1.9231   -9.1574   -1.2975 C   0  0  0  0  0  0  0  0  0  0  0  0
   -1.3492   -8.9996   -0.2250 C   0  0  0  0  0  0  0  0  0  0  0  0
   -0.6103   -9.7156    0.5408 C   0  0  0  0  0  0  0  0  0  0  0  0
    1.4697   -5.6643    2.6138 Cl  0  0  0  0  0  0  0  0  0  0  0  0
   -2.6639   -8.2670   -2.1280 N   0  0  0  0  0  0  0  0  0  0  0  0
   -3.9458   -8.3132   -2.0853 C   0  0  0  0  0  0  0  0  0  0  0  0
   -4.5182   -7.4029   -3.0013 C   0  0  0  0  0  0  0  0  0  0  0  0
   -5.6017   -6.8618   -2.7683 C   0  0  0  0  0  0  0  0  0  0  0  0
  3  7  1  0
  7  8  1  0
  6 15  1  0
 12 16  1  0
 16 17  1  0
 17 18  1  0
 18 19  1  0
  8  9  1  0
  1  2  2  0
  2  3  1  0
  3  4  2  0
  4  5  1  0
  5  6  2  0
  1  6  1  0
  9 10  2  0
 10 11  1  0
 11 12  2  0
 12 13  1  0
 13 14  2  0
  9 14  1  0
M  END

$$$$
No_4939-/export/home/yangzhenyu/potential_scad_32_flow//YTHDC2/2024-12-06-03-22-00/
     RDKit          3D

 18 19  0  0  0  0  0  0  0  0999 V2000
    1.1787   -8.0297    3.5154 C   0  0  0  0  0  0  0  0  0  0  0  0
    1.1048   -9.2215    3.2892 C   0  0  0  0  0  0  0  0  0  0  0  0
    1.2339   -9.7611    2.0189 C   0  0  0  0  0  0  0  0  0  0  0  0
    1.3583   -9.0036    0.9764 C   0  0  0  0  0  0  0  0  0  0  0  0
    1.5996   -7.6362    1.1311 C   0  0  0  0  0  0  0  0  0  0  0  0
    1.4830   -7.0928    2.3626 C   0  0  0  0  0  0  0  0  0  0  0  0
    1.1171  -11.3311    1.8661 C   0  0  0  0  0  0  0  0  0  0  0  0
    1.9975  -12.1095    2.2478 C   0  0  0  0  0  0  0  0  0  0  0  0
    1.7697  -13.4418    1.9079 C   0  0  0  0  0  0  0  0  0  0  0  0
    0.8824  -13.8563    1.1154 C   0  0  0  0  0  0  0  0  0  0  0  0
   -0.0664  -12.9335    0.5986 C   0  0  0  0  0  0  0  0  0  0  0  0
    0.1158  -11.5559    0.9634 C   0  0  0  0  0  0  0  0  0  0  0  0
    1.5680   -5.4347    2.6963 C   0  0  0  0  0  0  0  0  0  0  0  0
   -0.8281  -10.6553    0.5241 C   0  0  0  0  0  0  0  0  0  0  0  0
   -1.9215  -10.3566    1.3666 O   0  0  0  0  0  0  0  0  0  0  0  0
   -0.9129  -10.1339   -0.6863 O   0  0  0  0  0  0  0  0  0  0  0  0
    1.2158   -4.7922    1.5877 O   0  0  0  0  0  0  0  0  0  0  0  0
    1.5529   -5.0571    3.8172 I   0  0  0  0  0  0  0  0  0  0  0  0
  3  7  1  0
  6 13  1  0
 12 14  1  0
 14 15  1  0
 14 16  2  0
 13 17  2  0
 13 18  1  0
  1  2  2  0
  2  3  1  0
  3  4  2  0
  4  5  1  0
  5  6  2  0
  1  6  1  0
  7  8  2  0
  8  9  1  0
  9 10  2  0
 10 11  1  0
 11 12  2  0
  7 12  1  0
M  END

$$$$
No_4940-/export/home/yangzhenyu/potential_scad_32_flow//YTHDC2/2024-12-06-03-22-00/
     RDKit          3D

 16 16  0  0  1  0  0  0  0  0999 V2000
    1.1787   -8.0297    3.5154 C   0  0  0  0  0  0  0  0  0  0  0  0
    1.1048   -9.2215    3.2892 C   0  0  0  0  0  0  0  0  0  0  0  0
    1.2339   -9.7611    2.0189 C   0  0  0  0  0  0  0  0  0  0  0  0
    1.1954  -11.2312    1.8661 C   0  0  2  0  0  0  0  0  0  0  0  0
    1.2996  -11.5815    0.5387 C   0  0  0  0  0  0  0  0  0  0  0  0
    1.3263   -7.1208    2.3229 C   0  0  0  0  0  0  0  0  0  0  0  0
    1.3693   -7.6408    1.0625 C   0  0  0  0  0  0  0  0  0  0  0  0
    1.4358   -8.9950    0.8622 C   0  0  0  0  0  0  0  0  0  0  0  0
    0.9078  -11.9576    2.8785 C   0  0  0  0  0  0  0  0  0  0  0  0
    1.6858  -12.5424    3.4975 C   0  0  0  0  0  0  0  0  0  0  0  0
    1.3764   -5.4479    2.6027 C   0  0  0  0  0  0  0  0  0  0  0  0
    0.5316  -12.3911    0.2145 O   0  0  0  0  0  0  0  0  0  0  0  0
    2.0122  -13.7463    2.8415 N   0  0  0  0  0  0  0  0  0  0  0  0
    1.3079  -14.8822    2.9105 C   0  0  0  0  0  0  0  0  0  0  0  0
    1.8143  -16.1034    2.3018 O   0  0  0  0  0  0  0  0  0  0  0  0
    0.1183  -15.0511    3.4947 C   0  0  0  0  0  0  0  0  0  0  0  0
  3  4  1  0
  4  5  1  6
  4  9  1  0
  9 10  1  0
  6 11  1  0
  5 12  1  0
 10 13  1  0
 13 14  1  0
 14 15  2  0
 14 16  1  0
  1  2  2  0
  2  3  1  0
  3  8  2  0
  7  8  1  0
  6  7  2  0
  1  6  1  0
M  END

$$$$
No_4941-/export/home/yangzhenyu/potential_scad_32_flow//YTHDC2/2024-12-06-03-22-00/
     RDKit          3D

 18 18  0  0  1  0  0  0  0  0999 V2000
    1.1787   -8.0297    3.5154 C   0  0  0  0  0  0  0  0  0  0  0  0
    1.0491   -6.8434    2.9820 C   0  0  0  0  0  0  0  0  0  0  0  0
    1.9985   -8.9840    2.8958 C   0  0  2  0  0  0  0  0  0  0  0  0
    1.7297   -9.2108    1.6335 C   0  0  0  0  0  0  0  0  0  0  0  0
    1.4595   -8.5193    0.9391 C   0  0  0  0  0  0  0  0  0  0  0  0
    0.9877   -7.1340    1.4506 C   0  0  0  0  0  0  0  0  0  0  0  0
    2.2662  -10.3898    3.8720 C   0  0  0  0  0  0  0  0  0  0  0  0
    3.2225  -10.3557    4.4151 O   0  0  0  0  0  0  0  0  0  0  0  0
    1.5285  -11.4253    3.6911 O   0  0  0  0  0  0  0  0  0  0  0  0
    1.4339   -8.4029   -0.6688 C   0  0  0  0  0  0  0  0  0  0  0  0
    0.3466   -8.5022   -1.2054 O   0  0  0  0  0  0  0  0  0  0  0  0
    2.4744   -8.7814   -1.2493 O   0  0  0  0  0  0  0  0  0  0  0  0
    1.7568   -5.7385    3.1849 O   0  0  0  0  0  0  0  0  0  0  0  0
    1.3239  -12.2632    2.8234 C   0  0  0  0  0  0  0  0  0  0  0  0
    0.4024  -12.2946    1.9587 C   0  0  0  0  0  0  0  0  0  0  0  0
   -0.7976  -11.8395    2.4859 C   0  0  0  0  0  0  0  0  0  0  0  0
   -1.8969  -11.7287    1.5094 C   0  0  0  0  0  0  0  0  0  0  0  0
   -1.6469  -12.0711    0.1740 C   0  0  0  0  0  0  0  0  0  0  0  0
  1  2  1  0
  1  3  1  0
  4  5  1  0
  2  6  1  0
  3  7  1  1
  7  8  2  0
  7  9  1  0
  5 10  1  0
 10 11  2  0
 10 12  1  0
  2 13  2  0
  9 14  1  0
 14 15  1  0
 15 16  2  3
 16 17  1  0
 17 18  2  0
  3  4  1  0
  5  6  1  0
M  END

$$$$
No_4942-/export/home/yangzhenyu/potential_scad_32_flow//YTHDC2/2024-12-06-03-22-00/
     RDKit          3D

 16 16  0  0  1  0  0  0  0  0999 V2000
    1.1787   -8.0297    3.5154 C   0  0  0  0  0  0  0  0  0  0  0  0
    1.0491   -6.8434    2.9820 C   0  0  0  0  0  0  0  0  0  0  0  0
    0.9905   -9.0774    2.6527 C   0  0  0  0  0  0  0  0  0  0  0  0
    1.1655  -10.4663    3.1286 C   0  0  2  0  0  0  0  0  0  0  0  0
    1.7409  -10.6480    4.4599 C   0  0  0  0  0  0  0  0  0  0  0  0
    0.4783   -6.4688    1.7590 C   0  0  0  0  0  0  0  0  0  0  0  0
    0.2119   -7.5787    0.9640 C   0  0  0  0  0  0  0  0  0  0  0  0
    0.4248   -8.8744    1.3136 C   0  0  0  0  0  0  0  0  0  0  0  0
    1.0420  -11.5352    2.2989 C   0  0  0  0  0  0  0  0  0  0  0  0
    0.2719  -12.5305    2.5621 C   0  0  0  0  0  0  0  0  0  0  0  0
    0.8006  -13.7803    2.7134 C   0  0  1  0  0  0  0  0  0  0  0  0
    1.9830  -14.0705    2.6810 C   0  0  0  0  0  0  0  0  0  0  0  0
    0.3276   -5.2001    1.2487 O   0  0  0  0  0  0  0  0  0  0  0  0
   -0.0601  -14.9264    3.1176 C   0  0  0  0  0  0  0  0  0  0  0  0
    2.5327  -15.0807    1.7556 C   0  0  0  0  0  0  0  0  0  0  0  0
    2.0228  -14.9928    0.6434 O   0  0  0  0  0  0  0  0  0  0  0  0
  3  4  1  0
  4  5  1  6
  4  9  1  0
  9 10  1  0
 10 11  1  0
 11 12  1  0
  6 13  1  0
 11 14  1  1
 12 15  1  0
 15 16  2  0
  1  2  2  0
  2  6  1  0
  6  7  2  0
  7  8  1  0
  3  8  2  0
  1  3  1  0
M  END

$$$$
No_4943-/export/home/yangzhenyu/potential_scad_32_flow//YTHDC2/2024-12-06-03-22-00/
     RDKit          3D

 17 17  0  0  0  0  0  0  0  0999 V2000
    1.1787   -8.0297    3.5154 C   0  0  0  0  0  0  0  0  0  0  0  0
    1.1048   -9.2215    3.2892 C   0  0  0  0  0  0  0  0  0  0  0  0
    1.2339   -9.7611    2.0189 C   0  0  0  0  0  0  0  0  0  0  0  0
    1.4306   -8.9466    1.1170 C   0  0  0  0  0  0  0  0  0  0  0  0
    1.6532   -7.5949    1.1786 C   0  0  0  0  0  0  0  0  0  0  0  0
    1.4973   -7.0739    2.4258 C   0  0  0  0  0  0  0  0  0  0  0  0
    1.6907   -9.4669   -0.3972 C   0  0  0  0  0  0  0  0  0  0  0  0
    0.8065  -10.4257   -0.5870 O   0  0  0  0  0  0  0  0  0  0  0  0
    2.1130   -8.8695   -1.3168 O   0  0  0  0  0  0  0  0  0  0  0  0
    0.9368  -10.2182    4.3713 C   0  0  0  0  0  0  0  0  0  0  0  0
   -0.0068  -11.3962    3.8106 C   0  0  0  0  0  0  0  0  0  0  0  0
    0.5623  -12.6006    3.6654 C   0  0  0  0  0  0  0  0  0  0  0  0
    0.6605  -12.8180    2.3349 C   0  0  0  0  0  0  0  0  0  0  0  0
    1.8066  -13.4632    1.8457 C   0  0  0  0  0  0  0  0  0  0  0  0
    2.1220  -14.6881    2.3868 C   0  0  0  0  0  0  0  0  0  0  0  0
    1.5978  -15.8781    1.8024 C   0  0  0  0  0  0  0  0  0  0  0  0
    2.1271  -17.1936    2.3736 C   0  0  0  0  0  0  0  0  0  0  0  0
  4  7  1  0
  7  8  2  0
  7  9  1  0
  2 10  1  0
 10 11  1  0
 11 12  1  0
 12 13  1  0
 13 14  1  0
 14 15  1  0
 15 16  1  0
 16 17  1  0
  1  2  2  0
  2  3  1  0
  3  4  2  0
  4  5  1  0
  5  6  2  0
  1  6  1  0
M  END

$$$$
No_4944-/export/home/yangzhenyu/potential_scad_32_flow//YTHDC2/2024-12-06-03-22-00/
     RDKit          3D

 19 19  0  0  1  0  0  0  0  0999 V2000
    1.1787   -8.0297    3.5154 O   0  0  0  0  0  0  0  0  0  0  0  0
    0.9969   -8.9689    3.0048 S   0  0  0  0  0  0  0  0  0  0  0  0
    1.3142   -8.9004    1.5899 C   0  0  1  0  0  0  0  0  0  0  0  0
    1.3925   -7.6856    0.8909 C   0  0  0  0  0  0  0  0  0  0  0  0
    1.8564  -10.1630    3.5539 O   0  0  0  0  0  0  0  0  0  0  0  0
    1.7792   -9.9410    0.7169 C   0  0  0  0  0  0  0  0  0  0  0  0
    1.5609  -11.0949    0.9639 O   0  0  0  0  0  0  0  0  0  0  0  0
    2.3654   -9.6228   -0.4080 O   0  0  0  0  0  0  0  0  0  0  0  0
    0.4975   -6.9238    0.7949 C   0  0  0  0  0  0  0  0  0  0  0  0
   -0.4626   -9.6132    3.2084 C   0  0  0  0  0  0  0  0  0  0  0  0
   -1.3249   -9.9489    2.4869 C   0  0  0  0  0  0  0  0  0  0  0  0
   -2.5356  -10.3956    2.9691 C   0  0  0  0  0  0  0  0  0  0  0  0
   -2.9589  -11.5366    2.6897 C   0  0  0  0  0  0  0  0  0  0  0  0
   -3.5176  -12.2788    3.7332 C   0  0  0  0  0  0  0  0  0  0  0  0
   -3.9698  -11.5281    4.8601 C   0  0  0  0  0  0  0  0  0  0  0  0
   -3.6817  -10.2388    5.0482 C   0  0  0  0  0  0  0  0  0  0  0  0
   -2.8815   -9.6731    4.1996 C   0  0  0  0  0  0  0  0  0  0  0  0
   -4.1846  -13.5366    3.4328 I   0  0  0  0  0  0  0  0  0  0  0  0
    0.4371   -5.5553    0.9483 Cl  0  0  0  0  0  0  0  0  0  0  0  0
  1  2  2  0
  2  3  1  0
  3  4  1  0
  2  5  2  0
  3  6  1  1
  6  7  2  0
  6  8  1  0
  4  9  2  3
  2 10  1  0
 10 11  2  3
 11 12  1  0
 14 18  1  0
  9 19  1  0
 12 13  2  0
 13 14  1  0
 14 15  2  0
 15 16  1  0
 16 17  2  0
 12 17  1  0
M  END

$$$$
No_4945-/export/home/yangzhenyu/potential_scad_32_flow//YTHDC2/2024-12-06-03-22-00/
     RDKit          3D

 21 23  0  0  0  0  0  0  0  0999 V2000
    1.1787   -8.0297    3.5154 C   0  0  0  0  0  0  0  0  0  0  0  0
    1.0491   -6.8434    2.9820 C   0  0  0  0  0  0  0  0  0  0  0  0
    0.9905   -9.0774    2.6527 C   0  0  0  0  0  0  0  0  0  0  0  0
    0.7897   -8.9519    1.3691 C   0  0  0  0  0  0  0  0  0  0  0  0
    0.7018   -7.7198    0.7892 C   0  0  0  0  0  0  0  0  0  0  0  0
    0.8918   -6.5957    1.6117 C   0  0  0  0  0  0  0  0  0  0  0  0
    1.0711  -10.4814    3.2282 C   0  0  0  0  0  0  0  0  0  0  0  0
   -0.1055  -11.1328    3.5223 C   0  0  0  0  0  0  0  0  0  0  0  0
   -0.1824  -12.4513    3.3816 C   0  0  0  0  0  0  0  0  0  0  0  0
    0.9472  -13.2655    3.1726 C   0  0  0  0  0  0  0  0  0  0  0  0
    2.1715  -12.6012    2.9116 C   0  0  0  0  0  0  0  0  0  0  0  0
    2.2064  -11.2741    2.8264 C   0  0  0  0  0  0  0  0  0  0  0  0
    0.8996  -14.6381    3.2447 O   0  0  0  0  0  0  0  0  0  0  0  0
    0.8445   -5.2766    1.1112 Cl  0  0  0  0  0  0  0  0  0  0  0  0
    1.8754  -15.3824    2.6664 C   0  0  0  0  0  0  0  0  0  0  0  0
    1.7144  -16.7706    3.0359 C   0  0  0  0  0  0  0  0  0  0  0  0
    2.7492  -17.6715    2.7193 C   0  0  0  0  0  0  0  0  0  0  0  0
    0.6286  -17.2151    3.6912 C   0  0  0  0  0  0  0  0  0  0  0  0
    2.6285  -18.9099    3.0598 C   0  0  0  0  0  0  0  0  0  0  0  0
    1.7180  -19.3759    3.8040 C   0  0  0  0  0  0  0  0  0  0  0  0
    0.6133  -18.4720    4.0839 C   0  0  0  0  0  0  0  0  0  0  0  0
  3  7  1  0
 10 13  1  0
  6 14  1  0
 13 15  1  0
 15 16  1  0
  1  2  2  0
  2  6  1  0
  5  6  2  0
  4  5  1  0
  3  4  2  0
  1  3  1  0
 16 17  2  0
 17 19  1  0
 19 20  2  0
 20 21  1  0
 18 21  2  0
 16 18  1  0
  7  8  2  0
  8  9  1  0
  9 10  2  0
 10 11  1  0
 11 12  2  0
  7 12  1  0
M  END

$$$$
No_4946-/export/home/yangzhenyu/potential_scad_32_flow//YTHDC2/2024-12-06-03-22-00/
     RDKit          3D

 20 21  0  0  0  0  0  0  0  0999 V2000
    1.1787   -8.0297    3.5154 O   0  0  0  0  0  0  0  0  0  0  0  0
    0.9969   -8.9689    3.0048 C   0  0  0  0  0  0  0  0  0  0  0  0
    1.3055  -10.1056    3.6616 C   0  0  0  0  0  0  0  0  0  0  0  0
    1.5709  -11.1115    3.2016 C   0  0  0  0  0  0  0  0  0  0  0  0
    1.6332  -11.2629    1.7349 C   0  0  0  0  0  0  0  0  0  0  0  0
    1.4616  -10.1742    0.9691 C   0  0  0  0  0  0  0  0  0  0  0  0
    1.1252   -9.0006    1.6051 C   0  0  0  0  0  0  0  0  0  0  0  0
    0.9129   -7.7660    1.0035 C   0  0  0  0  0  0  0  0  0  0  0  0
    0.2959   -7.8233   -0.0881 O   0  0  0  0  0  0  0  0  0  0  0  0
    1.3474   -6.5720    1.3504 O   0  0  0  0  0  0  0  0  0  0  0  0
    1.9091  -12.6189    3.9586 C   0  0  0  0  0  0  0  0  0  0  0  0
    1.3645  -13.7341    3.1850 C   0  0  0  0  0  0  0  0  0  0  0  0
    0.0000  -14.0936    3.4130 C   0  0  0  0  0  0  0  0  0  0  0  0
   -0.3937  -14.9487    2.4171 C   0  0  0  0  0  0  0  0  0  0  0  0
    0.2642  -15.5471    1.5494 C   0  0  0  0  0  0  0  0  0  0  0  0
    1.6566  -15.2925    1.5062 C   0  0  0  0  0  0  0  0  0  0  0  0
    2.2109  -14.3721    2.3510 C   0  0  0  0  0  0  0  0  0  0  0  0
   -0.2785  -16.5123    0.7415 C   0  0  0  0  0  0  0  0  0  0  0  0
   -0.8438  -15.9901   -0.5305 O   0  0  0  0  0  0  0  0  0  0  0  0
   -0.2279  -17.7379    0.9392 O   0  0  0  0  0  0  0  0  0  0  0  0
  1  2  1  0
  7  8  1  0
  8  9  2  0
  8 10  1  0
  4 11  1  0
 11 12  1  0
 15 18  1  0
 18 19  1  0
 18 20  2  0
 12 13  2  0
 13 14  1  0
 14 15  2  0
 15 16  1  0
 16 17  2  0
 12 17  1  0
  2  3  2  0
  3  4  1  0
  4  5  2  0
  5  6  1  0
  6  7  2  0
  2  7  1  0
M  END

$$$$
No_4947-/export/home/yangzhenyu/potential_scad_32_flow//YTHDC2/2024-12-06-03-22-00/
     RDKit          3D

 18 19  0  0  0  0  0  0  0  0999 V2000
    1.1787   -8.0297    3.5154 C   0  0  0  0  0  0  0  0  0  0  0  0
    1.1048   -9.2215    3.2892 C   0  0  0  0  0  0  0  0  0  0  0  0
    1.0239   -9.7790    2.0239 C   0  0  0  0  0  0  0  0  0  0  0  0
    1.1393   -9.0211    0.9686 C   0  0  0  0  0  0  0  0  0  0  0  0
    1.3160   -9.6264   -0.3268 Cl  0  0  0  0  0  0  0  0  0  0  0  0
    1.3605   -7.1130    2.3434 C   0  0  0  0  0  0  0  0  0  0  0  0
    1.2513   -7.6483    1.0265 C   0  0  0  0  0  0  0  0  0  0  0  0
    0.9570  -11.2126    1.9651 C   0  0  0  0  0  0  0  0  0  0  0  0
   -0.2355  -11.8345    1.8093 C   0  0  0  0  0  0  0  0  0  0  0  0
   -0.3371  -13.2074    1.6929 C   0  0  0  0  0  0  0  0  0  0  0  0
   -1.3471  -13.8726    1.4015 C   0  0  0  0  0  0  0  0  0  0  0  0
   -2.4706  -13.2146    1.5910 C   0  0  0  0  0  0  0  0  0  0  0  0
   -2.5661  -11.8345    1.8725 C   0  0  0  0  0  0  0  0  0  0  0  0
   -1.3908  -11.1547    1.9988 C   0  0  0  0  0  0  0  0  0  0  0  0
    1.4224   -5.6187    2.4905 Br  0  0  0  0  0  0  0  0  0  0  0  0
    1.0049  -13.9467    1.4466 C   0  0  0  0  0  0  0  0  0  0  0  0
    1.5700  -14.6235    2.3472 C   0  0  0  0  0  0  0  0  0  0  0  0
    1.0603  -14.5520    3.7197 C   0  0  0  0  0  0  0  0  0  0  0  0
  4  5  1  0
  3  8  1  0
  6 15  1  0
 10 16  1  0
 16 17  1  0
 17 18  1  0
  8  9  1  0
  9 10  2  0
 10 11  1  0
 11 12  2  0
 12 13  1  0
 13 14  2  0
  9 14  1  0
  1  2  2  0
  2  3  1  0
  3  4  2  0
  4  7  1  0
  6  7  2  0
  1  6  1  0
M  END

$$$$
No_4948-/export/home/yangzhenyu/potential_scad_32_flow//YTHDC2/2024-12-06-03-22-00/
     RDKit          3D

 19 19  0  0  0  0  0  0  0  0999 V2000
    1.1787   -8.0297    3.5154 C   0  0  0  0  0  0  0  0  0  0  0  0
    1.1048   -9.2215    3.2892 C   0  0  0  0  0  0  0  0  0  0  0  0
    1.3627  -10.1721    4.3044 C   0  0  0  0  0  0  0  0  0  0  0  0
    1.0682  -11.5187    4.0618 C   0  0  0  0  0  0  0  0  0  0  0  0
    0.6332  -11.9655    2.9682 C   0  0  0  0  0  0  0  0  0  0  0  0
    0.4776  -11.1308    1.9203 C   0  0  0  0  0  0  0  0  0  0  0  0
    0.7470   -9.8274    2.0368 C   0  0  0  0  0  0  0  0  0  0  0  0
    1.8804   -7.1616    3.5539 O   0  0  0  0  0  0  0  0  0  0  0  0
   -0.2365   -7.5395    3.6303 N   0  0  0  0  0  0  0  0  0  0  0  0
    0.3368  -13.5085    2.7464 C   0  0  0  0  0  0  0  0  0  0  0  0
    0.7529  -14.0235    1.6524 C   0  0  0  0  0  0  0  0  0  0  0  0
    0.0213  -14.2373    0.7722 C   0  0  0  0  0  0  0  0  0  0  0  0
    0.5918  -14.7182   -0.6086 C   0  0  0  0  0  0  0  0  0  0  0  0
   -0.3232  -14.9394   -1.6117 C   0  0  0  0  0  0  0  0  0  0  0  0
   -1.6227  -14.6308   -1.5555 C   0  0  0  0  0  0  0  0  0  0  0  0
   -2.3953  -14.7353   -2.6641 C   0  0  0  0  0  0  0  0  0  0  0  0
   -2.0040  -15.4433   -3.5955 F   0  0  0  0  0  0  0  0  0  0  0  0
    1.5929   -9.3312    0.9470 C   0  0  0  0  0  0  0  0  0  0  0  0
    1.2356   -9.1862   -0.2570 O   0  0  0  0  0  0  0  0  0  0  0  0
  1  2  1  0
  1  8  2  0
  1  9  1  0
  5 10  1  0
 10 11  1  0
 11 12  2  3
 12 13  1  0
 13 14  2  3
 14 15  1  0
 15 16  1  0
 16 17  1  0
  7 18  1  0
 18 19  1  0
  2  3  2  0
  3  4  1  0
  4  5  2  0
  5  6  1  0
  6  7  2  0
  2  7  1  0
M  END

$$$$
No_4949-/export/home/yangzhenyu/potential_scad_32_flow//YTHDC2/2024-12-06-03-22-00/
     RDKit          3D

 18 19  0  0  1  0  0  0  0  0999 V2000
    1.1787   -8.0297    3.5154 C   0  0  0  0  0  0  0  0  0  0  0  0
    1.0491   -6.8434    2.9820 C   0  0  0  0  0  0  0  0  0  0  0  0
    0.9905   -9.0774    2.6527 C   0  0  0  0  0  0  0  0  0  0  0  0
    0.7897   -8.9519    1.3691 C   0  0  0  0  0  0  0  0  0  0  0  0
    0.7018   -7.7198    0.7892 C   0  0  0  0  0  0  0  0  0  0  0  0
    0.8918   -6.5957    1.6117 C   0  0  0  0  0  0  0  0  0  0  0  0
    1.0998  -10.4710    3.2437 C   0  0  1  0  0  0  0  0  0  0  0  0
    0.0471  -11.2546    3.3963 C   0  0  0  0  0  0  0  0  0  0  0  0
   -1.1989  -10.6161    3.7011 C   0  0  0  0  0  0  0  0  0  0  0  0
    0.8603   -5.2612    1.2139 C   0  0  0  0  0  0  0  0  0  0  0  0
   -2.3157  -10.8626    3.0665 C   0  0  0  0  0  0  0  0  0  0  0  0
   -2.3993  -12.0333    2.3634 C   0  0  0  0  0  0  0  0  0  0  0  0
   -1.2367  -12.7728    2.1357 C   0  0  0  0  0  0  0  0  0  0  0  0
    0.0102  -12.3594    2.5659 C   0  0  0  0  0  0  0  0  0  0  0  0
    2.3910  -10.8239    3.5246 C   0  0  0  0  0  0  0  0  0  0  0  0
   -0.2308   -4.7572    0.7444 C   0  0  0  0  0  0  0  0  0  0  0  0
   -0.3417   -3.4020    0.3825 C   0  0  0  0  0  0  0  0  0  0  0  0
    1.1169  -13.0968    2.3720 C   0  0  0  0  0  0  0  0  0  0  0  0
  3  7  1  0
  7  8  1  0
  6 10  1  0
  7 15  1  6
 10 16  2  3
 16 17  1  0
 14 18  1  0
  1  2  2  0
  2  6  1  0
  5  6  2  0
  4  5  1  0
  3  4  2  0
  1  3  1  0
  8  9  2  0
  9 11  1  0
 11 12  2  0
 12 13  1  0
 13 14  2  0
  8 14  1  0
M  END

$$$$
No_4950-/export/home/yangzhenyu/potential_scad_32_flow//YTHDC2/2024-12-06-03-22-00/
     RDKit          3D

 20 21  0  0  0  0  0  0  0  0999 V2000
    1.1787   -8.0297    3.5154 C   0  0  0  0  0  0  0  0  0  0  0  0
    1.1048   -9.2215    3.2892 C   0  0  0  0  0  0  0  0  0  0  0  0
    1.2339   -9.7611    2.0189 C   0  0  0  0  0  0  0  0  0  0  0  0
    1.4306   -8.9466    1.1170 C   0  0  0  0  0  0  0  0  0  0  0  0
    1.6532   -7.5949    1.1786 C   0  0  0  0  0  0  0  0  0  0  0  0
    1.4973   -7.0739    2.4258 C   0  0  0  0  0  0  0  0  0  0  0  0
    1.5178   -5.6803    2.7303 C   0  0  0  0  0  0  0  0  0  0  0  0
    1.2440  -11.1950    1.8087 N   0  0  0  0  0  0  0  0  0  0  0  0
    0.5184  -11.6060    0.7208 C   0  0  0  0  0  0  0  0  0  0  0  0
    0.6381  -13.0667    0.6395 C   0  0  0  0  0  0  0  0  0  0  0  0
    0.2443  -13.7839    1.4554 C   0  0  0  0  0  0  0  0  0  0  0  0
   -0.8280  -13.7282    1.9067 C   0  0  0  0  0  0  0  0  0  0  0  0
   -1.3575  -14.7179    2.8821 C   0  0  0  0  0  0  0  0  0  0  0  0
   -0.4904  -15.7947    3.2335 C   0  0  0  0  0  0  0  0  0  0  0  0
    0.7349  -15.9097    2.6219 C   0  0  0  0  0  0  0  0  0  0  0  0
    1.2047  -14.9062    1.7506 C   0  0  0  0  0  0  0  0  0  0  0  0
    1.6508  -16.9425    2.9600 C   0  0  0  0  0  0  0  0  0  0  0  0
    2.8893  -16.9923    2.4395 C   0  0  0  0  0  0  0  0  0  0  0  0
    1.2336  -18.0177    3.6805 C   0  0  0  0  0  0  0  0  0  0  0  0
    1.3048   -4.7685    1.7497 O   0  0  0  0  0  0  0  0  0  0  0  0
  6  7  1  0
  3  8  1  0
  8  9  1  0
  9 10  1  0
 10 11  1  0
 15 17  1  0
 17 18  1  0
 17 19  1  0
  7 20  2  0
 11 12  2  0
 12 13  1  0
 13 14  2  0
 14 15  1  0
 15 16  2  0
 11 16  1  0
  1  2  2  0
  2  3  1  0
  3  4  2  0
  4  5  1  0
  5  6  2  0
  1  6  1  0
M  END

$$$$
No_4951-/export/home/yangzhenyu/potential_scad_32_flow//YTHDC2/2024-12-06-03-22-00/
     RDKit          3D

 20 21  0  0  0  0  0  0  0  0999 V2000
    1.1787   -8.0297    3.5154 C   0  0  0  0  0  0  0  0  0  0  0  0
    1.0491   -6.8434    2.9820 C   0  0  0  0  0  0  0  0  0  0  0  0
    1.9985   -8.9840    2.8958 C   0  0  0  0  0  0  0  0  0  0  0  0
    1.9135  -10.3404    3.6266 C   0  0  0  0  0  0  0  0  0  0  0  0
    0.9460  -10.6347    4.5748 C   0  0  0  0  0  0  0  0  0  0  0  0
    0.6380  -11.9069    4.8264 C   0  0  0  0  0  0  0  0  0  0  0  0
    0.3794   -6.6703    1.8203 C   0  0  0  0  0  0  0  0  0  0  0  0
    0.2396   -5.3329    1.3153 C   0  0  0  0  0  0  0  0  0  0  0  0
    0.0172   -4.3368    2.0185 C   0  0  0  0  0  0  0  0  0  0  0  0
    0.7137   -4.4010    3.4785 C   0  0  0  0  0  0  0  0  0  0  0  0
    1.1205   -5.6881    3.8557 C   0  0  0  0  0  0  0  0  0  0  0  0
    0.4888  -12.5746    3.5290 C   0  0  0  0  0  0  0  0  0  0  0  0
    1.2851  -12.3432    2.4638 C   0  0  0  0  0  0  0  0  0  0  0  0
    1.9984  -11.0834    2.4361 C   0  0  0  0  0  0  0  0  0  0  0  0
    1.5339  -13.3134    1.4670 Cl  0  0  0  0  0  0  0  0  0  0  0  0
   -0.2281   -2.9879    1.6747 C   0  0  0  0  0  0  0  0  0  0  0  0
   -1.3356   -2.8512    1.5262 C   0  0  0  0  0  0  0  0  0  0  0  0
    0.7701   -2.0408    1.3741 C   0  0  0  0  0  0  0  0  0  0  0  0
   -1.8157   -1.5714    0.8199 C   0  0  0  0  0  0  0  0  0  0  0  0
   -0.9054   -0.6903    0.4213 C   0  0  0  0  0  0  0  0  0  0  0  0
  1  2  1  0
  1  3  1  0
 13 15  1  0
  9 16  1  0
 16 17  2  3
 16 18  1  0
 17 19  1  0
 19 20  2  0
  3  4  1  0
  2  7  2  0
  7  8  1  0
  8  9  2  0
  9 10  1  0
 10 11  2  0
  2 11  1  0
  4  5  2  0
  5  6  1  0
  6 12  2  0
 12 13  1  0
 13 14  2  0
  4 14  1  0
M  END

$$$$
No_4952-/export/home/yangzhenyu/potential_scad_32_flow//YTHDC2/2024-12-06-03-22-00/
     RDKit          3D

 19 21  0  0  1  0  0  0  0  0999 V2000
    1.1787   -8.0297    3.5154 C   0  0  0  0  0  0  0  0  0  0  0  0
    1.0491   -6.8434    2.9820 C   0  0  0  0  0  0  0  0  0  0  0  0
    0.0950   -8.8404    3.2292 C   0  0  0  0  0  0  0  0  0  0  0  0
    0.0602  -10.1764    3.8231 C   0  0  0  0  0  0  0  0  0  0  0  0
    0.2248   -6.3830    2.0648 C   0  0  0  0  0  0  0  0  0  0  0  0
   -0.6745   -7.2322    1.6857 C   0  0  0  0  0  0  0  0  0  0  0  0
   -0.7374   -8.4992    2.1291 C   0  0  0  0  0  0  0  0  0  0  0  0
   -1.2516  -10.6630    3.9829 C   0  0  0  0  0  0  0  0  0  0  0  0
   -2.1886  -10.3242    3.0488 C   0  0  2  0  0  0  0  0  0  0  0  0
   -1.9899   -9.1601    2.2931 C   0  0  0  0  0  0  0  0  0  0  0  0
    0.3225   -5.1548    1.3574 Cl  0  0  0  0  0  0  0  0  0  0  0  0
   -3.3922  -10.9592    3.0738 C   0  0  2  0  0  0  0  0  0  0  0  0
   -4.4488  -10.4105    3.5529 C   0  0  0  0  0  0  0  0  0  0  0  0
   -5.6822  -11.2525    3.7139 C   0  0  0  0  0  0  0  0  0  0  0  0
   -5.6701  -12.4965    3.2220 C   0  0  0  0  0  0  0  0  0  0  0  0
   -4.5824  -13.1549    2.8726 C   0  0  0  0  0  0  0  0  0  0  0  0
   -3.3761  -12.4582    2.7750 C   0  0  0  0  0  0  0  0  0  0  0  0
   -4.4974  -14.5028    2.6308 O   0  0  0  0  0  0  0  0  0  0  0  0
   -2.9275   -8.8868    1.3531 O   0  0  0  0  0  0  0  0  0  0  0  0
  3  4  1  0
  9  8  1  1
  7 10  1  0
  9 10  1  0
  5 11  1  0
  9 12  1  0
 13 14  1  0
 15 16  1  0
 12 17  1  1
 16 17  1  0
 16 18  2  0
 10 19  2  0
  4  8  1  0
 14 15  1  0
 12 13  1  0
  1  2  2  0
  2  5  1  0
  5  6  2  0
  6  7  1  0
  3  7  2  0
  1  3  1  0
M  END

$$$$
No_4953-/export/home/yangzhenyu/potential_scad_32_flow//YTHDC2/2024-12-06-03-22-00/
     RDKit          3D

 18 18  0  0  1  0  0  0  0  0999 V2000
    1.1787   -8.0297    3.5154 C   0  0  0  0  0  0  0  0  0  0  0  0
    1.0491   -6.8434    2.9820 C   0  0  2  0  0  0  0  0  0  0  0  0
    1.9985   -8.9840    2.8958 C   0  0  0  0  0  0  0  0  0  0  0  0
    1.7297   -9.2108    1.6335 C   0  0  2  0  0  0  0  0  0  0  0  0
    2.3837  -10.5083    1.0902 C   0  0  0  0  0  0  0  0  0  0  0  0
    1.4969   -8.2053    0.7316 C   0  0  0  0  0  0  0  0  0  0  0  0
    0.7384   -5.6466    3.3273 C   0  0  0  0  0  0  0  0  0  0  0  0
    1.0412   -6.9581    1.3074 C   0  0  0  0  0  0  0  0  0  0  0  0
    2.3461  -11.4996    1.7985 O   0  0  0  0  0  0  0  0  0  0  0  0
    2.4478  -10.6358   -0.1296 O   0  0  0  0  0  0  0  0  0  0  0  0
   -0.4355   -5.1016    2.9717 C   0  0  0  0  0  0  0  0  0  0  0  0
   -0.7276   -3.7183    3.4307 C   0  0  0  0  0  0  0  0  0  0  0  0
    1.4546   -8.2092   -0.5588 O   0  0  0  0  0  0  0  0  0  0  0  0
   -1.5230   -5.7849    2.4056 C   0  0  0  0  0  0  0  0  0  0  0  0
   -2.0806   -6.7870    2.6951 C   0  0  0  0  0  0  0  0  0  0  0  0
   -3.0485   -7.4816    1.9937 C   0  0  0  0  0  0  0  0  0  0  0  0
   -3.9330   -6.8682    1.2678 C   0  0  0  0  0  0  0  0  0  0  0  0
   -4.7345   -7.6874    0.5194 C   0  0  0  0  0  0  0  0  0  0  0  0
  2  1  1  1
  1  3  1  0
  4  5  1  6
  4  6  1  0
  2  7  1  0
  2  8  1  0
  6  8  1  0
  5  9  1  0
  5 10  2  0
  7 11  2  3
 11 12  1  0
  6 13  2  0
 11 14  1  0
 14 15  2  3
 15 16  1  0
 16 17  2  3
 17 18  1  0
  3  4  1  0
M  END

$$$$
No_4954-/export/home/yangzhenyu/potential_scad_32_flow//YTHDC2/2024-12-06-03-22-00/
     RDKit          3D

 18 20  0  0  0  0  0  0  0  0999 V2000
    1.1787   -8.0297    3.5154 C   0  0  0  0  0  0  0  0  0  0  0  0
    1.1048   -9.2215    3.2892 C   0  0  0  0  0  0  0  0  0  0  0  0
    1.2339   -9.7611    2.0189 C   0  0  0  0  0  0  0  0  0  0  0  0
    1.3583   -9.0036    0.9764 C   0  0  0  0  0  0  0  0  0  0  0  0
    1.5996   -7.6362    1.1311 C   0  0  0  0  0  0  0  0  0  0  0  0
    1.4830   -7.0928    2.3626 C   0  0  0  0  0  0  0  0  0  0  0  0
    1.1008  -11.2372    1.8542 C   0  0  0  0  0  0  0  0  0  0  0  0
    0.4812  -11.6084    0.6459 C   0  0  0  0  0  0  0  0  0  0  0  0
    0.5208  -13.0348    0.4686 C   0  0  0  0  0  0  0  0  0  0  0  0
    0.5947  -13.9263    1.4485 C   0  0  0  0  0  0  0  0  0  0  0  0
    1.1692  -13.4494    2.6703 C   0  0  0  0  0  0  0  0  0  0  0  0
    1.3275  -12.0748    2.9317 C   0  0  0  0  0  0  0  0  0  0  0  0
    1.5441   -5.6703    2.6807 C   0  0  0  0  0  0  0  0  0  0  0  0
    1.2158   -4.8199    1.6340 C   0  0  0  0  0  0  0  0  0  0  0  0
    1.6316   -3.4769    1.6746 C   0  0  0  0  0  0  0  0  0  0  0  0
    2.3397   -3.0212    2.7666 C   0  0  0  0  0  0  0  0  0  0  0  0
    2.4601   -3.8308    3.8980 C   0  0  0  0  0  0  0  0  0  0  0  0
    2.1206   -5.1186    3.8060 N   0  0  0  0  0  0  0  0  0  0  0  0
  3  7  1  0
  6 13  1  0
  1  2  2  0
  2  3  1  0
  3  4  2  0
  4  5  1  0
  5  6  2  0
  1  6  1  0
 13 14  2  0
 14 15  1  0
 15 16  2  0
 16 17  1  0
 17 18  2  0
 13 18  1  0
  7  8  2  0
  8  9  1  0
  9 10  2  0
 10 11  1  0
 11 12  2  0
  7 12  1  0
M  END

$$$$
No_4955-/export/home/yangzhenyu/potential_scad_32_flow//YTHDC2/2024-12-06-03-22-00/
     RDKit          3D

 19 19  0  0  0  0  0  0  0  0999 V2000
    1.1787   -8.0297    3.5154 C   0  0  0  0  0  0  0  0  0  0  0  0
    1.1048   -9.2215    3.2892 C   0  0  0  0  0  0  0  0  0  0  0  0
    1.2339   -9.7611    2.0189 C   0  0  0  0  0  0  0  0  0  0  0  0
    1.3583   -9.0036    0.9764 C   0  0  0  0  0  0  0  0  0  0  0  0
    1.5996   -7.6362    1.1311 C   0  0  0  0  0  0  0  0  0  0  0  0
    1.4830   -7.0928    2.3626 C   0  0  0  0  0  0  0  0  0  0  0  0
    1.5395   -5.7300    2.6182 C   0  0  0  0  0  0  0  0  0  0  0  0
    1.1775  -11.2233    1.8407 C   0  0  0  0  0  0  0  0  0  0  0  0
    0.5085  -11.9762    2.1989 N   0  0  0  0  0  0  0  0  0  0  0  0
   -0.7398  -11.6527    2.6516 C   0  0  0  0  0  0  0  0  0  0  0  0
    0.7360  -13.3386    2.3783 C   0  0  0  0  0  0  0  0  0  0  0  0
    2.0141  -13.7297    2.7557 C   0  0  0  0  0  0  0  0  0  0  0  0
    2.3110  -15.1148    2.2720 C   0  0  0  0  0  0  0  0  0  0  0  0
    1.4319  -15.8581    1.9182 O   0  0  0  0  0  0  0  0  0  0  0  0
    3.5399  -15.4232    2.3459 O   0  0  0  0  0  0  0  0  0  0  0  0
    2.3984  -11.6595    1.0786 O   0  0  0  0  0  0  0  0  0  0  0  0
    1.6014   -5.1823    3.8593 O   0  0  0  0  0  0  0  0  0  0  0  0
    1.4064   -4.8479    1.6496 O   0  0  0  0  0  0  0  0  0  0  0  0
   -1.2812  -11.2728    3.7186 C   0  0  0  0  0  0  0  0  0  0  0  0
  6  7  1  0
  3  8  1  0
  8  9  1  0
  9 10  1  0
  9 11  1  0
 11 12  1  0
 12 13  1  0
 13 14  2  0
 13 15  1  0
  8 16  2  0
  7 17  1  0
  7 18  2  0
 10 19  1  0
  1  2  2  0
  2  3  1  0
  3  4  2  0
  4  5  1  0
  5  6  2  0
  1  6  1  0
M  END

$$$$
No_4956-/export/home/yangzhenyu/potential_scad_32_flow//YTHDC2/2024-12-06-03-22-00/
     RDKit          3D

 18 19  0  0  0  0  0  0  0  0999 V2000
    1.1787   -8.0297    3.5154 C   0  0  0  0  0  0  0  0  0  0  0  0
    1.0491   -6.8434    2.9820 C   0  0  0  0  0  0  0  0  0  0  0  0
    0.2462   -8.9560    3.0873 C   0  0  0  0  0  0  0  0  0  0  0  0
    0.3295   -6.5187    1.9069 C   0  0  0  0  0  0  0  0  0  0  0  0
   -0.5260   -8.7862    2.1368 C   0  0  0  0  0  0  0  0  0  0  0  0
   -0.5458   -7.5614    1.5054 C   0  0  0  0  0  0  0  0  0  0  0  0
    0.3636   -5.3203    1.2895 C   0  0  0  0  0  0  0  0  0  0  0  0
   -0.5231   -4.8795    0.5041 N   0  0  0  0  0  0  0  0  0  0  0  0
    1.3716   -4.4112    1.6622 O   0  0  0  0  0  0  0  0  0  0  0  0
    0.3597  -10.4709    3.7338 C   0  0  0  0  0  0  0  0  0  0  0  0
   -0.8290  -11.1516    3.7242 C   0  0  0  0  0  0  0  0  0  0  0  0
    1.5700  -10.8138    4.3544 C   0  0  0  0  0  0  0  0  0  0  0  0
    1.8274  -12.1992    4.3925 C   0  0  0  0  0  0  0  0  0  0  0  0
   -0.6331  -12.5151    3.9156 C   0  0  0  0  0  0  0  0  0  0  0  0
    0.6964  -13.0467    4.1833 C   0  0  0  0  0  0  0  0  0  0  0  0
    0.8233  -14.4055    4.3891 O   0  0  0  0  0  0  0  0  0  0  0  0
   -1.1014   -3.8849    0.3549 C   0  0  0  0  0  0  0  0  0  0  0  0
   -0.8420   -3.0307   -0.5450 C   0  0  0  0  0  0  0  0  0  0  0  0
  4  7  1  0
  7  8  1  0
  7  9  2  0
  3 10  1  0
 10 12  1  0
 11 14  1  0
 13 15  1  0
 14 15  1  0
 15 16  2  0
  8 17  1  0
 17 18  1  0
 12 13  1  0
 10 11  1  0
  1  2  2  0
  2  4  1  0
  4  6  2  0
  5  6  1  0
  3  5  2  0
  1  3  1  0
M  END

$$$$
No_4957-/export/home/yangzhenyu/potential_scad_32_flow//YTHDC2/2024-12-06-03-22-00/
     RDKit          3D

 20 22  0  0  0  0  0  0  0  0999 V2000
    1.1787   -8.0297    3.5154 C   0  0  0  0  0  0  0  0  0  0  0  0
    1.1048   -9.2215    3.2892 C   0  0  0  0  0  0  0  0  0  0  0  0
    1.3627  -10.1721    4.3044 C   0  0  0  0  0  0  0  0  0  0  0  0
    1.7354  -11.4730    3.9023 C   0  0  0  0  0  0  0  0  0  0  0  0
    1.8080  -11.8127    2.7216 C   0  0  0  0  0  0  0  0  0  0  0  0
    1.5854  -11.0021    1.7249 C   0  0  0  0  0  0  0  0  0  0  0  0
    1.3573   -9.7389    1.9287 C   0  0  0  0  0  0  0  0  0  0  0  0
    1.2865   -8.8078    0.9161 C   0  0  0  0  0  0  0  0  0  0  0  0
    0.9210   -7.5140    1.1674 C   0  0  0  0  0  0  0  0  0  0  0  0
    1.0097   -7.0192    2.4369 C   0  0  0  0  0  0  0  0  0  0  0  0
    2.0228  -13.2586    2.4222 C   0  0  0  0  0  0  0  0  0  0  0  0
    1.7593  -14.1964    3.3244 N   0  0  0  0  0  0  0  0  0  0  0  0
    2.4164  -13.6432    1.2773 O   0  0  0  0  0  0  0  0  0  0  0  0
    0.8743   -5.6119    2.7032 Cl  0  0  0  0  0  0  0  0  0  0  0  0
    1.6094  -15.5409    3.1266 C   0  0  0  0  0  0  0  0  0  0  0  0
    0.7667  -15.9358    2.3962 C   0  0  0  0  0  0  0  0  0  0  0  0
    1.0029  -16.8615    1.4903 C   0  0  0  0  0  0  0  0  0  0  0  0
    2.1892  -17.5110    1.5456 C   0  0  0  0  0  0  0  0  0  0  0  0
    3.1139  -17.2096    2.6757 C   0  0  0  0  0  0  0  0  0  0  0  0
    2.8371  -16.0806    3.4291 C   0  0  0  0  0  0  0  0  0  0  0  0
  5 11  1  0
 11 12  1  0
 11 13  2  0
 10 14  1  0
 12 15  1  0
 15 16  1  0
 16 17  1  0
 17 18  1  0
 18 19  1  0
 15 20  1  0
 19 20  1  0
  1  2  2  0
  7  8  2  0
  8  9  1  0
  9 10  2  0
  1 10  1  0
  2  3  1  0
  3  4  2  0
  4  5  1  0
  5  6  2  0
  6  7  1  0
  2  7  1  0
M  END

$$$$
No_4958-/export/home/yangzhenyu/potential_scad_32_flow//YTHDC2/2024-12-06-03-22-00/
     RDKit          3D

 18 19  0  0  0  0  0  0  0  0999 V2000
    1.1787   -8.0297    3.5154 C   0  0  0  0  0  0  0  0  0  0  0  0
    1.0491   -6.8434    2.9820 C   0  0  0  0  0  0  0  0  0  0  0  0
    1.0690   -9.1150    2.7206 C   0  0  0  0  0  0  0  0  0  0  0  0
    0.9689   -6.6391    1.6260 C   0  0  0  0  0  0  0  0  0  0  0  0
    0.9670   -9.0334    1.3824 C   0  0  0  0  0  0  0  0  0  0  0  0
    0.8189   -7.7113    0.8022 C   0  0  0  0  0  0  0  0  0  0  0  0
    1.2356  -10.6383    3.3202 C   0  0  0  0  0  0  0  0  0  0  0  0
    0.1657  -11.3254    3.4060 C   0  0  0  0  0  0  0  0  0  0  0  0
   -1.1043  -10.8208    3.4974 O   0  0  0  0  0  0  0  0  0  0  0  0
    0.3123  -12.6546    3.3236 N   0  0  0  0  0  0  0  0  0  0  0  0
    1.6103  -13.2118    3.0803 C   0  0  0  0  0  0  0  0  0  0  0  0
    1.4411  -14.6831    2.6798 C   0  0  0  0  0  0  0  0  0  0  0  0
    0.4137  -15.3446    3.2379 C   0  0  0  0  0  0  0  0  0  0  0  0
    0.8814   -5.3088    1.0944 Br  0  0  0  0  0  0  0  0  0  0  0  0
    2.7774  -15.4233    2.9341 C   0  0  0  0  0  0  0  0  0  0  0  0
    2.6291  -16.7793    2.5689 C   0  0  0  0  0  0  0  0  0  0  0  0
    1.6009  -17.5007    2.8299 O   0  0  0  0  0  0  0  0  0  0  0  0
    0.4295  -16.8306    2.7581 C   0  0  0  0  0  0  0  0  0  0  0  0
  3  7  1  0
  7  8  1  0
  8  9  2  0
  8 10  1  0
 10 11  1  0
 11 12  1  0
 12 13  1  0
  4 14  1  0
 12 15  1  0
 15 16  1  0
 16 17  1  0
 13 18  1  0
 17 18  1  0
  1  2  2  0
  2  4  1  0
  4  6  2  0
  5  6  1  0
  3  5  2  0
  1  3  1  0
M  END

$$$$
No_4959-/export/home/yangzhenyu/potential_scad_32_flow//YTHDC2/2024-12-06-03-22-00/
     RDKit          3D

 19 20  0  0  0  0  0  0  0  0999 V2000
    1.1787   -8.0297    3.5154 O   0  0  0  0  0  0  0  0  0  0  0  0
    0.6747   -7.4019    2.7838 C   0  0  0  0  0  0  0  0  0  0  0  0
    0.5570   -6.0797    2.8560 C   0  0  0  0  0  0  0  0  0  0  0  0
   -0.2158   -5.3007    2.0284 C   0  0  0  0  0  0  0  0  0  0  0  0
   -0.8260   -5.9169    1.0290 N   0  0  0  0  0  0  0  0  0  0  0  0
    0.0076   -7.9496    1.6467 C   0  0  0  0  0  0  0  0  0  0  0  0
   -0.6625   -7.2183    0.7888 C   0  0  0  0  0  0  0  0  0  0  0  0
   -1.5500   -5.0739    0.0744 C   0  0  0  0  0  0  0  0  0  0  0  0
   -2.5091   -5.8337   -0.5711 O   0  0  0  0  0  0  0  0  0  0  0  0
   -1.0356   -3.9439   -0.4915 O   0  0  0  0  0  0  0  0  0  0  0  0
    1.7282   -9.4007    3.2234 C   0  0  0  0  0  0  0  0  0  0  0  0
    1.7356  -10.3995    4.3427 C   0  0  0  0  0  0  0  0  0  0  0  0
    1.4409  -11.7585    3.9746 C   0  0  0  0  0  0  0  0  0  0  0  0
    1.4357  -12.1124    2.6523 C   0  0  0  0  0  0  0  0  0  0  0  0
    1.5598  -11.2044    1.6478 C   0  0  0  0  0  0  0  0  0  0  0  0
    1.7077   -9.8496    1.9021 C   0  0  0  0  0  0  0  0  0  0  0  0
    1.3864  -13.6560    2.2152 C   0  0  0  0  0  0  0  0  0  0  0  0
    2.1742  -14.3570    2.8638 C   0  0  0  0  0  0  0  0  0  0  0  0
    2.1068  -15.7463    2.4209 C   0  0  0  0  0  0  0  0  0  0  0  0
  1  2  1  0
  2  3  1  0
  4  5  1  0
  2  6  1  0
  5  7  1  0
  5  8  1  0
  8  9  2  0
  8 10  1  0
  1 11  1  0
 14 17  1  0
 17 18  1  0
 18 19  2  0
  3  4  1  0
  6  7  1  0
 11 12  2  0
 12 13  1  0
 13 14  2  0
 14 15  1  0
 15 16  2  0
 11 16  1  0
M  END

$$$$
No_4960-/export/home/yangzhenyu/potential_scad_32_flow//YTHDC2/2024-12-06-03-22-00/
     RDKit          3D

 19 19  0  0  0  0  0  0  0  0999 V2000
    1.1787   -8.0297    3.5154 C   0  0  0  0  0  0  0  0  0  0  0  0
    1.1048   -9.2215    3.2892 C   0  0  0  0  0  0  0  0  0  0  0  0
    1.2339   -9.7611    2.0189 C   0  0  0  0  0  0  0  0  0  0  0  0
    1.3583   -9.0036    0.9764 C   0  0  0  0  0  0  0  0  0  0  0  0
    1.5996   -7.6362    1.1311 C   0  0  0  0  0  0  0  0  0  0  0  0
    1.4830   -7.0928    2.3626 C   0  0  0  0  0  0  0  0  0  0  0  0
    1.1008  -11.2372    1.8542 C   0  0  0  0  0  0  0  0  0  0  0  0
    0.5178  -11.9759    2.3445 C   0  0  0  0  0  0  0  0  0  0  0  0
    0.4575  -13.3705    2.1281 C   0  0  0  0  0  0  0  0  0  0  0  0
    1.1632  -14.1013    2.0451 C   0  0  0  0  0  0  0  0  0  0  0  0
    2.4646  -13.5566    1.4445 C   0  0  0  0  0  0  0  0  0  0  0  0
    1.4828  -15.3910    2.7611 C   0  0  2  0  0  0  0  0  0  0  0  0
    2.4532  -16.2590    2.4653 Cl  0  0  0  0  0  0  0  0  0  0  0  0
    0.4669  -15.8236    3.6096 C   0  0  0  0  0  0  0  0  0  0  0  0
    1.5687   -5.4721    2.6771 C   0  0  0  0  0  0  0  0  0  0  0  0
    1.1744   -4.7502    1.6281 N   0  0  0  0  0  0  0  0  0  0  0  0
    1.4794   -3.4233    1.5209 C   0  0  0  0  0  0  0  0  0  0  0  0
    0.1201  -17.1995    3.5854 C   0  0  0  0  0  0  0  0  0  0  0  0
   -0.6520  -17.5083    2.5185 C   0  0  0  0  0  0  0  0  0  0  0  0
  3  7  1  0
  7  8  2  3
  8  9  1  0
  9 10  2  3
 10 11  1  0
 10 12  1  0
 12 13  1  6
 12 14  1  0
  6 15  1  0
 15 16  1  0
 16 17  1  0
 14 18  1  0
 18 19  1  0
  1  2  2  0
  2  3  1  0
  3  4  2  0
  4  5  1  0
  5  6  2  0
  1  6  1  0
M  END

$$$$
No_4961-/export/home/yangzhenyu/potential_scad_32_flow//YTHDC2/2024-12-06-03-22-00/
     RDKit          3D

 19 20  0  0  0  0  0  0  0  0999 V2000
    1.1787   -8.0297    3.5154 C   0  0  0  0  0  0  0  0  0  0  0  0
    1.0491   -6.8434    2.9820 C   0  0  0  0  0  0  0  0  0  0  0  0
    0.0950   -8.8404    3.2292 C   0  0  0  0  0  0  0  0  0  0  0  0
   -0.9173   -8.4596    2.5152 C   0  0  0  0  0  0  0  0  0  0  0  0
   -1.0331   -7.2162    2.0653 C   0  0  0  0  0  0  0  0  0  0  0  0
   -0.0105   -6.3168    2.3081 C   0  0  0  0  0  0  0  0  0  0  0  0
    0.3809  -10.4500    3.4985 C   0  0  0  0  0  0  0  0  0  0  0  0
    1.4790  -10.8064    3.9265 C   0  0  0  0  0  0  0  0  0  0  0  0
    1.7114  -12.2752    3.8982 C   0  0  0  0  0  0  0  0  0  0  0  0
    0.5737  -13.0270    3.5925 C   0  0  0  0  0  0  0  0  0  0  0  0
   -0.5068  -12.5814    3.1851 C   0  0  0  0  0  0  0  0  0  0  0  0
   -0.6978  -11.1684    3.1704 C   0  0  0  0  0  0  0  0  0  0  0  0
   -0.1438   -5.0215    1.8638 O   0  0  0  0  0  0  0  0  0  0  0  0
    0.8579  -14.4450    3.6547 O   0  0  0  0  0  0  0  0  0  0  0  0
   -0.8827   -4.5674    1.0466 C   0  0  0  0  0  0  0  0  0  0  0  0
    0.9693  -15.2173    2.5042 C   0  0  0  0  0  0  0  0  0  0  0  0
    0.9533  -16.4710    2.7573 C   0  0  0  0  0  0  0  0  0  0  0  0
    0.1014  -17.0132    3.5861 C   0  0  0  0  0  0  0  0  0  0  0  0
    0.5160  -17.8857    4.5505 C   0  0  0  0  0  0  0  0  0  0  0  0
  3  7  1  0
  6 13  1  0
 10 14  1  0
 13 15  1  0
 14 16  1  0
 16 17  1  0
 17 18  1  0
 18 19  2  0
  1  2  2  0
  2  6  1  0
  5  6  2  0
  4  5  1  0
  3  4  2  0
  1  3  1  0
  7  8  2  0
  8  9  1  0
  9 10  2  0
 10 11  1  0
 11 12  2  0
  7 12  1  0
M  END

$$$$
No_4962-/export/home/yangzhenyu/potential_scad_32_flow//YTHDC2/2024-12-06-03-22-00/
     RDKit          3D

 19 19  0  0  0  0  0  0  0  0999 V2000
    1.1787   -8.0297    3.5154 O   0  0  0  0  0  0  0  0  0  0  0  0
    0.9969   -8.9689    3.0048 C   0  0  0  0  0  0  0  0  0  0  0  0
    1.3055  -10.1056    3.6616 C   0  0  0  0  0  0  0  0  0  0  0  0
    1.1249  -11.3503    3.0941 C   0  0  0  0  0  0  0  0  0  0  0  0
    0.6932  -11.4484    1.8586 C   0  0  0  0  0  0  0  0  0  0  0  0
    0.5498  -10.3736    1.0579 C   0  0  0  0  0  0  0  0  0  0  0  0
    0.7643   -9.1185    1.6383 C   0  0  0  0  0  0  0  0  0  0  0  0
    0.5937   -7.8467    1.0482 C   0  0  0  0  0  0  0  0  0  0  0  0
    1.5294   -7.0230    1.0749 O   0  0  0  0  0  0  0  0  0  0  0  0
   -0.4082   -7.5594    0.2791 O   0  0  0  0  0  0  0  0  0  0  0  0
    1.2233  -12.8316    3.9806 Br  0  0  0  0  0  0  0  0  0  0  0  0
    0.4808  -12.6816    1.0714 Cl  0  0  0  0  0  0  0  0  0  0  0  0
    0.2152  -10.3887   -0.3035 O   0  0  0  0  0  0  0  0  0  0  0  0
    1.6772  -10.1496    5.0404 O   0  0  0  0  0  0  0  0  0  0  0  0
   -1.1428  -10.0001   -0.4770 C   0  0  0  0  0  0  0  0  0  0  0  0
   -1.3955   -9.6462   -1.8889 C   0  0  0  0  0  0  0  0  0  0  0  0
   -2.5399   -9.5452   -2.3747 C   0  0  0  0  0  0  0  0  0  0  0  0
   -3.6073   -9.7000   -1.5418 C   0  0  0  0  0  0  0  0  0  0  0  0
   -3.4711  -10.0781   -0.2385 C   0  0  0  0  0  0  0  0  0  0  0  0
  1  2  1  0
  7  8  1  0
  8  9  1  0
  8 10  2  0
  4 11  1  0
  5 12  1  0
  6 13  1  0
  3 14  1  0
 13 15  1  0
 15 16  1  0
 16 17  2  3
 17 18  1  0
 18 19  2  0
  2  3  2  0
  3  4  1  0
  4  5  2  0
  5  6  1  0
  6  7  2  0
  2  7  1  0
M  END

$$$$
No_4963-/export/home/yangzhenyu/potential_scad_32_flow//YTHDC2/2024-12-06-03-22-00/
     RDKit          3D

 18 18  0  0  0  0  0  0  0  0999 V2000
    1.1787   -8.0297    3.5154 O   0  0  0  0  0  0  0  0  0  0  0  0
    0.6747   -7.4019    2.7838 C   0  0  2  0  0  0  0  0  0  0  0  0
    0.5570   -6.0797    2.8560 C   0  0  0  0  0  0  0  0  0  0  0  0
    1.1189   -5.2588    2.0517 C   0  0  0  0  0  0  0  0  0  0  0  0
    1.0827   -3.8459    2.0524 C   0  0  0  0  0  0  0  0  0  0  0  0
   -0.0704   -8.1206    1.8929 C   0  0  0  0  0  0  0  0  0  0  0  0
    0.5304   -9.2501    1.5274 C   0  0  0  0  0  0  0  0  0  0  0  0
    0.3597  -10.3230    2.1991 C   0  0  0  0  0  0  0  0  0  0  0  0
    0.9932  -11.5732    1.7973 C   0  0  2  0  0  0  0  0  0  0  0  0
    1.6510  -11.6328    0.5543 C   0  0  0  0  0  0  0  0  0  0  0  0
    0.1395  -12.7096    2.1738 C   0  0  0  0  0  0  0  0  0  0  0  0
    0.2739  -13.7040    1.7217 C   0  0  0  0  0  0  0  0  0  0  0  0
    1.1939  -14.1124    0.6193 C   0  0  0  0  0  0  0  0  0  0  0  0
    1.1844  -15.3159    0.1691 C   0  0  0  0  0  0  0  0  0  0  0  0
    0.7822  -16.2718    0.8082 C   0  0  0  0  0  0  0  0  0  0  0  0
    0.0226  -16.1499    1.9234 C   0  0  0  0  0  0  0  0  0  0  0  0
   -0.1386  -14.8898    2.4410 C   0  0  0  0  0  0  0  0  0  0  0  0
    0.5088   -3.0700    1.0144 C   0  0  0  0  0  0  0  0  0  0  0  0
  2  1  1  1
  2  3  1  0
  3  4  2  3
  4  5  1  0
  2  6  1  0
  6  7  1  0
  7  8  2  3
  8  9  1  0
  9 10  1  6
  9 11  1  0
  5 18  2  0
 11 12  1  0
 12 13  2  0
 13 14  1  0
 14 15  2  0
 15 16  1  0
 16 17  2  0
 12 17  1  0
M  END

$$$$
No_4964-/export/home/yangzhenyu/potential_scad_32_flow//YTHDC2/2024-12-06-03-22-00/
     RDKit          3D

 18 19  0  0  0  0  0  0  0  0999 V2000
    1.1787   -8.0297    3.5154 C   0  0  0  0  0  0  0  0  0  0  0  0
    1.1048   -9.2215    3.2892 C   0  0  0  0  0  0  0  0  0  0  0  0
    1.3627  -10.1721    4.3044 C   0  0  0  0  0  0  0  0  0  0  0  0
    1.7354  -11.4730    3.9023 C   0  0  0  0  0  0  0  0  0  0  0  0
    1.6166  -11.5515    2.5159 C   0  0  0  0  0  0  0  0  0  0  0  0
    1.4172  -10.6242    1.6178 C   0  0  0  0  0  0  0  0  0  0  0  0
    1.2598   -9.4423    1.9811 C   0  0  0  0  0  0  0  0  0  0  0  0
    0.9744   -6.9065    2.9175 C   0  0  0  0  0  0  0  0  0  0  0  0
    1.1914   -7.2052    1.4248 C   0  0  0  0  0  0  0  0  0  0  0  0
    1.3358   -8.3886    1.0074 C   0  0  0  0  0  0  0  0  0  0  0  0
    1.4609   -8.6007   -0.2852 C   0  0  0  0  0  0  0  0  0  0  0  0
    0.4021   -9.0281   -1.1677 O   0  0  0  0  0  0  0  0  0  0  0  0
    2.5536   -8.4722   -1.0430 O   0  0  0  0  0  0  0  0  0  0  0  0
    1.8860  -13.0724    2.1228 C   0  0  0  0  0  0  0  0  0  0  0  0
    1.9992  -14.0849    2.9170 C   0  0  0  0  0  0  0  0  0  0  0  0
    2.2446  -15.3619    2.2719 C   0  0  0  0  0  0  0  0  0  0  0  0
    2.7480  -15.5102    1.2950 N   0  0  0  0  0  0  0  0  0  0  0  0
    2.0584  -16.5332    3.0990 N   0  0  0  0  0  0  0  0  0  0  0  0
 10 11  1  0
 11 12  2  0
 11 13  1  0
  5 14  1  0
 14 15  1  0
 15 16  1  0
 16 17  2  0
 16 18  1  0
  2  3  1  0
  3  4  2  0
  4  5  1  0
  5  6  2  0
  6  7  1  0
  1  2  2  0
  2  7  1  0
  7 10  2  0
  9 10  1  0
  8  9  2  0
  1  8  1  0
M  END

$$$$
No_4965-/export/home/yangzhenyu/potential_scad_32_flow//YTHDC2/2024-12-06-03-22-00/
     RDKit          3D

 19 19  0  0  0  0  0  0  0  0999 V2000
    1.1787   -8.0297    3.5154 C   0  0  0  0  0  0  0  0  0  0  0  0
    1.1048   -9.2215    3.2892 C   0  0  0  0  0  0  0  0  0  0  0  0
    1.2339   -9.7611    2.0189 C   0  0  0  0  0  0  0  0  0  0  0  0
    1.3583   -9.0036    0.9764 C   0  0  0  0  0  0  0  0  0  0  0  0
    1.5996   -7.6362    1.1311 C   0  0  0  0  0  0  0  0  0  0  0  0
    1.4830   -7.0928    2.3626 C   0  0  0  0  0  0  0  0  0  0  0  0
    1.5395   -5.7300    2.6182 C   0  0  0  0  0  0  0  0  0  0  0  0
    1.1969  -11.3760    1.8433 C   0  0  2  0  0  0  0  0  0  0  0  0
    1.0771  -11.6644    0.5388 C   0  0  0  0  0  0  0  0  0  0  0  0
    0.3802  -11.2716   -0.2699 O   0  0  0  0  0  0  0  0  0  0  0  0
    1.4797  -13.0571    0.4235 O   0  0  0  0  0  0  0  0  0  0  0  0
    0.6173   -4.8770    2.7927 N   0  0  0  0  0  0  0  0  0  0  0  0
    0.8068   -3.5385    3.2016 C   0  0  0  0  0  0  0  0  0  0  0  0
    0.8253  -11.9353    2.9139 C   0  0  0  0  0  0  0  0  0  0  0  0
    1.8299  -12.6461    3.7687 C   0  0  0  0  0  0  0  0  0  0  0  0
    1.8697  -14.0218    3.3785 C   0  0  0  0  0  0  0  0  0  0  0  0
    2.8685  -14.6757    2.7128 C   0  0  0  0  0  0  0  0  0  0  0  0
    2.6723  -15.9669    2.3217 C   0  0  0  0  0  0  0  0  0  0  0  0
    1.6319  -16.6871    2.4205 C   0  0  0  0  0  0  0  0  0  0  0  0
  6  7  1  0
  3  8  1  0
  8  9  1  0
  9 10  2  0
  9 11  1  0
  7 12  1  0
 12 13  1  0
  8 14  1  1
 14 15  1  0
 15 16  1  0
 16 17  1  0
 17 18  2  3
 18 19  1  0
  1  2  2  0
  2  3  1  0
  3  4  2  0
  4  5  1  0
  5  6  2  0
  1  6  1  0
M  END

$$$$
No_4966-/export/home/yangzhenyu/potential_scad_32_flow//YTHDC2/2024-12-06-03-22-00/
     RDKit          3D

 18 19  0  0  0  0  0  0  0  0999 V2000
    1.1787   -8.0297    3.5154 C   0  0  0  0  0  0  0  0  0  0  0  0
    1.1048   -9.2215    3.2892 C   0  0  0  0  0  0  0  0  0  0  0  0
    1.2339   -9.7611    2.0189 C   0  0  0  0  0  0  0  0  0  0  0  0
    1.4306   -8.9466    1.1170 C   0  0  0  0  0  0  0  0  0  0  0  0
    1.6532   -7.5949    1.1786 C   0  0  0  0  0  0  0  0  0  0  0  0
    1.4973   -7.0739    2.4258 C   0  0  0  0  0  0  0  0  0  0  0  0
    1.6687   -9.4438   -0.3021 Cl  0  0  0  0  0  0  0  0  0  0  0  0
    1.2679  -11.3213    1.8432 C   0  0  0  0  0  0  0  0  0  0  0  0
    0.4982  -11.7860    0.9874 O   0  0  0  0  0  0  0  0  0  0  0  0
    2.1559  -11.9923    2.5085 O   0  0  0  0  0  0  0  0  0  0  0  0
    1.4944   -5.5955    2.7093 Cl  0  0  0  0  0  0  0  0  0  0  0  0
    1.9812  -13.3756    2.5032 C   0  0  0  0  0  0  0  0  0  0  0  0
    2.3824  -14.1460    1.4876 C   0  0  0  0  0  0  0  0  0  0  0  0
    2.3292  -15.5102    1.5357 C   0  0  0  0  0  0  0  0  0  0  0  0
    1.7071  -16.1230    2.5513 C   0  0  0  0  0  0  0  0  0  0  0  0
    1.2636  -15.3622    3.6716 C   0  0  0  0  0  0  0  0  0  0  0  0
    1.2961  -14.0266    3.6623 C   0  0  0  0  0  0  0  0  0  0  0  0
    1.7417  -17.5350    2.5902 Br  0  0  0  0  0  0  0  0  0  0  0  0
  4  7  1  0
  3  8  1  0
  8  9  2  0
  8 10  1  0
  6 11  1  0
 10 12  1  0
 15 18  1  0
 12 13  2  0
 13 14  1  0
 14 15  2  0
 15 16  1  0
 16 17  2  0
 12 17  1  0
  1  2  2  0
  2  3  1  0
  3  4  2  0
  4  5  1  0
  5  6  2  0
  1  6  1  0
M  END

$$$$
No_4967-/export/home/yangzhenyu/potential_scad_32_flow//YTHDC2/2024-12-06-03-22-00/
     RDKit          3D

 18 18  0  0  0  0  0  0  0  0999 V2000
    1.1787   -8.0297    3.5154 O   0  0  0  0  0  0  0  0  0  0  0  0
    0.9969   -8.9689    3.0048 C   0  0  0  0  0  0  0  0  0  0  0  0
    0.9976   -8.9567    1.6341 C   0  0  0  0  0  0  0  0  0  0  0  0
    1.6062   -9.9071    0.9292 C   0  0  0  0  0  0  0  0  0  0  0  0
    2.1191  -10.9757    1.6503 C   0  0  0  0  0  0  0  0  0  0  0  0
    2.1177  -10.9891    3.0403 C   0  0  0  0  0  0  0  0  0  0  0  0
    1.5441   -9.8905    3.6897 C   0  0  0  0  0  0  0  0  0  0  0  0
    0.5010   -7.8164    1.0436 C   0  0  0  0  0  0  0  0  0  0  0  0
    1.0624   -6.6356    1.1779 O   0  0  0  0  0  0  0  0  0  0  0  0
   -0.6994   -7.7274    0.4054 O   0  0  0  0  0  0  0  0  0  0  0  0
    1.8059  -10.1187    4.9866 F   0  0  0  0  0  0  0  0  0  0  0  0
    2.6187  -12.1728    3.5745 O   0  0  0  0  0  0  0  0  0  0  0  0
    1.6070   -9.9756   -0.4481 C   0  0  0  0  0  0  0  0  0  0  0  0
    2.4612   -9.0300   -1.0728 N   0  0  0  0  0  0  0  0  0  0  0  0
   -1.2890   -8.5487   -0.2184 C   0  0  0  0  0  0  0  0  0  0  0  0
   -2.2635   -9.3747    0.3851 C   0  0  0  0  0  0  0  0  0  0  0  0
   -3.0073   -9.8961   -0.0463 O   0  0  0  0  0  0  0  0  0  0  0  0
   -1.9086   -9.5819    1.8200 Br  0  0  0  0  0  0  0  0  0  0  0  0
  1  2  1  0
  3  8  1  0
  8  9  2  0
  8 10  1  0
  7 11  1  0
  6 12  1  0
  4 13  1  0
 13 14  1  0
 10 15  1  0
 15 16  1  0
 16 17  2  0
 16 18  1  0
  2  3  2  0
  3  4  1  0
  4  5  2  0
  5  6  1  0
  6  7  2  0
  2  7  1  0
M  END

$$$$
No_4968-/export/home/yangzhenyu/potential_scad_32_flow//YTHDC2/2024-12-06-03-22-00/
     RDKit          3D

 19 19  0  0  0  0  0  0  0  0999 V2000
    1.1787   -8.0297    3.5154 C   0  0  0  0  0  0  0  0  0  0  0  0
    1.1048   -9.2215    3.2892 C   0  0  0  0  0  0  0  0  0  0  0  0
    1.2339   -9.7611    2.0189 C   0  0  0  0  0  0  0  0  0  0  0  0
    1.3583   -9.0036    0.9764 C   0  0  0  0  0  0  0  0  0  0  0  0
    1.5996   -7.6362    1.1311 C   0  0  0  0  0  0  0  0  0  0  0  0
    1.4830   -7.0928    2.3626 C   0  0  0  0  0  0  0  0  0  0  0  0
    1.1008  -11.2372    1.8542 C   0  0  0  0  0  0  0  0  0  0  0  0
    0.5178  -11.9759    2.3445 C   0  0  0  0  0  0  0  0  0  0  0  0
    0.4575  -13.3705    2.1281 C   0  0  0  0  0  0  0  0  0  0  0  0
    1.1632  -14.1013    2.0451 C   0  0  0  0  0  0  0  0  0  0  0  0
    2.4646  -13.5566    1.4445 C   0  0  0  0  0  0  0  0  0  0  0  0
    1.2467  -15.5603    2.2927 S   0  0  0  0  0  0  0  0  0  0  0  0
    2.5951  -16.1767    2.0334 O   0  0  0  0  0  0  0  0  0  0  0  0
    0.3575  -16.2647    1.2796 O   0  0  0  0  0  0  0  0  0  0  0  0
    1.5685   -5.4699    2.6753 C   0  0  0  0  0  0  0  0  0  0  0  0
    1.5267   -9.4160   -0.3702 C   0  0  0  0  0  0  0  0  0  0  0  0
    2.5317   -9.5801   -0.9445 O   0  0  0  0  0  0  0  0  0  0  0  0
    0.3753   -9.2401   -1.1602 O   0  0  0  0  0  0  0  0  0  0  0  0
    1.6228   -5.1134    3.8733 O   0  0  0  0  0  0  0  0  0  0  0  0
  3  7  1  0
  7  8  2  3
  8  9  1  0
  9 10  2  3
 10 11  1  0
 10 12  1  0
 12 13  2  0
 12 14  2  0
  6 15  1  0
  4 16  1  0
 16 17  2  0
 16 18  1  0
 15 19  1  0
  1  2  2  0
  2  3  1  0
  3  4  2  0
  4  5  1  0
  5  6  2  0
  1  6  1  0
M  END

$$$$
No_4969-/export/home/yangzhenyu/potential_scad_32_flow//YTHDC2/2024-12-06-03-22-00/
     RDKit          3D

 19 21  0  0  0  0  0  0  0  0999 V2000
    1.1787   -8.0297    3.5154 C   0  0  0  0  0  0  0  0  0  0  0  0
    1.0491   -6.8434    2.9820 C   0  0  0  0  0  0  0  0  0  0  0  0
    0.0950   -8.8404    3.2292 C   0  0  0  0  0  0  0  0  0  0  0  0
   -0.9173   -8.4596    2.5152 C   0  0  0  0  0  0  0  0  0  0  0  0
   -1.0331   -7.2162    2.0653 C   0  0  0  0  0  0  0  0  0  0  0  0
   -0.0105   -6.3168    2.3081 C   0  0  0  0  0  0  0  0  0  0  0  0
    0.1935  -10.3737    3.7416 C   0  0  0  0  0  0  0  0  0  0  0  0
    1.2406  -10.8901    4.0986 C   0  0  0  0  0  0  0  0  0  0  0  0
    1.1186  -12.3145    4.4006 C   0  0  0  0  0  0  0  0  0  0  0  0
    0.1013  -12.9075    3.8532 C   0  0  0  0  0  0  0  0  0  0  0  0
   -0.9044  -12.4076    3.3546 C   0  0  0  0  0  0  0  0  0  0  0  0
   -0.9318  -11.0156    3.2558 C   0  0  0  0  0  0  0  0  0  0  0  0
   -0.1401   -5.0294    1.8030 C   0  0  0  0  0  0  0  0  0  0  0  0
   -0.7989   -4.1490    2.2884 C   0  0  0  0  0  0  0  0  0  0  0  0
   -0.7878   -2.9827    1.9397 C   0  0  0  0  0  0  0  0  0  0  0  0
   -0.0295   -2.5849    0.7704 C   0  0  0  0  0  0  0  0  0  0  0  0
    0.6964   -3.4194    0.1139 C   0  0  0  0  0  0  0  0  0  0  0  0
    0.7512   -4.7442    0.6930 C   0  0  0  0  0  0  0  0  0  0  0  0
   -0.0262   -1.0306    0.1091 Cl  0  0  0  0  0  0  0  0  0  0  0  0
  3  7  1  0
  6 13  1  0
 16 19  1  0
 13 14  2  0
 14 15  1  0
 15 16  2  0
 16 17  1  0
 17 18  2  0
 13 18  1  0
  1  2  2  0
  2  6  1  0
  5  6  2  0
  4  5  1  0
  3  4  2  0
  1  3  1  0
  7  8  2  0
  8  9  1  0
  9 10  2  0
 10 11  1  0
 11 12  2  0
  7 12  1  0
M  END

$$$$
No_4970-/export/home/yangzhenyu/potential_scad_32_flow//YTHDC2/2024-12-06-03-22-00/
     RDKit          3D

 19 20  0  0  0  0  0  0  0  0999 V2000
    1.1787   -8.0297    3.5154 C   0  0  0  0  0  0  0  0  0  0  0  0
    1.0491   -6.8434    2.9820 C   0  0  1  0  0  0  0  0  0  0  0  0
    1.9985   -8.9840    2.8958 C   0  0  0  0  0  0  0  0  0  0  0  0
    1.9135  -10.3404    3.6266 C   0  0  0  0  0  0  0  0  0  0  0  0
    0.7479  -10.9191    3.7202 C   0  0  0  0  0  0  0  0  0  0  0  0
    1.8085   -5.7988    3.2380 C   0  0  0  0  0  0  0  0  0  0  0  0
    0.2524  -11.5736    2.6428 C   0  0  2  0  0  0  0  0  0  0  0  0
   -0.9859  -11.4226    2.3955 C   0  0  0  0  0  0  0  0  0  0  0  0
   -1.6589  -12.1730    1.4770 C   0  0  0  0  0  0  0  0  0  0  0  0
   -0.9369  -13.0771    0.6665 C   0  0  0  0  0  0  0  0  0  0  0  0
    0.4474  -13.2747    0.9386 C   0  0  0  0  0  0  0  0  0  0  0  0
    1.0867  -12.5080    1.8827 C   0  0  0  0  0  0  0  0  0  0  0  0
    1.4796   -4.6330    2.4979 C   0  0  0  0  0  0  0  0  0  0  0  0
    0.6168   -4.7031    1.3536 C   0  0  1  0  0  0  0  0  0  0  0  0
    0.0187   -5.8293    1.0461 C   0  0  0  0  0  0  0  0  0  0  0  0
    0.1699   -6.9443    1.8112 C   0  0  0  0  0  0  0  0  0  0  0  0
   -0.4707   -8.0708    1.4080 O   0  0  0  0  0  0  0  0  0  0  0  0
    2.2202  -12.7030    2.1166 O   0  0  0  0  0  0  0  0  0  0  0  0
    0.2982   -3.4900    0.7499 Br  0  0  0  0  0  0  0  0  0  0  0  0
  2  1  1  6
  1  3  1  0
  3  4  1  0
  4  5  1  0
  2  6  1  0
  7  5  1  1
  7  8  1  0
  9 10  1  0
  7 12  1  0
 11 12  1  0
 13 14  1  0
  2 16  1  0
 15 16  1  0
 16 17  2  0
 12 18  2  0
 14 19  1  1
  8  9  1  0
 10 11  1  0
  6 13  1  0
 14 15  1  0
M  END

$$$$
No_4971-/export/home/yangzhenyu/potential_scad_32_flow//YTHDC2/2024-12-06-03-22-00/
     RDKit          3D

 17 18  0  0  0  0  0  0  0  0999 V2000
    1.1787   -8.0297    3.5154 C   0  0  0  0  0  0  0  0  0  0  0  0
    1.1048   -9.2215    3.2892 C   0  0  0  0  0  0  0  0  0  0  0  0
    1.2339   -9.7611    2.0189 C   0  0  0  0  0  0  0  0  0  0  0  0
    1.1954  -11.2312    1.8661 C   0  0  0  0  0  0  0  0  0  0  0  0
    1.2996  -11.5815    0.5387 C   0  0  0  0  0  0  0  0  0  0  0  0
    0.9270   -7.0442    2.4967 C   0  0  2  0  0  0  0  0  0  0  0  0
    0.9803   -7.6034    1.0978 C   0  0  0  0  0  0  0  0  0  0  0  0
    1.1096   -8.9244    0.8670 C   0  0  0  0  0  0  0  0  0  0  0  0
    1.2635  -10.7284   -0.4571 C   0  0  0  0  0  0  0  0  0  0  0  0
    1.1104   -9.4104   -0.3278 C   0  0  0  0  0  0  0  0  0  0  0  0
    1.0056   -5.6057    2.6708 C   0  0  0  0  0  0  0  0  0  0  0  0
    1.4574  -12.0211    2.8824 C   0  0  0  0  0  0  0  0  0  0  0  0
    0.6192  -13.0239    3.1922 C   0  0  0  0  0  0  0  0  0  0  0  0
    0.6434  -14.1563    2.3045 C   0  0  0  0  0  0  0  0  0  0  0  0
    1.8796  -14.8750    2.2371 C   0  0  0  0  0  0  0  0  0  0  0  0
    1.0284   -6.7540    0.2064 O   0  0  0  0  0  0  0  0  0  0  0  0
    1.9501  -16.1834    2.3065 C   0  0  0  0  0  0  0  0  0  0  0  0
  1  2  1  0
  6  7  1  0
  7  8  1  0
  6 11  1  6
  4 12  1  0
 12 13  1  0
 13 14  1  0
 14 15  1  0
  7 16  2  0
 15 17  2  0
  1  6  1  0
  2  3  1  0
  3  4  2  0
  4  5  1  0
  5  9  2  0
  9 10  1  0
  8 10  2  0
  3  8  1  0
M  END

$$$$
No_4972-/export/home/yangzhenyu/potential_scad_32_flow//YTHDC2/2024-12-06-03-22-00/
     RDKit          3D

 17 18  0  0  0  0  0  0  0  0999 V2000
    1.1787   -8.0297    3.5154 C   0  0  0  0  0  0  0  0  0  0  0  0
    1.1048   -9.2215    3.2892 C   0  0  0  0  0  0  0  0  0  0  0  0
    1.2339   -9.7611    2.0189 C   0  0  0  0  0  0  0  0  0  0  0  0
    1.3583   -9.0036    0.9764 C   0  0  0  0  0  0  0  0  0  0  0  0
    1.5996   -7.6362    1.1311 C   0  0  0  0  0  0  0  0  0  0  0  0
    1.4830   -7.0928    2.3626 C   0  0  0  0  0  0  0  0  0  0  0  0
    1.4898   -5.7274    2.6199 C   0  0  0  0  0  0  0  0  0  0  0  0
    1.1681  -11.2222    1.8390 C   0  0  0  0  0  0  0  0  0  0  0  0
    0.5014  -11.9760    2.2068 C   0  0  0  0  0  0  0  0  0  0  0  0
    0.4167  -13.3685    2.0527 C   0  0  0  0  0  0  0  0  0  0  0  0
    1.5984  -14.1574    2.4634 C   0  0  0  0  0  0  0  0  0  0  0  0
    1.8090  -15.4261    2.0927 C   0  0  0  0  0  0  0  0  0  0  0  0
    0.9343  -16.1017    1.4952 C   0  0  0  0  0  0  0  0  0  0  0  0
   -0.2687  -15.5783    1.2186 C   0  0  0  0  0  0  0  0  0  0  0  0
   -0.5030  -14.1958    1.4730 C   0  0  0  0  0  0  0  0  0  0  0  0
    0.6705   -4.9750    2.7323 N   0  0  0  0  0  0  0  0  0  0  0  0
    0.8049   -3.5800    2.9876 C   0  0  0  0  0  0  0  0  0  0  0  0
  6  7  1  0
  3  8  1  0
  8  9  2  3
  9 10  1  0
  7 16  2  3
 16 17  1  0
  1  2  2  0
  2  3  1  0
  3  4  2  0
  4  5  1  0
  5  6  2  0
  1  6  1  0
 10 11  2  0
 11 12  1  0
 12 13  2  0
 13 14  1  0
 14 15  2  0
 10 15  1  0
M  END

$$$$
No_4973-/export/home/yangzhenyu/potential_scad_32_flow//YTHDC2/2024-12-06-03-22-00/
     RDKit          3D

 20 22  0  0  0  0  0  0  0  0999 V2000
    1.1787   -8.0297    3.5154 C   0  0  0  0  0  0  0  0  0  0  0  0
    1.0491   -6.8434    2.9820 C   0  0  0  0  0  0  0  0  0  0  0  0
    0.0950   -8.8404    3.2292 C   0  0  0  0  0  0  0  0  0  0  0  0
   -0.7663   -8.2602    2.4375 C   0  0  0  0  0  0  0  0  0  0  0  0
   -0.7437   -6.9718    1.9778 C   0  0  0  0  0  0  0  0  0  0  0  0
    0.2554   -6.2202    2.2855 C   0  0  0  0  0  0  0  0  0  0  0  0
    0.4072   -4.8741    1.9191 C   0  0  0  0  0  0  0  0  0  0  0  0
    0.0471  -10.3897    3.6456 C   0  0  0  0  0  0  0  0  0  0  0  0
   -1.1863  -10.9087    3.7110 C   0  0  0  0  0  0  0  0  0  0  0  0
    1.1980  -10.9249    4.2284 C   0  0  0  0  0  0  0  0  0  0  0  0
    1.1400  -12.2863    4.3931 C   0  0  0  0  0  0  0  0  0  0  0  0
   -1.1946  -12.2536    3.9286 C   0  0  0  0  0  0  0  0  0  0  0  0
    0.0379  -12.9115    4.2074 C   0  0  0  0  0  0  0  0  0  0  0  0
    0.3974   -4.6957    0.5793 C   0  0  0  0  0  0  0  0  0  0  0  0
   -0.3400   -3.5830    0.2305 C   0  0  0  0  0  0  0  0  0  0  0  0
   -0.6286   -2.5237    1.0153 C   0  0  0  0  0  0  0  0  0  0  0  0
   -0.4463   -2.6659    2.3182 C   0  0  0  0  0  0  0  0  0  0  0  0
   -0.0037   -3.8887    2.7986 C   0  0  0  0  0  0  0  0  0  0  0  0
   -0.4740   -3.2162   -1.2212 C   0  0  0  0  0  0  0  0  0  0  0  0
   -0.5365   -2.0067   -1.7110 C   0  0  0  0  0  0  0  0  0  0  0  0
  6  7  1  0
  3  8  1  0
 15 19  1  0
 19 20  2  0
  1  2  2  0
  2  6  1  0
  5  6  2  0
  4  5  1  0
  3  4  2  0
  1  3  1  0
  8  9  2  0
  9 12  1  0
 12 13  2  0
 11 13  1  0
 10 11  2  0
  8 10  1  0
  7 14  2  0
 14 15  1  0
 15 16  2  0
 16 17  1  0
 17 18  2  0
  7 18  1  0
M  END

$$$$
No_4974-/export/home/yangzhenyu/potential_scad_32_flow//YTHDC2/2024-12-06-03-22-00/
     RDKit          3D

 17 18  0  0  0  0  0  0  0  0999 V2000
    1.1787   -8.0297    3.5154 C   0  0  0  0  0  0  0  0  0  0  0  0
    1.0491   -6.8434    2.9820 C   0  0  0  0  0  0  0  0  0  0  0  0
    0.0950   -8.8404    3.2292 C   0  0  0  0  0  0  0  0  0  0  0  0
   -0.9173   -8.4596    2.5152 C   0  0  0  0  0  0  0  0  0  0  0  0
   -1.0331   -7.2162    2.0653 C   0  0  0  0  0  0  0  0  0  0  0  0
   -0.0105   -6.3168    2.3081 C   0  0  0  0  0  0  0  0  0  0  0  0
    0.0485   -4.9783    1.8782 C   0  0  0  0  0  0  0  0  0  0  0  0
   -0.6974   -4.6139    0.8644 N   0  0  0  0  0  0  0  0  0  0  0  0
    1.1787   -4.1233    2.1412 O   0  0  0  0  0  0  0  0  0  0  0  0
    0.1715  -10.2834    3.6551 C   0  0  0  0  0  0  0  0  0  0  0  0
   -1.0505  -10.9656    3.7969 C   0  0  0  0  0  0  0  0  0  0  0  0
    1.3456  -10.8248    4.3217 C   0  0  0  0  0  0  0  0  0  0  0  0
    1.4822  -12.1393    4.4398 C   0  0  0  0  0  0  0  0  0  0  0  0
   -0.9575  -12.3366    3.9989 C   0  0  0  0  0  0  0  0  0  0  0  0
    0.3653  -12.9390    4.2288 C   0  0  0  0  0  0  0  0  0  0  0  0
    0.9788   -2.9762    2.1776 C   0  0  0  0  0  0  0  0  0  0  0  0
   -0.4713   -3.2518    0.4953 C   0  0  0  0  0  0  0  0  0  0  0  0
  6  7  1  0
  7  8  2  3
  7  9  1  0
  3 10  1  0
  9 16  1  0
  8 17  1  0
  1  2  2  0
  2  6  1  0
  5  6  2  0
  4  5  1  0
  3  4  2  0
  1  3  1  0
 10 11  2  0
 11 14  1  0
 14 15  2  0
 13 15  1  0
 12 13  2  0
 10 12  1  0
M  END

$$$$
No_4975-/export/home/yangzhenyu/potential_scad_32_flow//YTHDC2/2024-12-06-03-22-00/
     RDKit          3D

 20 22  0  0  0  0  0  0  0  0999 V2000
    1.1787   -8.0297    3.5154 N   0  0  0  0  0  0  0  0  0  0  0  0
    0.8669   -7.0905    2.8589 C   0  0  1  0  0  0  0  0  0  0  0  0
    0.8842   -5.8387    3.2677 C   0  0  0  0  0  0  0  0  0  0  0  0
    1.2819   -9.4050    3.1259 C   0  0  0  0  0  0  0  0  0  0  0  0
    1.6244  -10.3515    4.1878 C   0  0  0  0  0  0  0  0  0  0  0  0
    1.6237  -11.7221    3.9802 C   0  0  0  0  0  0  0  0  0  0  0  0
    1.2204  -12.1882    2.7068 C   0  0  0  0  0  0  0  0  0  0  0  0
    1.0191  -11.2853    1.7108 C   0  0  0  0  0  0  0  0  0  0  0  0
    1.0929   -9.9210    1.9465 C   0  0  0  0  0  0  0  0  0  0  0  0
    0.3789   -4.8075    2.3397 C   0  0  0  0  0  0  0  0  0  0  0  0
    0.0745   -5.1895    1.0755 C   0  0  0  0  0  0  0  0  0  0  0  0
    0.5555   -6.9643    1.4012 C   0  0  0  0  0  0  0  0  0  0  0  0
    1.2999  -13.5603    2.3875 C   0  0  0  0  0  0  0  0  0  0  0  0
    1.4627  -14.1317    1.1816 C   0  0  0  0  0  0  0  0  0  0  0  0
    0.9002  -14.9975    0.9369 C   0  0  0  0  0  0  0  0  0  0  0  0
    0.3783  -15.9998    1.7333 C   0  0  0  0  0  0  0  0  0  0  0  0
    0.2191  -15.5498    3.0887 C   0  0  0  0  0  0  0  0  0  0  0  0
    0.6491  -14.2937    3.3925 C   0  0  0  0  0  0  0  0  0  0  0  0
    0.1176   -3.4098    2.7013 C   0  0  0  0  0  0  0  0  0  0  0  0
   -0.3986  -16.4233    4.2613 I   0  0  0  0  0  0  0  0  0  0  0  0
  2  1  1  6
  2  3  1  0
  1  4  1  0
  3 10  2  0
 10 11  1  0
  2 12  1  0
 11 12  1  0
  7 13  1  0
 10 19  1  0
 17 20  1  0
 13 14  2  0
 14 15  1  0
 15 16  2  0
 16 17  1  0
 17 18  2  0
 13 18  1  0
  4  5  2  0
  5  6  1  0
  6  7  2  0
  7  8  1  0
  8  9  2  0
  4  9  1  0
M  END

$$$$
No_4976-/export/home/yangzhenyu/potential_scad_32_flow//YTHDC2/2024-12-06-03-22-00/
     RDKit          3D

 19 19  0  0  0  0  0  0  0  0999 V2000
    1.1787   -8.0297    3.5154 C   0  0  0  0  0  0  0  0  0  0  0  0
    1.0491   -6.8434    2.9820 C   0  0  0  0  0  0  0  0  0  0  0  0
    1.9985   -8.9840    2.8958 C   0  0  0  0  0  0  0  0  0  0  0  0
    1.1814  -10.1889    2.5497 C   0  0  0  0  0  0  0  0  0  0  0  0
    0.9817  -11.1388    2.8133 C   0  0  0  0  0  0  0  0  0  0  0  0
    0.2482  -12.1830    2.2948 C   0  0  0  0  0  0  0  0  0  0  0  0
   -0.4070  -11.8506    1.1922 C   0  0  0  0  0  0  0  0  0  0  0  0
   -0.1080  -10.7514    0.4894 C   0  0  0  0  0  0  0  0  0  0  0  0
    0.7055   -9.7894    1.0524 C   0  0  0  0  0  0  0  0  0  0  0  0
    0.9085   -8.5824    0.4191 C   0  0  0  0  0  0  0  0  0  0  0  0
    1.0819   -8.4295   -0.8453 C   0  0  0  0  0  0  0  0  0  0  0  0
    2.2704   -8.6987   -1.3636 O   0  0  0  0  0  0  0  0  0  0  0  0
    0.2062   -8.4678   -1.7745 O   0  0  0  0  0  0  0  0  0  0  0  0
    0.0273  -13.4555    2.9749 C   0  0  0  0  0  0  0  0  0  0  0  0
    1.1893  -14.2339    3.2175 C   0  0  0  0  0  0  0  0  0  0  0  0
    1.3821  -15.4128    2.4291 C   0  0  0  0  0  0  0  0  0  0  0  0
    0.5766  -16.4598    2.7050 C   0  0  0  0  0  0  0  0  0  0  0  0
    1.1058  -17.5684    2.5442 C   0  0  0  0  0  0  0  0  0  0  0  0
    2.4433  -17.7936    1.9594 C   0  0  0  0  0  0  0  0  0  0  0  0
  1  2  1  0
  1  3  1  0
  3  4  1  0
  9 10  1  0
 10 11  1  0
 11 12  1  0
 11 13  2  0
  6 14  1  0
 14 15  1  0
 15 16  1  0
 16 17  1  0
 17 18  2  3
 18 19  1  0
  4  5  2  0
  5  6  1  0
  6  7  2  0
  7  8  1  0
  8  9  2  0
  4  9  1  0
M  END

$$$$
No_4977-/export/home/yangzhenyu/potential_scad_32_flow//YTHDC2/2024-12-06-03-22-00/
     RDKit          3D

 19 21  0  0  0  0  0  0  0  0999 V2000
    1.1787   -8.0297    3.5154 C   0  0  0  0  0  0  0  0  0  0  0  0
    1.0491   -6.8434    2.9820 C   0  0  0  0  0  0  0  0  0  0  0  0
    0.0950   -8.8404    3.2292 C   0  0  0  0  0  0  0  0  0  0  0  0
    0.0602  -10.1764    3.8231 C   0  0  0  0  0  0  0  0  0  0  0  0
    0.2248   -6.3830    2.0648 C   0  0  0  0  0  0  0  0  0  0  0  0
   -0.6745   -7.2322    1.6857 C   0  0  0  0  0  0  0  0  0  0  0  0
   -0.7374   -8.4992    2.1291 C   0  0  0  0  0  0  0  0  0  0  0  0
   -1.2197  -10.6611    4.0385 C   0  0  0  0  0  0  0  0  0  0  0  0
   -2.2122  -10.2766    3.1435 C   0  0  0  0  0  0  0  0  0  0  0  0
   -2.0039   -9.1685    2.3316 C   0  0  0  0  0  0  0  0  0  0  0  0
    0.3313   -4.9845    1.2380 Cl  0  0  0  0  0  0  0  0  0  0  0  0
   -3.4316  -10.9568    3.0788 C   0  0  0  0  0  0  0  0  0  0  0  0
   -4.4175  -10.5422    3.8448 C   0  0  0  0  0  0  0  0  0  0  0  0
   -5.5603  -11.3621    3.9550 C   0  0  0  0  0  0  0  0  0  0  0  0
   -5.6637  -12.6129    3.4119 C   0  0  0  0  0  0  0  0  0  0  0  0
   -4.5675  -13.1378    2.7432 C   0  0  0  0  0  0  0  0  0  0  0  0
   -3.4319  -12.3708    2.6251 C   0  0  0  0  0  0  0  0  0  0  0  0
   -2.3332  -12.7935    1.8575 C   0  0  0  0  0  0  0  0  0  0  0  0
   -2.1087  -12.3714    0.5626 C   0  0  0  0  0  0  0  0  0  0  0  0
  5 11  1  0
  9 12  1  0
 17 18  1  0
 18 19  1  0
 12 13  2  0
 13 14  1  0
 14 15  2  0
 15 16  1  0
 16 17  2  0
 12 17  1  0
  1  2  2  0
  2  5  1  0
  5  6  2  0
  6  7  1  0
  1  3  1  0
  3  4  2  0
  4  8  1  0
  8  9  2  0
  9 10  1  0
  7 10  2  0
  3  7  1  0
M  END

$$$$
No_4978-/export/home/yangzhenyu/potential_scad_32_flow//YTHDC2/2024-12-06-03-22-00/
     RDKit          3D

 17 18  0  0  0  0  0  0  0  0999 V2000
    1.1787   -8.0297    3.5154 C   0  0  0  0  0  0  0  0  0  0  0  0
    1.1048   -9.2215    3.2892 C   0  0  0  0  0  0  0  0  0  0  0  0
    1.3627  -10.1721    4.3044 C   0  0  0  0  0  0  0  0  0  0  0  0
    1.0682  -11.5187    4.0618 C   0  0  0  0  0  0  0  0  0  0  0  0
    0.6332  -11.9655    2.9682 C   0  0  0  0  0  0  0  0  0  0  0  0
    0.6698  -11.3145    2.0035 C   0  0  0  0  0  0  0  0  0  0  0  0
    0.9069   -9.8966    2.0084 C   0  0  0  0  0  0  0  0  0  0  0  0
    1.0124   -7.0534    2.4581 C   0  0  0  0  0  0  0  0  0  0  0  0
    0.9325   -7.6170    1.1269 C   0  0  0  0  0  0  0  0  0  0  0  0
    0.8653   -8.9137    0.9167 C   0  0  0  0  0  0  0  0  0  0  0  0
    0.6872   -9.3286   -0.3265 C   0  0  0  0  0  0  0  0  0  0  0  0
   -0.0680   -8.7809   -1.1853 O   0  0  0  0  0  0  0  0  0  0  0  0
    0.5722  -13.4195    2.7742 C   0  0  0  0  0  0  0  0  0  0  0  0
    1.4574  -14.3620    3.1857 C   0  0  0  0  0  0  0  0  0  0  0  0
    1.2384  -15.7043    3.0579 C   0  0  0  0  0  0  0  0  0  0  0  0
    0.1190  -16.1053    2.5173 C   0  0  0  0  0  0  0  0  0  0  0  0
   -0.7925  -15.3181    2.0255 C   0  0  0  0  0  0  0  0  0  0  0  0
 10 11  1  0
 11 12  2  0
  5 13  1  0
 13 14  1  0
 14 15  2  3
 15 16  1  0
 16 17  2  0
  2  3  1  0
  3  4  2  0
  4  5  1  0
  5  6  2  0
  6  7  1  0
  1  2  2  0
  2  7  1  0
  7 10  2  0
  9 10  1  0
  8  9  2  0
  1  8  1  0
M  END

$$$$
No_4979-/export/home/yangzhenyu/potential_scad_32_flow//YTHDC2/2024-12-06-03-22-00/
     RDKit          3D

 19 21  0  0  0  0  0  0  0  0999 V2000
    1.1787   -8.0297    3.5154 C   0  0  0  0  0  0  0  0  0  0  0  0
    1.0491   -6.8434    2.9820 C   0  0  0  0  0  0  0  0  0  0  0  0
    0.9905   -9.0774    2.6527 C   0  0  0  0  0  0  0  0  0  0  0  0
    0.7897   -8.9519    1.3691 C   0  0  0  0  0  0  0  0  0  0  0  0
    0.6550  -10.0985    0.4848 C   0  0  0  0  0  0  0  0  0  0  0  0
    0.7849   -6.5836    1.6043 C   0  0  0  0  0  0  0  0  0  0  0  0
    0.6652   -7.6671    0.8008 C   0  0  0  0  0  0  0  0  0  0  0  0
    1.2441  -11.1828    0.5777 O   0  0  0  0  0  0  0  0  0  0  0  0
   -0.2030  -10.0131   -0.5296 O   0  0  0  0  0  0  0  0  0  0  0  0
    1.2204  -10.4450    3.2012 N   0  0  0  0  0  0  0  0  0  0  0  0
    1.4567  -10.8117    4.3223 C   0  0  0  0  0  0  0  0  0  0  0  0
    1.7414  -12.1965    4.4036 C   0  0  0  0  0  0  0  0  0  0  0  0
    1.1910  -12.8806    3.0921 C   0  0  0  0  0  0  0  0  0  0  0  0
    0.7066  -13.7636    3.1571 C   0  0  0  0  0  0  0  0  0  0  0  0
    0.2322  -14.4160    1.8840 C   0  0  0  0  0  0  0  0  0  0  0  0
    0.3772  -13.5381    0.9611 C   0  0  0  0  0  0  0  0  0  0  0  0
    0.8837  -12.4267    0.9682 C   0  0  0  0  0  0  0  0  0  0  0  0
    1.3313  -12.0100    2.0850 N   0  0  0  0  0  0  0  0  0  0  0  0
    0.6071   -5.1718    1.0268 O   0  0  0  0  0  0  0  0  0  0  0  0
  4  5  1  0
  5  8  1  0
  5  9  2  0
  3 10  1  0
 10 11  1  0
 11 12  1  0
 12 13  1  0
  8 17  1  0
  6 19  1  0
 13 14  1  0
 14 15  2  0
 15 16  1  0
 16 17  2  0
 17 18  1  0
 13 18  2  0
  1  2  2  0
  2  6  1  0
  6  7  2  0
  4  7  1  0
  3  4  2  0
  1  3  1  0
M  END

$$$$
No_4980-/export/home/yangzhenyu/potential_scad_32_flow//YTHDC2/2024-12-06-03-22-00/
     RDKit          3D

 19 21  0  0  0  0  0  0  0  0999 V2000
    1.1787   -8.0297    3.5154 C   0  0  0  0  0  0  0  0  0  0  0  0
    1.1048   -9.2215    3.2892 C   0  0  0  0  0  0  0  0  0  0  0  0
    1.2339   -9.7611    2.0189 C   0  0  0  0  0  0  0  0  0  0  0  0
    1.1954  -11.2312    1.8661 C   0  0  0  0  0  0  0  0  0  0  0  0
    1.2996  -11.5815    0.5387 C   0  0  0  0  0  0  0  0  0  0  0  0
    1.3263   -7.1208    2.3229 C   0  0  0  0  0  0  0  0  0  0  0  0
    1.3693   -7.6408    1.0625 C   0  0  0  0  0  0  0  0  0  0  0  0
    1.4358   -8.9950    0.8622 C   0  0  0  0  0  0  0  0  0  0  0  0
    1.1800  -13.0763    0.6448 C   0  0  0  0  0  0  0  0  0  0  0  0
    1.0518  -12.1823    2.6382 C   0  0  0  0  0  0  0  0  0  0  0  0
    1.0004  -13.4591    2.5584 C   0  0  0  0  0  0  0  0  0  0  0  0
    0.7942  -14.3693    3.7513 C   0  0  0  0  0  0  0  0  0  0  0  0
    1.0308  -13.8407    1.3160 C   0  0  0  0  0  0  0  0  0  0  0  0
    1.3268   -5.5262    2.5389 C   0  0  0  0  0  0  0  0  0  0  0  0
    1.0697  -15.7248    3.2672 C   0  0  0  0  0  0  0  0  0  0  0  0
    1.2195  -16.1440    1.9691 C   0  0  0  0  0  0  0  0  0  0  0  0
    1.3006  -15.1655    1.0731 C   0  0  0  0  0  0  0  0  0  0  0  0
    1.5232  -17.4811    1.7997 C   0  0  0  0  0  0  0  0  0  0  0  0
    0.8633  -18.2504    0.9666 C   0  0  0  0  0  0  0  0  0  0  0  0
  3  4  1  0
  6 14  1  0
 16 18  1  0
 18 19  2  0
 11 12  1  0
 12 15  2  0
 15 16  1  0
 16 17  2  0
 13 17  1  0
  1  2  2  0
  2  3  1  0
  3  8  2  0
  7  8  1  0
  6  7  2  0
  1  6  1  0
  4  5  2  0
  5  9  1  0
  9 13  2  0
 11 13  1  0
 10 11  2  0
  4 10  1  0
M  END

$$$$
No_4981-/export/home/yangzhenyu/potential_scad_32_flow//YTHDC2/2024-12-06-03-22-00/
     RDKit          3D

 18 18  0  0  0  0  0  0  0  0999 V2000
    1.1787   -8.0297    3.5154 C   0  0  0  0  0  0  0  0  0  0  0  0
    1.0491   -6.8434    2.9820 C   0  0  0  0  0  0  0  0  0  0  0  0
    1.9985   -8.9840    2.8958 C   0  0  2  0  0  0  0  0  0  0  0  0
    1.7297   -9.2108    1.6335 C   0  0  0  0  0  0  0  0  0  0  0  0
    1.7343   -8.0566    0.8408 C   0  0  0  0  0  0  0  0  0  0  0  0
    1.0269   -6.8892    1.4456 C   0  0  0  0  0  0  0  0  0  0  0  0
    2.0740   -7.9416   -0.3682 O   0  0  0  0  0  0  0  0  0  0  0  0
    2.2757  -10.2253    3.6437 C   0  0  0  0  0  0  0  0  0  0  0  0
    1.5555  -11.3890    3.5635 N   0  0  0  0  0  0  0  0  0  0  0  0
    2.0085  -12.5638    3.5061 C   0  0  0  0  0  0  0  0  0  0  0  0
    1.4512  -13.4536    2.5374 C   0  0  0  0  0  0  0  0  0  0  0  0
    0.4218  -12.9567    1.8743 C   0  0  0  0  0  0  0  0  0  0  0  0
   -0.1027  -13.9763    1.0030 C   0  0  0  0  0  0  0  0  0  0  0  0
    0.4201  -15.1202    0.6523 Cl  0  0  0  0  0  0  0  0  0  0  0  0
   -1.4719  -13.4252    0.2917 C   0  0  2  0  0  0  0  0  0  0  0  0
   -2.4960  -14.1559    0.2340 N   0  0  0  0  0  0  0  0  0  0  0  0
   -1.3872  -12.1353   -0.2906 C   0  0  0  0  0  0  0  0  0  0  0  0
   -0.4413  -11.3547   -0.4816 C   0  0  0  0  0  0  0  0  0  0  0  0
  1  2  1  0
  1  3  1  0
  3  4  1  0
  4  5  1  0
  2  6  1  0
  5  6  1  0
  5  7  2  0
  3  8  1  1
  8  9  1  0
  9 10  1  0
 10 11  1  0
 11 12  1  0
 12 13  2  3
 13 14  1  0
 13 15  1  0
 15 16  1  6
 15 17  1  0
 17 18  2  0
M  END

$$$$
No_4982-/export/home/yangzhenyu/potential_scad_32_flow//YTHDC2/2024-12-06-03-22-00/
     RDKit          3D

 17 17  0  0  0  0  0  0  0  0999 V2000
    1.1787   -8.0297    3.5154 C   0  0  0  0  0  0  0  0  0  0  0  0
    1.1048   -9.2215    3.2892 C   0  0  0  0  0  0  0  0  0  0  0  0
    1.2339   -9.7611    2.0189 C   0  0  0  0  0  0  0  0  0  0  0  0
    1.3583   -9.0036    0.9764 C   0  0  0  0  0  0  0  0  0  0  0  0
    1.5996   -7.6362    1.1311 C   0  0  0  0  0  0  0  0  0  0  0  0
    1.4830   -7.0928    2.3626 C   0  0  0  0  0  0  0  0  0  0  0  0
    1.4898   -5.7274    2.6199 C   0  0  0  0  0  0  0  0  0  0  0  0
    1.1681  -11.2222    1.8390 C   0  0  0  0  0  0  0  0  0  0  0  0
    0.7145  -11.5870    0.5424 O   0  0  0  0  0  0  0  0  0  0  0  0
    1.6537  -12.0580    2.6183 P   0  0  0  0  0  0  0  0  0  0  0  0
    2.0967  -13.3939    1.8680 O   0  0  0  0  0  0  0  0  0  0  0  0
    0.5667  -12.7343    3.6139 O   0  0  0  0  0  0  0  0  0  0  0  0
    1.6996   -5.1783    3.8626 O   0  0  0  0  0  0  0  0  0  0  0  0
    1.3312   -4.8281    1.6719 O   0  0  0  0  0  0  0  0  0  0  0  0
    2.8832  -11.6569    3.5930 O   0  0  0  0  0  0  0  0  0  0  0  0
    1.6202   -9.4445   -0.5805 C   0  0  0  0  0  0  0  0  0  0  0  0
    0.4834   -9.3950   -1.1595 O   0  0  0  0  0  0  0  0  0  0  0  0
  6  7  1  0
  3  8  1  0
  8  9  2  0
  8 10  1  0
 10 11  2  0
 10 12  1  0
  7 13  1  0
  7 14  2  0
 10 15  1  0
  4 16  1  0
 16 17  1  0
  1  2  2  0
  2  3  1  0
  3  4  2  0
  4  5  1  0
  5  6  2  0
  1  6  1  0
M  END

$$$$
No_4983-/export/home/yangzhenyu/potential_scad_32_flow//YTHDC2/2024-12-06-03-22-00/
     RDKit          3D

 19 20  0  0  0  0  0  0  0  0999 V2000
    1.1787   -8.0297    3.5154 C   0  0  0  0  0  0  0  0  0  0  0  0
    1.0491   -6.8434    2.9820 C   0  0  0  0  0  0  0  0  0  0  0  0
    0.0950   -8.8404    3.2292 C   0  0  0  0  0  0  0  0  0  0  0  0
   -0.9173   -8.4596    2.5152 C   0  0  0  0  0  0  0  0  0  0  0  0
   -1.0331   -7.2162    2.0653 C   0  0  0  0  0  0  0  0  0  0  0  0
   -0.0105   -6.3168    2.3081 C   0  0  0  0  0  0  0  0  0  0  0  0
    0.1465  -10.2446    3.6981 C   0  0  0  0  0  0  0  0  0  0  0  0
    1.2433  -10.8239    4.0166 C   0  0  0  0  0  0  0  0  0  0  0  0
    1.1033  -12.2936    4.0346 C   0  0  0  0  0  0  0  0  0  0  0  0
    0.0220  -12.9035    3.7006 C   0  0  0  0  0  0  0  0  0  0  0  0
   -1.0373  -12.2681    3.2608 C   0  0  0  0  0  0  0  0  0  0  0  0
   -1.0058  -10.9076    3.2655 C   0  0  0  0  0  0  0  0  0  0  0  0
   -0.1246   -5.0088    1.8408 O   0  0  0  0  0  0  0  0  0  0  0  0
   -0.8634   -4.5707    1.0080 C   0  0  0  0  0  0  0  0  0  0  0  0
    0.0856  -14.3104    3.7287 O   0  0  0  0  0  0  0  0  0  0  0  0
    0.3941  -15.0437    2.6181 C   0  0  0  0  0  0  0  0  0  0  0  0
    0.8332  -14.4353    1.5708 C   0  0  0  0  0  0  0  0  0  0  0  0
    2.2653  -14.2871    1.5859 C   0  0  0  0  0  0  0  0  0  0  0  0
    2.7928  -13.4479    0.6325 C   0  0  0  0  0  0  0  0  0  0  0  0
  3  7  1  0
  6 13  1  0
 13 14  1  0
 10 15  1  0
 15 16  1  0
 16 17  1  0
 17 18  1  0
 18 19  2  0
  1  2  2  0
  2  6  1  0
  5  6  2  0
  4  5  1  0
  3  4  2  0
  1  3  1  0
  7  8  2  0
  8  9  1  0
  9 10  2  0
 10 11  1  0
 11 12  2  0
  7 12  1  0
M  END

$$$$
No_4984-/export/home/yangzhenyu/potential_scad_32_flow//YTHDC2/2024-12-06-03-22-00/
     RDKit          3D

 18 20  0  0  0  0  0  0  0  0999 V2000
    1.1787   -8.0297    3.5154 C   0  0  0  0  0  0  0  0  0  0  0  0
    1.0491   -6.8434    2.9820 C   0  0  0  0  0  0  0  0  0  0  0  0
    0.0950   -8.8404    3.2292 C   0  0  0  0  0  0  0  0  0  0  0  0
   -0.9173   -8.4596    2.5152 C   0  0  0  0  0  0  0  0  0  0  0  0
   -1.0331   -7.2162    2.0653 C   0  0  0  0  0  0  0  0  0  0  0  0
   -0.0105   -6.3168    2.3081 C   0  0  0  0  0  0  0  0  0  0  0  0
    0.1465  -10.2446    3.6981 C   0  0  0  0  0  0  0  0  0  0  0  0
   -1.0336  -10.8619    3.9439 C   0  0  0  0  0  0  0  0  0  0  0  0
   -2.1702  -10.4673    3.2991 C   0  0  0  0  0  0  0  0  0  0  0  0
   -2.1358   -9.2084    2.5791 C   0  0  0  0  0  0  0  0  0  0  0  0
   -3.3468  -11.1306    3.2649 C   0  0  0  0  0  0  0  0  0  0  0  0
   -0.0136   -4.7695    1.7346 F   0  0  0  0  0  0  0  0  0  0  0  0
   -4.3701  -10.7716    4.0487 C   0  0  0  0  0  0  0  0  0  0  0  0
   -5.4868  -11.7024    4.3044 C   0  0  0  0  0  0  0  0  0  0  0  0
   -5.4493  -12.9937    3.8133 C   0  0  0  0  0  0  0  0  0  0  0  0
   -4.3671  -13.4443    3.1024 C   0  0  0  0  0  0  0  0  0  0  0  0
   -3.2835  -12.5900    2.8508 C   0  0  0  0  0  0  0  0  0  0  0  0
   -4.3052  -14.6937    2.5458 C   0  0  0  0  0  0  0  0  0  0  0  0
  9 11  1  0
  6 12  1  0
 16 18  1  0
  4 10  2  0
  9 10  1  0
  8  9  2  0
  7  8  1  0
  3  7  2  0
  1  2  2  0
  2  6  1  0
  5  6  2  0
  4  5  1  0
  3  4  1  0
  1  3  1  0
 11 13  2  0
 13 14  1  0
 14 15  2  0
 15 16  1  0
 16 17  2  0
 11 17  1  0
M  END

$$$$
No_4985-/export/home/yangzhenyu/potential_scad_32_flow//YTHDC2/2024-12-06-03-22-00/
     RDKit          3D

 18 18  0  0  0  0  0  0  0  0999 V2000
    1.1787   -8.0297    3.5154 C   0  0  0  0  0  0  0  0  0  0  0  0
    1.1048   -9.2215    3.2892 C   0  0  0  0  0  0  0  0  0  0  0  0
    1.0239   -9.7790    2.0239 C   0  0  0  0  0  0  0  0  0  0  0  0
    1.1393   -9.0211    0.9686 C   0  0  0  0  0  0  0  0  0  0  0  0
    1.4051   -7.6500    1.1251 C   0  0  0  0  0  0  0  0  0  0  0  0
    1.4868   -7.1041    2.3534 C   0  0  0  0  0  0  0  0  0  0  0  0
    0.9659  -10.1420    4.4543 C   0  0  0  0  0  0  0  0  0  0  0  0
   -0.2019  -11.0061    4.5153 C   0  0  0  0  0  0  0  0  0  0  0  0
   -0.0888  -12.2927    4.1280 N   0  0  0  0  0  0  0  0  0  0  0  0
   -1.3837  -10.3794    4.6569 O   0  0  0  0  0  0  0  0  0  0  0  0
    1.1637   -9.4840   -0.3633 C   0  0  0  0  0  0  0  0  0  0  0  0
    1.9733   -9.2952   -1.2509 O   0  0  0  0  0  0  0  0  0  0  0  0
   -0.0244   -9.9479   -0.8025 O   0  0  0  0  0  0  0  0  0  0  0  0
    1.0541  -12.8528    3.7348 C   0  0  0  0  0  0  0  0  0  0  0  0
    0.9362  -13.7637    2.6242 C   0  0  0  0  0  0  0  0  0  0  0  0
    2.0540  -14.5568    2.3520 O   0  0  0  0  0  0  0  0  0  0  0  0
    2.5525  -14.5614    1.1453 C   0  0  0  0  0  0  0  0  0  0  0  0
    1.6186  -13.7929    0.3678 C   0  0  0  0  0  0  0  0  0  0  0  0
  2  7  1  0
  7  8  1  0
  8  9  1  0
  8 10  2  0
  4 11  1  0
 11 12  2  0
 11 13  1  0
  9 14  1  0
 14 15  1  0
 15 16  1  0
 16 17  1  0
 17 18  2  0
  1  2  2  0
  2  3  1  0
  3  4  2  0
  4  5  1  0
  5  6  2  0
  1  6  1  0
M  END

$$$$
No_4986-/export/home/yangzhenyu/potential_scad_32_flow//YTHDC2/2024-12-06-03-22-00/
     RDKit          3D

 18 18  0  0  0  0  0  0  0  0999 V2000
    1.1787   -8.0297    3.5154 C   0  0  2  0  0  0  0  0  0  0  0  0
    1.1048   -9.2215    3.2892 C   0  0  0  0  0  0  0  0  0  0  0  0
    1.2339   -9.7611    2.0189 C   0  0  0  0  0  0  0  0  0  0  0  0
    1.1954  -11.2312    1.8661 C   0  0  0  0  0  0  0  0  0  0  0  0
    1.2996  -11.5815    0.5387 C   0  0  0  0  0  0  0  0  0  0  0  0
    0.9523   -7.0603    4.0246 C   0  0  0  0  0  0  0  0  0  0  0  0
    1.4512  -10.7897   -0.4450 O   0  0  0  0  0  0  0  0  0  0  0  0
    1.2800  -12.9481    0.4337 N   0  0  0  0  0  0  0  0  0  0  0  0
    1.4448   -5.7738    3.7786 C   0  0  0  0  0  0  0  0  0  0  0  0
    2.0151   -5.6403    2.6141 C   0  0  0  0  0  0  0  0  0  0  0  0
    1.8592   -7.0961    2.1535 C   0  0  0  0  0  0  0  0  0  0  0  0
    1.0852  -12.0244    2.9232 C   0  0  0  0  0  0  0  0  0  0  0  0
    2.3278  -12.4932    3.5490 C   0  0  0  0  0  0  0  0  0  0  0  0
    1.8441   -7.3753    0.9664 O   0  0  0  0  0  0  0  0  0  0  0  0
    2.3560  -13.8785    3.1870 C   0  0  0  0  0  0  0  0  0  0  0  0
    1.2325  -14.7052    3.5127 C   0  0  0  0  0  0  0  0  0  0  0  0
    1.2284  -16.0981    3.0750 C   0  0  0  0  0  0  0  0  0  0  0  0
    2.2845  -16.5761    2.4903 C   0  0  0  0  0  0  0  0  0  0  0  0
  1  2  1  6
  2  3  2  3
  3  4  1  0
  4  5  1  0
  1  6  1  0
  5  7  2  0
  5  8  1  0
  6  9  2  0
  9 10  1  0
  1 11  1  0
 10 11  1  0
  4 12  1  0
 12 13  1  0
 11 14  2  0
 13 15  1  0
 15 16  1  0
 16 17  2  3
 17 18  1  0
M  END

$$$$
No_4987-/export/home/yangzhenyu/potential_scad_32_flow//YTHDC2/2024-12-06-03-22-00/
     RDKit          3D

 19 20  0  0  0  0  0  0  0  0999 V2000
    1.1787   -8.0297    3.5154 C   0  0  0  0  0  0  0  0  0  0  0  0
    1.0491   -6.8434    2.9820 C   0  0  0  0  0  0  0  0  0  0  0  0
    1.0690   -9.1150    2.7206 C   0  0  1  0  0  0  0  0  0  0  0  0
    0.9689   -6.6391    1.6260 C   0  0  0  0  0  0  0  0  0  0  0  0
    0.9670   -9.0334    1.3824 C   0  0  0  0  0  0  0  0  0  0  0  0
    0.8189   -7.7113    0.8022 C   0  0  0  0  0  0  0  0  0  0  0  0
    1.2122  -10.5176    3.2445 C   0  0  0  0  0  0  0  0  0  0  0  0
    1.4410  -11.5402    2.6236 C   0  0  0  0  0  0  0  0  0  0  0  0
    1.5422  -12.8118    3.2220 C   0  0  0  0  0  0  0  0  0  0  0  0
    1.6417  -14.0657    2.4455 C   0  0  0  0  0  0  0  0  0  0  0  0
    0.9006   -5.3659    1.0970 O   0  0  0  0  0  0  0  0  0  0  0  0
    1.0679  -14.4351    1.6753 C   0  0  0  0  0  0  0  0  0  0  0  0
   -0.0294  -13.5828    1.2108 C   0  0  0  0  0  0  0  0  0  0  0  0
   -0.5274  -12.6090    1.3155 C   0  0  0  0  0  0  0  0  0  0  0  0
    0.0894  -11.4365    1.9821 C   0  0  0  0  0  0  0  0  0  0  0  0
   -1.7424  -12.1207    0.3230 F   0  0  0  0  0  0  0  0  0  0  0  0
    2.7420  -15.0299    3.2456 O   0  0  0  0  0  0  0  0  0  0  0  0
    0.9175   -7.6429   -0.5167 O   0  0  0  0  0  0  0  0  0  0  0  0
   -0.8204  -14.6021    0.1977 O   0  0  0  0  0  0  0  0  0  0  0  0
  3  1  1  6
  2  4  1  0
  4  6  1  0
  5  6  1  0
  3  7  1  0
  7  8  2  3
  8  9  1  0
  9 10  1  0
  4 11  2  0
 10 12  2  0
 12 13  1  0
 13 14  2  0
  8 15  1  0
 14 15  1  0
 14 16  1  0
 10 17  1  0
  6 18  2  0
 13 19  1  0
  1  2  1  0
  3  5  1  0
M  END

$$$$
No_4988-/export/home/yangzhenyu/potential_scad_32_flow//YTHDC2/2024-12-06-03-22-00/
     RDKit          3D

 20 21  0  0  0  0  0  0  0  0999 V2000
    1.1787   -8.0297    3.5154 C   0  0  0  0  0  0  0  0  0  0  0  0
    1.1048   -9.2215    3.2892 C   0  0  0  0  0  0  0  0  0  0  0  0
    1.0239   -9.7790    2.0239 C   0  0  0  0  0  0  0  0  0  0  0  0
    1.0632  -11.2393    1.8978 C   0  0  0  0  0  0  0  0  0  0  0  0
    1.2664   -7.1133    2.3309 C   0  0  0  0  0  0  0  0  0  0  0  0
    1.2080   -7.6832    1.0760 C   0  0  0  0  0  0  0  0  0  0  0  0
    1.1535   -8.9837    0.8897 C   0  0  0  0  0  0  0  0  0  0  0  0
    1.5434  -12.1192    2.7356 C   0  0  0  0  0  0  0  0  0  0  0  0
    1.4960  -13.4804    2.4774 C   0  0  0  0  0  0  0  0  0  0  0  0
    0.9784  -14.0090    1.4059 C   0  0  0  0  0  0  0  0  0  0  0  0
    0.5177  -13.1808    0.4753 C   0  0  0  0  0  0  0  0  0  0  0  0
    0.5445  -11.8006    0.6518 C   0  0  0  0  0  0  0  0  0  0  0  0
    1.3925   -9.3039   -0.2625 C   0  0  0  0  0  0  0  0  0  0  0  0
    1.7843   -8.6653   -1.2068 O   0  0  0  0  0  0  0  0  0  0  0  0
    2.0685  -14.3908    3.4732 C   0  0  0  0  0  0  0  0  0  0  0  0
    1.2233   -5.4543    2.5485 Cl  0  0  0  0  0  0  0  0  0  0  0  0
    1.8902  -15.8238    2.9968 O   0  0  0  0  0  0  0  0  0  0  0  0
    2.9219  -16.5244    2.4808 C   0  0  0  0  0  0  0  0  0  0  0  0
    2.7251  -17.8648    2.4791 C   0  0  0  0  0  0  0  0  0  0  0  0
    1.8442  -18.2451    3.3102 C   0  0  0  0  0  0  0  0  0  0  0  0
  3  4  1  0
  7 13  1  0
 13 14  2  0
  9 15  1  0
  5 16  1  0
 15 17  1  0
 17 18  1  0
 18 19  1  0
 19 20  1  0
  4  8  2  0
  8  9  1  0
  9 10  2  0
 10 11  1  0
 11 12  2  0
  4 12  1  0
  1  2  2  0
  2  3  1  0
  3  7  2  0
  6  7  1  0
  5  6  2  0
  1  5  1  0
M  END

$$$$
No_4989-/export/home/yangzhenyu/potential_scad_32_flow//YTHDC2/2024-12-06-03-22-00/
     RDKit          3D

 16 16  0  0  0  0  0  0  0  0999 V2000
    1.1787   -8.0297    3.5154 C   0  0  0  0  0  0  0  0  0  0  0  0
    1.1048   -9.2215    3.2892 C   0  0  0  0  0  0  0  0  0  0  0  0
    1.3627  -10.1721    4.3044 C   0  0  0  0  0  0  0  0  0  0  0  0
    1.7354  -11.4730    3.9023 C   0  0  0  0  0  0  0  0  0  0  0  0
    1.8080  -11.8127    2.7216 C   0  0  0  0  0  0  0  0  0  0  0  0
    1.5854  -11.0021    1.7249 C   0  0  0  0  0  0  0  0  0  0  0  0
    1.3573   -9.7389    1.9287 C   0  0  0  0  0  0  0  0  0  0  0  0
    1.1102   -8.8712    0.9017 C   0  0  0  0  0  0  0  0  0  0  0  0
    1.5724   -9.1697   -0.3048 C   0  0  0  0  0  0  0  0  0  0  0  0
    1.2378   -8.2159   -1.4226 O   0  0  0  0  0  0  0  0  0  0  0  0
    2.0610  -13.2069    2.3284 C   0  0  0  0  0  0  0  0  0  0  0  0
    1.9011  -14.2479    3.1770 Cl  0  0  0  0  0  0  0  0  0  0  0  0
    2.9509  -13.3083    1.2604 O   0  0  0  0  0  0  0  0  0  0  0  0
    2.2883   -7.2042    3.5757 N   0  0  0  0  0  0  0  0  0  0  0  0
   -0.0027   -7.3427    3.6323 O   0  0  0  0  0  0  0  0  0  0  0  0
    2.4085  -10.0510   -0.6382 O   0  0  0  0  0  0  0  0  0  0  0  0
  1  2  1  0
  7  8  1  0
  8  9  2  3
  9 10  1  0
  5 11  1  0
 11 12  1  0
 11 13  2  0
  1 14  1  0
  1 15  2  0
  9 16  1  0
  2  3  2  0
  3  4  1  0
  4  5  2  0
  5  6  1  0
  6  7  2  0
  2  7  1  0
M  END

$$$$
No_4990-/export/home/yangzhenyu/potential_scad_32_flow//YTHDC2/2024-12-06-03-22-00/
     RDKit          3D

 18 19  0  0  0  0  0  0  0  0999 V2000
    1.1787   -8.0297    3.5154 C   0  0  0  0  0  0  0  0  0  0  0  0
    1.0491   -6.8434    2.9820 C   0  0  0  0  0  0  0  0  0  0  0  0
    1.9985   -8.9840    2.8958 C   0  0  0  0  0  0  0  0  0  0  0  0
    1.7297   -9.2108    1.6335 C   0  0  2  0  0  0  0  0  0  0  0  0
    2.1788  -10.5482    1.1239 C   0  0  0  0  0  0  0  0  0  0  0  0
    0.8226   -6.9903    1.4377 C   0  0  0  0  0  0  0  0  0  0  0  0
    1.5914   -8.1153    0.8208 C   0  0  0  0  0  0  0  0  0  0  0  0
    2.3898  -10.7430   -0.0922 N   0  0  0  0  0  0  0  0  0  0  0  0
    2.1868  -11.6313    1.9209 N   0  0  0  0  0  0  0  0  0  0  0  0
    1.6364   -8.1471   -0.4869 O   0  0  0  0  0  0  0  0  0  0  0  0
    1.8843  -12.8332    1.3481 C   0  0  0  0  0  0  0  0  0  0  0  0
    0.8312  -12.9981    0.7912 C   0  0  0  0  0  0  0  0  0  0  0  0
    0.6405  -14.3702    0.3391 C   0  0  0  0  0  0  0  0  0  0  0  0
   -0.5511  -14.4499   -0.4764 C   0  0  0  0  0  0  0  0  0  0  0  0
   -1.3582  -13.4185   -0.6946 C   0  0  0  0  0  0  0  0  0  0  0  0
   -1.0733  -12.1560   -0.2802 C   0  0  0  0  0  0  0  0  0  0  0  0
    0.0855  -11.9148    0.4961 C   0  0  0  0  0  0  0  0  0  0  0  0
   -2.4653  -13.6201   -1.5292 O   0  0  0  0  0  0  0  0  0  0  0  0
  1  2  1  0
  1  3  1  0
  3  4  1  0
  4  5  1  6
  2  6  1  0
  4  7  1  0
  6  7  1  0
  5  8  2  0
  5  9  1  0
  7 10  2  0
  9 11  1  0
 15 18  1  0
 11 12  1  0
 12 13  2  0
 13 14  1  0
 14 15  2  0
 15 16  1  0
 16 17  2  0
 12 17  1  0
M  END

$$$$
No_4991-/export/home/yangzhenyu/potential_scad_32_flow//YTHDC2/2024-12-06-03-22-00/
     RDKit          3D

 18 19  0  0  0  0  0  0  0  0999 V2000
    1.1787   -8.0297    3.5154 N   0  0  0  0  0  0  0  0  0  0  0  0
    1.0818   -9.0751    3.2053 C   0  0  0  0  0  0  0  0  0  0  0  0
    0.7576   -9.3725    1.9159 C   0  0  0  0  0  0  0  0  0  0  0  0
    0.7445  -10.8746    1.6491 C   0  0  0  0  0  0  0  0  0  0  0  0
    0.9910  -11.7526    2.6067 C   0  0  0  0  0  0  0  0  0  0  0  0
    1.4405  -11.4331    3.8064 C   0  0  0  0  0  0  0  0  0  0  0  0
    1.4304  -10.0463    4.1669 C   0  0  0  0  0  0  0  0  0  0  0  0
    1.1410   -6.8244    2.7961 C   0  0  0  0  0  0  0  0  0  0  0  0
    1.2073   -5.5154    3.2332 O   0  0  0  0  0  0  0  0  0  0  0  0
    1.2572   -6.8432    1.3345 O   0  0  0  0  0  0  0  0  0  0  0  0
    0.9659  -13.1976    2.3346 C   0  0  0  0  0  0  0  0  0  0  0  0
    1.8313  -14.0472    2.6288 N   0  0  0  0  0  0  0  0  0  0  0  0
    1.7639  -15.3551    2.3770 C   0  0  0  0  0  0  0  0  0  0  0  0
    0.7681  -16.0396    2.8246 C   0  0  0  0  0  0  0  0  0  0  0  0
    0.6122  -17.4344    2.7781 C   0  0  0  0  0  0  0  0  0  0  0  0
    1.7068  -18.1165    2.2520 C   0  0  0  0  0  0  0  0  0  0  0  0
    2.8698  -17.4351    1.8416 C   0  0  0  0  0  0  0  0  0  0  0  0
    2.9766  -16.0643    2.0213 C   0  0  0  0  0  0  0  0  0  0  0  0
  1  2  1  0
  1  8  2  3
  8  9  1  0
  8 10  1  0
  5 11  1  0
 11 12  1  0
 12 13  1  0
  2  3  2  0
  3  4  1  0
  4  5  2  0
  5  6  1  0
  6  7  2  0
  2  7  1  0
 13 14  2  0
 14 15  1  0
 15 16  2  0
 16 17  1  0
 17 18  2  0
 13 18  1  0
M  END

$$$$
No_4992-/export/home/yangzhenyu/potential_scad_32_flow//YTHDC2/2024-12-06-03-22-00/
     RDKit          3D

 17 17  0  0  0  0  0  0  0  0999 V2000
    1.1787   -8.0297    3.5154 N   0  0  0  0  0  0  0  0  0  0  0  0
    0.8669   -7.0905    2.8589 C   0  0  1  0  0  0  0  0  0  0  0  0
    0.8842   -5.8387    3.2677 C   0  0  2  0  0  0  0  0  0  0  0  0
    1.2042   -9.3413    3.1417 C   0  0  0  0  0  0  0  0  0  0  0  0
    0.8983   -9.6945    2.0312 C   0  0  0  0  0  0  0  0  0  0  0  0
    0.6624   -8.8782    1.1335 C   0  0  1  0  0  0  0  0  0  0  0  0
    0.6671   -7.5230    1.3950 C   0  0  0  0  0  0  0  0  0  0  0  0
    0.2205   -6.5794    0.5390 O   0  0  0  0  0  0  0  0  0  0  0  0
    1.6449  -10.3530    4.2421 C   0  0  0  0  0  0  0  0  0  0  0  0
    0.8091  -11.5911    4.3001 O   0  0  0  0  0  0  0  0  0  0  0  0
   -0.2121   -5.0322    3.1649 C   0  0  0  0  0  0  0  0  0  0  0  0
   -1.4376   -5.5348    3.3165 C   0  0  0  0  0  0  0  0  0  0  0  0
   -0.0583   -3.6138    3.0502 C   0  0  0  0  0  0  0  0  0  0  0  0
    2.6969  -10.2780    4.9821 O   0  0  0  0  0  0  0  0  0  0  0  0
    2.1463   -5.2846    3.5936 C   0  0  0  0  0  0  0  0  0  0  0  0
    0.4393   -9.2701   -0.3110 C   0  0  0  0  0  0  0  0  0  0  0  0
   -0.7510   -9.7950   -0.4983 O   0  0  0  0  0  0  0  0  0  0  0  0
  2  1  1  6
  2  3  1  0
  4  5  1  0
  2  7  1  0
  6  7  1  0
  7  8  2  0
  4  9  1  0
  9 10  1  0
  3 11  1  0
 11 12  1  0
 11 13  1  0
  9 14  2  0
  3 15  1  6
  6 16  1  6
 16 17  2  0
  1  4  1  0
  5  6  1  0
M  END

$$$$
No_4993-/export/home/yangzhenyu/potential_scad_32_flow//YTHDC2/2024-12-06-03-22-00/
     RDKit          3D

 18 18  0  0  0  0  0  0  0  0999 V2000
    1.1787   -8.0297    3.5154 C   0  0  0  0  0  0  0  0  0  0  0  0
    1.1048   -9.2215    3.2892 C   0  0  0  0  0  0  0  0  0  0  0  0
    1.2339   -9.7611    2.0189 C   0  0  0  0  0  0  0  0  0  0  0  0
    1.3583   -9.0036    0.9764 C   0  0  0  0  0  0  0  0  0  0  0  0
    1.5996   -7.6362    1.1311 C   0  0  0  0  0  0  0  0  0  0  0  0
    1.4830   -7.0928    2.3626 C   0  0  0  0  0  0  0  0  0  0  0  0
    1.1008  -11.2372    1.8542 C   0  0  1  0  0  0  0  0  0  0  0  0
    0.4812  -11.6084    0.6459 C   0  0  0  0  0  0  0  0  0  0  0  0
   -0.6166  -12.2864    0.7859 I   0  0  0  0  0  0  0  0  0  0  0  0
    1.5639   -5.6607    2.6742 Cl  0  0  0  0  0  0  0  0  0  0  0  0
    2.0227  -11.9805    2.5166 C   0  0  0  0  0  0  0  0  0  0  0  0
    1.8658  -12.1562    3.8529 C   0  0  0  0  0  0  0  0  0  0  0  0
    0.8843  -13.0986    4.0822 O   0  0  0  0  0  0  0  0  0  0  0  0
    2.4807  -11.6284    4.7985 N   0  0  0  0  0  0  0  0  0  0  0  0
    1.5783   -9.3992   -0.3489 O   0  0  0  0  0  0  0  0  0  0  0  0
    3.5454  -10.6801    4.7544 C   0  0  0  0  0  0  0  0  0  0  0  0
    4.3488  -11.1849    5.7773 O   0  0  0  0  0  0  0  0  0  0  0  0
    3.4617   -9.7111    4.5131 O   0  0  0  0  0  0  0  0  0  0  0  0
  3  7  1  0
  7  8  1  6
  8  9  1  0
  6 10  1  0
  7 11  1  0
 11 12  1  0
 12 13  2  0
 12 14  1  0
  4 15  1  0
 14 16  1  0
 16 17  1  0
 16 18  2  0
  1  2  2  0
  2  3  1  0
  3  4  2  0
  4  5  1  0
  5  6  2  0
  1  6  1  0
M  END

$$$$
No_4994-/export/home/yangzhenyu/potential_scad_32_flow//YTHDC2/2024-12-06-03-22-00/
     RDKit          3D

 19 20  0  0  0  0  0  0  0  0999 V2000
    1.1787   -8.0297    3.5154 O   0  0  0  0  0  0  0  0  0  0  0  0
    0.6747   -7.4019    2.7838 C   0  0  2  0  0  0  0  0  0  0  0  0
    0.7594   -8.0032    1.4295 C   0  0  0  0  0  0  0  0  0  0  0  0
    0.3459   -9.1500    1.3581 C   0  0  1  0  0  0  0  0  0  0  0  0
    1.1876  -10.0065    2.0240 C   0  0  2  0  0  0  0  0  0  0  0  0
    1.9076   -9.7379    2.7265 C   0  0  0  0  0  0  0  0  0  0  0  0
    1.8713   -9.2752    3.9137 C   0  0  0  0  0  0  0  0  0  0  0  0
    0.5483   -6.0403    2.9669 C   0  0  0  0  0  0  0  0  0  0  0  0
    1.5794   -5.2051    3.2759 O   0  0  0  0  0  0  0  0  0  0  0  0
    1.3138  -11.3033    1.1776 C   0  0  0  0  0  0  0  0  0  0  0  0
    0.4737  -12.3276    1.3521 C   0  0  0  0  0  0  0  0  0  0  0  0
   -0.6781  -12.0534    1.5953 C   0  0  0  0  0  0  0  0  0  0  0  0
   -1.3068  -10.7663    1.6943 C   0  0  0  0  0  0  0  0  0  0  0  0
   -0.9529   -9.4989    1.4582 C   0  0  2  0  0  0  0  0  0  0  0  0
   -1.9326   -8.6396    0.9141 C   0  0  0  0  0  0  0  0  0  0  0  0
   -1.8654   -8.1284   -0.3763 O   0  0  0  0  0  0  0  0  0  0  0  0
   -2.6159   -7.8453    1.7889 O   0  0  0  0  0  0  0  0  0  0  0  0
   -0.6232   -5.4212    2.7186 O   0  0  0  0  0  0  0  0  0  0  0  0
    1.1544   -7.1918    0.4317 O   0  0  0  0  0  0  0  0  0  0  0  0
  1  2  1  0
  2  3  1  0
  4  3  1  1
  4  5  1  0
  5  6  1  6
  1  7  1  0
  6  7  1  0
  2  8  1  6
  8  9  1  0
  5 10  1  0
 10 11  1  0
 11 12  2  0
 12 13  1  0
  4 14  1  0
 13 14  1  0
 14 15  1  6
 15 16  2  0
 15 17  1  0
  8 18  2  0
  3 19  2  0
M  END

$$$$
No_4995-/export/home/yangzhenyu/potential_scad_32_flow//YTHDC2/2024-12-06-03-22-00/
     RDKit          3D

 18 18  0  0  0  0  0  0  0  0999 V2000
    1.1787   -8.0297    3.5154 C   0  0  0  0  0  0  0  0  0  0  0  0
    1.0491   -6.8434    2.9820 C   0  0  0  0  0  0  0  0  0  0  0  0
    1.9985   -8.9840    2.8958 C   0  0  0  0  0  0  0  0  0  0  0  0
    1.7297   -9.2108    1.6335 N   0  0  0  0  0  0  0  0  0  0  0  0
    1.1497   -6.6398    1.8530 C   0  0  0  0  0  0  0  0  0  0  0  0
    1.5751   -7.8789    0.9363 C   0  0  0  0  0  0  0  0  0  0  0  0
    2.0072  -10.4497    3.3779 C   0  0  0  0  0  0  0  0  0  0  0  0
    1.0505  -11.1135    3.7628 O   0  0  0  0  0  0  0  0  0  0  0  0
    0.8666   -5.5142    1.0786 Cl  0  0  0  0  0  0  0  0  0  0  0  0
    1.1343  -12.4382    3.7037 C   0  0  0  0  0  0  0  0  0  0  0  0
    2.1382  -13.0517    3.3494 C   0  0  0  0  0  0  0  0  0  0  0  0
    1.9117  -13.4816    2.3183 C   0  0  1  0  0  0  0  0  0  0  0  0
    1.0545  -12.6871    1.4077 C   0  0  0  0  0  0  0  0  0  0  0  0
   -0.1926  -13.2751    1.0576 C   0  0  0  0  0  0  0  0  0  0  0  0
   -1.1870  -12.4629    0.3037 Cl  0  0  0  0  0  0  0  0  0  0  0  0
    2.6664  -14.4899    1.6004 C   0  0  0  0  0  0  0  0  0  0  0  0
    2.7921  -15.7244    2.3007 N   0  0  0  0  0  0  0  0  0  0  0  0
    1.8270  -16.6402    2.5935 C   0  0  0  0  0  0  0  0  0  0  0  0
  3  7  1  0
  7  8  1  0
  5  9  1  0
  8 10  1  0
 10 11  1  0
 12 11  1  6
 12 13  1  0
 13 14  1  0
 14 15  1  0
 12 16  1  0
 16 17  1  0
 17 18  1  0
  1  2  2  0
  2  5  1  0
  5  6  2  0
  4  6  1  0
  3  4  2  0
  1  3  1  0
M  END

$$$$
No_4996-/export/home/yangzhenyu/potential_scad_32_flow//YTHDC2/2024-12-06-03-22-00/
     RDKit          3D

 18 19  0  0  0  0  0  0  0  0999 V2000
    1.1787   -8.0297    3.5154 C   0  0  0  0  0  0  0  0  0  0  0  0
    1.0491   -6.8434    2.9820 C   0  0  0  0  0  0  0  0  0  0  0  0
    0.0950   -8.8404    3.2292 C   0  0  0  0  0  0  0  0  0  0  0  0
   -0.9173   -8.4596    2.5152 C   0  0  0  0  0  0  0  0  0  0  0  0
   -1.0331   -7.2162    2.0653 C   0  0  0  0  0  0  0  0  0  0  0  0
   -0.0105   -6.3168    2.3081 C   0  0  0  0  0  0  0  0  0  0  0  0
    0.1465  -10.2446    3.6981 C   0  0  0  0  0  0  0  0  0  0  0  0
    1.2433  -10.8239    4.0166 C   0  0  0  0  0  0  0  0  0  0  0  0
    1.1033  -12.2936    4.0346 C   0  0  0  0  0  0  0  0  0  0  0  0
    0.0220  -12.9035    3.7006 C   0  0  0  0  0  0  0  0  0  0  0  0
   -1.0373  -12.2681    3.2608 C   0  0  0  0  0  0  0  0  0  0  0  0
   -1.0058  -10.9076    3.2655 C   0  0  0  0  0  0  0  0  0  0  0  0
   -0.1246   -5.0088    1.8408 Br  0  0  0  0  0  0  0  0  0  0  0  0
    0.1203  -14.4933    3.6984 O   0  0  0  0  0  0  0  0  0  0  0  0
   -0.5779  -15.2089    2.9355 C   0  0  0  0  0  0  0  0  0  0  0  0
    0.1388  -16.4301    2.7783 C   0  0  0  0  0  0  0  0  0  0  0  0
   -0.2735  -17.4156    3.3440 C   0  0  0  0  0  0  0  0  0  0  0  0
    0.5765  -18.6943    3.2341 C   0  0  0  0  0  0  0  0  0  0  0  0
  3  7  1  0
  6 13  1  0
 10 14  1  0
 14 15  1  0
 15 16  1  0
 16 17  1  0
 17 18  2  0
  1  2  2  0
  2  6  1  0
  5  6  2  0
  4  5  1  0
  3  4  2  0
  1  3  1  0
  7  8  2  0
  8  9  1  0
  9 10  2  0
 10 11  1  0
 11 12  2  0
  7 12  1  0
M  END

$$$$
No_4997-/export/home/yangzhenyu/potential_scad_32_flow//YTHDC2/2024-12-06-03-22-00/
     RDKit          3D

 21 22  0  0  0  0  0  0  0  0999 V2000
    1.1787   -8.0297    3.5154 C   0  0  0  0  0  0  0  0  0  0  0  0
    1.1048   -9.2215    3.2892 C   0  0  0  0  0  0  0  0  0  0  0  0
    1.2339   -9.7611    2.0189 C   0  0  0  0  0  0  0  0  0  0  0  0
    1.1954  -11.2312    1.8661 C   0  0  0  0  0  0  0  0  0  0  0  0
    1.2996  -11.5815    0.5387 C   0  0  0  0  0  0  0  0  0  0  0  0
    1.3263   -7.1208    2.3229 C   0  0  0  0  0  0  0  0  0  0  0  0
    1.3693   -7.6408    1.0625 C   0  0  0  0  0  0  0  0  0  0  0  0
    1.4358   -8.9950    0.8622 C   0  0  0  0  0  0  0  0  0  0  0  0
    0.9078  -11.9576    2.8785 C   0  0  0  0  0  0  0  0  0  0  0  0
    0.1713  -12.8619    2.7667 C   0  0  0  0  0  0  0  0  0  0  0  0
   -0.0467  -13.4985    1.4957 C   0  0  0  0  0  0  0  0  0  0  0  0
    0.5285  -12.8138    0.3740 C   0  0  0  0  0  0  0  0  0  0  0  0
    1.3430   -5.6375    2.5538 Br  0  0  0  0  0  0  0  0  0  0  0  0
   -0.5411  -14.7876    1.3099 C   0  0  0  0  0  0  0  0  0  0  0  0
   -1.8428  -14.8498    0.8646 C   0  0  0  0  0  0  0  0  0  0  0  0
   -2.6309  -14.0074    1.0727 N   0  0  0  0  0  0  0  0  0  0  0  0
   -3.2875  -13.9760    2.1938 C   0  0  0  0  0  0  0  0  0  0  0  0
   -3.9892  -12.7651    2.7365 C   0  0  0  0  0  0  0  0  0  0  0  0
   -4.5578  -12.7219    3.9032 C   0  0  0  0  0  0  0  0  0  0  0  0
   -4.5586  -13.9250    4.6719 C   0  0  0  0  0  0  0  0  0  0  0  0
   -4.0574  -15.1096    4.2117 C   0  0  0  0  0  0  0  0  0  0  0  0
  3  4  1  0
  6 13  1  0
 11 14  1  0
 14 15  1  0
 15 16  1  0
 16 17  1  0
 17 18  1  0
 18 19  2  3
 19 20  1  0
 20 21  2  0
  4  5  2  0
  5 12  1  0
 11 12  2  0
 10 11  1  0
  9 10  2  0
  4  9  1  0
  1  2  2  0
  2  3  1  0
  3  8  2  0
  7  8  1  0
  6  7  2  0
  1  6  1  0
M  END

$$$$
No_4998-/export/home/yangzhenyu/potential_scad_32_flow//YTHDC2/2024-12-06-03-22-00/
     RDKit          3D

 19 20  0  0  0  0  0  0  0  0999 V2000
    1.1787   -8.0297    3.5154 C   0  0  0  0  0  0  0  0  0  0  0  0
    1.1048   -9.2215    3.2892 C   0  0  0  0  0  0  0  0  0  0  0  0
    1.2339   -9.7611    2.0189 C   0  0  0  0  0  0  0  0  0  0  0  0
    1.3583   -9.0036    0.9764 C   0  0  0  0  0  0  0  0  0  0  0  0
    1.5996   -7.6362    1.1311 C   0  0  0  0  0  0  0  0  0  0  0  0
    1.4830   -7.0928    2.3626 C   0  0  0  0  0  0  0  0  0  0  0  0
    1.1171  -11.3311    1.8661 C   0  0  0  0  0  0  0  0  0  0  0  0
    0.5022  -11.6388    0.6531 C   0  0  0  0  0  0  0  0  0  0  0  0
    0.5683  -13.0838    0.5424 C   0  0  0  0  0  0  0  0  0  0  0  0
    1.2665  -13.8887    1.3003 C   0  0  0  0  0  0  0  0  0  0  0  0
    1.9989  -13.3977    2.4029 C   0  0  0  0  0  0  0  0  0  0  0  0
    1.8520  -12.0917    2.7212 C   0  0  0  0  0  0  0  0  0  0  0  0
    2.5585  -11.5789    3.7298 N   0  0  0  0  0  0  0  0  0  0  0  0
    1.5460   -5.6620    2.6407 C   0  0  0  0  0  0  0  0  0  0  0  0
    1.1835   -4.8200    1.6153 C   0  0  0  0  0  0  0  0  0  0  0  0
   -0.1228   -4.8746    1.1995 C   0  0  0  0  0  0  0  0  0  0  0  0
   -0.6735   -4.1612    0.1724 C   0  0  0  0  0  0  0  0  0  0  0  0
   -0.2008   -2.8318    0.0381 C   0  0  0  0  0  0  0  0  0  0  0  0
   -0.7266   -2.0465   -0.9178 C   0  0  0  0  0  0  0  0  0  0  0  0
  3  7  1  0
  6 14  1  0
 14 15  1  0
 15 16  1  0
 16 17  1  0
 17 18  1  0
 18 19  1  0
 12 13  1  0
  1  2  2  0
  2  3  1  0
  3  4  2  0
  4  5  1  0
  5  6  2  0
  1  6  1  0
  7  8  2  0
  8  9  1  0
  9 10  2  0
 10 11  1  0
 11 12  2  0
  7 12  1  0
M  END

$$$$
No_4999-/export/home/yangzhenyu/potential_scad_32_flow//YTHDC2/2024-12-06-03-22-00/
     RDKit          3D

 20 20  0  0  0  0  0  0  0  0999 V2000
    1.1787   -8.0297    3.5154 Cl  0  0  0  0  0  0  0  0  0  0  0  0
    0.6122   -7.9650    2.5747 C   0  0  2  0  0  0  0  0  0  0  0  0
    0.4809   -9.1882    1.8138 C   0  0  2  0  0  0  0  0  0  0  0  0
    0.7467  -10.3320    2.4096 C   0  0  2  0  0  0  0  0  0  0  0  0
    1.8223  -10.9925    1.9211 C   0  0  0  0  0  0  0  0  0  0  0  0
    0.1533   -6.7295    1.8734 C   0  0  0  0  0  0  0  0  0  0  0  0
    2.1483  -12.2459    2.4276 C   0  0  0  0  0  0  0  0  0  0  0  0
    1.3062  -12.9421    3.2025 C   0  0  2  0  0  0  0  0  0  0  0  0
    0.2489  -12.3309    3.7367 C   0  0  0  0  0  0  0  0  0  0  0  0
    0.0266  -11.0647    3.3269 C   0  0  0  0  0  0  0  0  0  0  0  0
   -1.0639   -6.7073    1.4603 O   0  0  0  0  0  0  0  0  0  0  0  0
    0.9574   -5.7252    1.7816 O   0  0  0  0  0  0  0  0  0  0  0  0
    1.6553  -14.3997    3.5126 C   0  0  0  0  0  0  0  0  0  0  0  0
    0.4681  -15.1155    3.7497 O   0  0  0  0  0  0  0  0  0  0  0  0
    2.4286  -15.0953    2.8203 O   0  0  0  0  0  0  0  0  0  0  0  0
   -1.1732  -10.4649    3.8171 O   0  0  0  0  0  0  0  0  0  0  0  0
    0.2039   -9.1891    0.4238 C   0  0  0  0  0  0  0  0  0  0  0  0
   -0.9357   -9.7228   -0.0981 O   0  0  0  0  0  0  0  0  0  0  0  0
    0.9792   -8.5402   -0.5488 N   0  0  0  0  0  0  0  0  0  0  0  0
    0.7036   -8.7710   -1.8672 O   0  0  0  0  0  0  0  0  0  0  0  0
  2  1  1  6
  2  3  1  0
  3  4  1  0
  4  5  1  6
  2  6  1  0
  7  8  1  0
  4 10  1  0
  9 10  1  0
  6 11  2  0
  6 12  1  0
  8 13  1  1
 13 14  2  0
 13 15  1  0
 10 16  2  0
  3 17  1  6
 17 18  2  0
 17 19  1  0
 19 20  2  0
  5  7  1  0
  8  9  1  0
M  END
